REMARK  Name = ZINCqH0000008ssZ.0
REMARK                            x       y       z     vdW  Elec       q    Type
REMARK                         _______ _______ _______ _____ _____    ______ ____
ROOT
ATOM      1  N   LIG    1       -1.627   2.048  -0.049  0.00  0.00    -0.730 N 
ATOM      2  H   LIG    1       -2.490   1.609  -0.005  0.00  0.00    +0.410 HD
ENDROOT
BRANCH   1   3
ATOM      3  C   LIG    1       -0.456   1.285  -0.112  0.00  0.00    +0.200 A 
ATOM      4  C   LIG    1        0.781   1.914  -0.179  0.00  0.00    -0.060 A 
ATOM      5  C   LIG    1        1.935   1.160  -0.248  0.00  0.00    +0.030 A 
ATOM      6  C   LIG    1        1.861  -0.226  -0.248  0.00  0.00    +0.090 A 
ATOM      7  C   LIG    1        0.625  -0.855  -0.180  0.00  0.00    +0.060 A 
ATOM      8  C   LIG    1       -0.530  -0.102  -0.112  0.00  0.00    -0.040 A 
BRANCH   6   9
ATOM      9  N   LIG    1        3.033  -0.991  -0.317  0.00  0.00    -0.660 N 
ATOM     10  H   LIG    1        3.871  -0.624   0.006  0.00  0.00    +0.410 HD
ATOM     11  C   LIG    1        2.997  -2.236  -0.831  0.00  0.00    +0.540 C 
ATOM     12  O   LIG    1        1.974  -2.656  -1.331  0.00  0.00    -0.520 OA
BRANCH  11  13
ATOM     13  C   LIG    1        4.226  -3.107  -0.786  0.00  0.00    -0.070 C 
ATOM     14  C   LIG    1        4.916  -3.424  -2.114  0.00  0.00    +0.060 C 
ATOM     15  C   LIG    1        4.120  -4.510  -1.387  0.00  0.00    +0.070 C 
ENDBRANCH  11  13
ENDBRANCH   6   9
ENDBRANCH   1   3
BRANCH   1  17
ATOM     16  C   LIG    1       -1.321   4.009   1.381  0.00  0.00    +0.050 C 
ATOM     17  C   LIG    1       -1.548   3.511  -0.048  0.00  0.00    +0.250 C 
BRANCH  17  18
ATOM     18  C   LIG    1       -2.836   4.083  -0.581  0.00  0.00    +0.520 C 
ATOM     19  N   LIG    1       -2.993   5.419  -0.673  0.00  0.00    -0.670 N 
ATOM     20  H   LIG    1       -2.254   6.010  -0.460  0.00  0.00    +0.420 HD
ATOM     21  O   LIG    1       -3.732   3.342  -0.927  0.00  0.00    -0.510 OA
BRANCH  19  22
ATOM     22  C   LIG    1       -4.224   5.953  -1.076  0.00  0.00    +0.100 A 
ATOM     23  C   LIG    1       -4.998   5.286  -2.014  0.00  0.00    +0.090 A 
ATOM     24  C   LIG    1       -6.215   5.811  -2.406  0.00  0.00    +0.010 A 
ATOM     25  C   LIG    1       -6.657   7.009  -1.871  0.00  0.00    +0.120 A 
ATOM     26  C   LIG    1       -5.885   7.681  -0.939  0.00  0.00    -0.020 A 
ATOM     27  F   LIG    1       -7.845   7.524  -2.260  0.00  0.00    -0.130 F 
ATOM     28  C   LIG    1       -4.670   7.157  -0.539  0.00  0.00    +0.110 A 
ATOM     29  F   LIG    1       -3.917   7.812   0.371  0.00  0.00    -0.130 F 
ENDBRANCH  19  22
ENDBRANCH  17  18
ENDBRANCH   1  17
TORSDOF 6
