REMARK  Name = ZINCrH000004ofxL.0
REMARK                            x       y       z     vdW  Elec       q    Type
REMARK                         _______ _______ _______ _____ _____    ______ ____
ROOT
ATOM      1  N   LIG    1       -0.242   1.246   2.466  0.00  0.00    -0.720 N 
ATOM      2  H   LIG    1        0.555   0.699   2.544  0.00  0.00    +0.400 HD
ATOM      3  C   LIG    1       -0.718   1.572   1.248  0.00  0.00    +0.520 C 
ATOM      4  O   LIG    1       -1.714   2.256   1.150  0.00  0.00    -0.530 OA
ENDROOT
BRANCH   1   6
ATOM      5  C   LIG    1       -0.438   3.126   4.018  0.00  0.00    +0.020 C 
ATOM      6  C   LIG    1       -0.927   1.718   3.671  0.00  0.00    +0.240 C 
BRANCH   6   7
ATOM      7  C   LIG    1       -0.624   0.772   4.834  0.00  0.00    -0.060 C 
ATOM      8  C   LIG    1       -1.114  -0.635   4.488  0.00  0.00    +0.020 C 
ATOM      9  C   LIG    1       -0.811  -1.582   5.651  0.00  0.00    -0.020 C 
ATOM     10  C   LIG    1        0.698  -1.614   5.902  0.00  0.00    +0.010 C 
ATOM     11  C   LIG    1        1.188  -0.207   6.249  0.00  0.00    -0.020 C 
ATOM     12  C   LIG    1        0.472   0.287   7.508  0.00  0.00    +0.010 C 
ATOM     13  C   LIG    1       -1.037   0.319   7.256  0.00  0.00    -0.020 C 
ATOM     14  C   LIG    1       -1.527  -1.089   6.910  0.00  0.00    +0.010 C 
ATOM     15  C   LIG    1        0.885   0.740   5.086  0.00  0.00    +0.030 C 
ATOM     16  C   LIG    1       -1.340   1.265   6.093  0.00  0.00    +0.030 C 
ENDBRANCH   6   7
ENDBRANCH   1   6
BRANCH   3  17
ATOM     17  C   LIG    1       -0.013   1.086   0.008  0.00  0.00    +0.050 C 
BRANCH  17  18
ATOM     18  C   LIG    1       -0.753   1.593  -1.232  0.00  0.00    +0.310 C 
BRANCH  18  19
ATOM     19  N   LIG    1       -0.067   1.120  -2.437  0.00  0.00    -0.750 N 
ATOM     20  H   LIG    1        0.730   0.573  -2.358  0.00  0.00    +0.390 HD
ATOM     21  C   LIG    1       -0.543   1.446  -3.655  0.00  0.00    +0.700 C 
ATOM     22  N   LIG    1        0.087   1.011  -4.764  0.00  0.00    -0.740 N 
ATOM     23  H   LIG    1        0.884   0.464  -4.685  0.00  0.00    +0.390 HD
ATOM     24  O   LIG    1       -1.542   2.132  -3.753  0.00  0.00    -0.580 OA
BRANCH  22  25
ATOM     25  C   LIG    1       -0.431   1.366  -6.087  0.00  0.00    +0.250 C 
ATOM     26  C   LIG    1       -1.518   0.369  -6.493  0.00  0.00    +0.000 C 
ATOM     27  C   LIG    1       -2.059   0.739  -7.875  0.00  0.00    +0.010 C 
ATOM     28  C   LIG    1       -0.921   0.695  -8.897  0.00  0.00    +0.000 C 
ATOM     29  C   LIG    1        0.167   1.692  -8.491  0.00  0.00    +0.020 C 
ATOM     30  C   LIG    1        0.708   1.322  -7.109  0.00  0.00    +0.010 C 
ENDBRANCH  22  25
ENDBRANCH  18  19
ENDBRANCH  17  18
ENDBRANCH   3  17
TORSDOF 6
