REMARK  Name = ZINCpe000000SY6e.0
REMARK                            x       y       z     vdW  Elec       q    Type
REMARK                         _______ _______ _______ _____ _____    ______ ____
ROOT
ATOM      1  C   LIG    1        6.590  -1.283  -3.064  0.00  0.00    +0.240 C 
ATOM      2  C   LIG    1        6.662  -2.011  -1.718  0.00  0.00    +0.040 C 
ATOM      3  C   LIG    1        8.111  -2.419  -1.441  0.00  0.00    +0.020 C 
ATOM      4  C   LIG    1        8.591  -3.377  -2.534  0.00  0.00    +0.010 C 
ATOM      5  C   LIG    1        8.540  -2.665  -3.889  0.00  0.00    +0.290 C 
ATOM      6  N   LIG    1        7.183  -2.142  -4.098  0.00  0.00    -0.990 NA
ENDROOT
BRANCH   1   9
ATOM      7  N   LIG    1        4.772   0.250  -3.746  0.00  0.00    -0.700 N 
ATOM      8  H   LIG    1        5.426   0.966  -3.767  0.00  0.00    +0.410 HD
ATOM      9  C   LIG    1        5.151  -0.999  -3.409  0.00  0.00    +0.530 C 
ATOM     10  O   LIG    1        4.333  -1.894  -3.382  0.00  0.00    -0.540 OA
BRANCH   7  11
ATOM     11  C   LIG    1        3.373   0.526  -4.080  0.00  0.00    +0.320 C 
BRANCH  11  14
ATOM     12  N   LIG    1        2.006   2.473  -4.759  0.00  0.00    -0.720 N 
ATOM     13  H   LIG    1        1.237   1.884  -4.787  0.00  0.00    +0.400 HD
ATOM     14  C   LIG    1        3.216   1.987  -4.418  0.00  0.00    +0.510 C 
ATOM     15  O   LIG    1        4.178   2.724  -4.382  0.00  0.00    -0.540 OA
BRANCH  12  17
ATOM     16  C   LIG    1        2.197   4.115  -6.562  0.00  0.00    +0.020 C 
ATOM     17  C   LIG    1        1.854   3.893  -5.087  0.00  0.00    +0.230 C 
ATOM     18  C   LIG    1        0.409   4.324  -4.829  0.00  0.00    +0.030 C 
ENDBRANCH  12  17
ENDBRANCH  11  14
ENDBRANCH   7  11
ENDBRANCH   1   9
BRANCH   6  19
ATOM     19  S   LIG    1        6.339  -2.512  -5.474  0.00  0.00    +2.690 S 
ATOM     20  O   LIG    1        7.301  -2.650  -6.511  0.00  0.00    -0.950 OA
ATOM     21  O   LIG    1        5.254  -1.597  -5.537  0.00  0.00    -0.940 OA
BRANCH  19  22
ATOM     22  C   LIG    1        5.631  -4.109  -5.237  0.00  0.00    -0.680 A 
ATOM     23  C   LIG    1        6.332  -5.238  -5.616  0.00  0.00    +0.100 A 
ATOM     24  C   LIG    1        5.778  -6.491  -5.426  0.00  0.00    -0.020 A 
ATOM     25  C   LIG    1        4.520  -6.613  -4.866  0.00  0.00    +0.070 A 
ATOM     26  C   LIG    1        3.817  -5.483  -4.493  0.00  0.00    -0.020 A 
ATOM     27  C   LIG    1        4.373  -4.231  -4.678  0.00  0.00    +0.170 A 
ENDBRANCH  19  22
ENDBRANCH   6  19
TORSDOF 6
