REMARK  Name = ZINCrD0000074NIr.0
REMARK                            x       y       z     vdW  Elec       q    Type
REMARK                         _______ _______ _______ _____ _____    ______ ____
ROOT
ATOM      1  C   LIG    1       -6.092   3.025   0.076  0.00  0.00    +0.520 C 
ATOM      2  N   LIG    1       -7.343   3.526   0.091  0.00  0.00    -0.610 N 
ATOM      3  C   LIG    1       -7.568   4.978   0.107  0.00  0.00    +0.260 C 
ATOM      4  C   LIG    1       -8.505   5.340  -1.055  0.00  0.00    +0.020 C 
ATOM      5  C   LIG    1       -9.784   4.505  -0.950  0.00  0.00    +0.000 C 
ATOM      6  C   LIG    1       -9.435   3.019  -1.058  0.00  0.00    +0.020 C 
ATOM      7  C   LIG    1       -8.508   2.631   0.098  0.00  0.00    +0.280 C 
ATOM      8  O   LIG    1       -5.920   1.824   0.069  0.00  0.00    -0.520 OA
ENDROOT
BRANCH   1   9
ATOM      9  C   LIG    1       -4.907   3.956   0.070  0.00  0.00    +0.250 C 
BRANCH   9  10
ATOM     10  O   LIG    1       -3.681   3.179   0.054  0.00  0.00    -0.330 OA
BRANCH  10  11
ATOM     11  C   LIG    1       -2.522   3.865   0.046  0.00  0.00    +0.510 C 
ATOM     12  O   LIG    1       -2.535   5.080   0.052  0.00  0.00    -0.490 OA
BRANCH  11  18
ATOM     13  C   LIG    1        2.477   3.920  -0.001  0.00  0.00    +0.110 C 
ATOM     14  C   LIG    1        1.175   3.162   0.007  0.00  0.00    -0.130 A 
ATOM     15  C   LIG    1        1.180   1.782   0.000  0.00  0.00    +0.070 A 
ATOM     16  C   LIG    1       -0.013   1.076   0.008  0.00  0.00    +0.000 A 
ATOM     17  C   LIG    1       -1.217   1.745   0.017  0.00  0.00    +0.100 A 
ATOM     18  C   LIG    1       -1.237   3.143   0.030  0.00  0.00    -0.160 A 
ATOM     19  C   LIG    1       -0.028   3.853   0.022  0.00  0.00    +0.170 A 
BRANCH  19  20
ATOM     20  O   LIG    1       -0.035   5.209   0.029  0.00  0.00    -0.480 OA
ATOM     21  H   LIG    1       -0.045   5.607  -0.853  0.00  0.00    +0.400 HD
ENDBRANCH  19  20
ENDBRANCH  11  18
ENDBRANCH  10  11
ENDBRANCH   9  10
ENDBRANCH   1   9
BRANCH   5  22
ATOM     22  C   LIG    1      -10.737   4.888  -2.084  0.00  0.00    +0.070 C 
BRANCH  22  23
ATOM     23  C   LIG    1      -11.177   6.319  -1.908  0.00  0.00    -0.080 A 
ATOM     24  C   LIG    1      -12.313   6.607  -1.174  0.00  0.00    +0.000 A 
ATOM     25  C   LIG    1      -12.714   7.920  -1.008  0.00  0.00    +0.000 A 
ATOM     26  C   LIG    1      -11.985   8.943  -1.585  0.00  0.00    +0.000 A 
ATOM     27  C   LIG    1      -10.853   8.654  -2.324  0.00  0.00    +0.000 A 
ATOM     28  C   LIG    1      -10.449   7.342  -2.485  0.00  0.00    +0.000 A 
ENDBRANCH  22  23
ENDBRANCH   5  22
TORSDOF 7
