REMARK  Name = ZINCrg000000nMk5.0
REMARK                            x       y       z     vdW  Elec       q    Type
REMARK                         _______ _______ _______ _____ _____    ______ ____
ROOT
ATOM      1  C   LIG    1       -6.680   2.051   4.724  0.00  0.00    +0.170 A 
ATOM      2  N   LIG    1       -6.553   3.228   5.295  0.00  0.00    -0.290 NA
ATOM      3  N   LIG    1       -7.479   3.396   6.171  0.00  0.00    -0.250 NA
ATOM      4  C   LIG    1       -8.253   2.337   6.213  0.00  0.00    +0.200 A 
ATOM      5  N   LIG    1       -7.769   1.445   5.283  0.00  0.00    -0.300 N 
ENDROOT
BRANCH   4   6
ATOM      6  C   LIG    1       -9.428   2.142   7.088  0.00  0.00    -0.030 A 
ATOM      7  C   LIG    1       -9.975   0.868   7.254  0.00  0.00    +0.000 A 
ATOM      8  C   LIG    1      -11.068   0.692   8.078  0.00  0.00    +0.020 A 
ATOM      9  C   LIG    1      -11.629   1.776   8.729  0.00  0.00    -0.070 A 
ATOM     10  C   LIG    1      -11.095   3.042   8.565  0.00  0.00    +0.020 A 
ATOM     11  C   LIG    1      -12.827   1.577   9.622  0.00  0.00    +0.100 C 
ATOM     12  C   LIG    1       -9.999   3.231   7.749  0.00  0.00    +0.070 A 
ENDBRANCH   4   6
BRANCH   5  13
ATOM     13  N   LIG    1       -8.271   0.211   4.984  0.00  0.00    -0.590 N 
ATOM     14  H   LIG    1       -9.277   0.199   5.067  0.00  0.00    +0.380 HD
ATOM     15  H   LIG    1       -7.852  -0.500   5.564  0.00  0.00    +0.370 HD
ENDBRANCH   5  13
BRANCH   1  16
ATOM     16  S   LIG    1       -5.643   1.382   3.467  0.00  0.00    +0.120 S 
BRANCH  16  17
ATOM     17  C   LIG    1       -4.470   2.746   3.268  0.00  0.00    +0.100 C 
BRANCH  17  19
ATOM     18  N   LIG    1       -2.481   3.260   1.891  0.00  0.00    -0.590 N 
ATOM     19  C   LIG    1       -3.458   2.388   2.210  0.00  0.00    +0.540 C 
ATOM     20  O   LIG    1       -3.523   1.316   1.647  0.00  0.00    -0.520 OA
BRANCH  18  21
ATOM     21  C   LIG    1       -1.496   2.912   0.863  0.00  0.00    +0.280 C 
ATOM     22  C   LIG    1       -0.777   1.604   1.243  0.00  0.00    +0.060 C 
ATOM     23  C   LIG    1       -0.013   1.086   0.008  0.00  0.00    -0.310 C 
ATOM     24  S   LIG    1       -0.947   1.716  -1.433  0.00  0.00    +2.390 S 
ATOM     25  O   LIG    1       -1.567   0.628  -2.105  0.00  0.00    -0.930 OA
ATOM     26  O   LIG    1       -0.133   2.626  -2.160  0.00  0.00    -0.930 OA
ATOM     27  C   LIG    1       -2.210   2.651  -0.489  0.00  0.00    -0.310 C 
ENDBRANCH  18  21
BRANCH  18  29
ATOM     28  C   LIG    1       -3.224   5.588   1.798  0.00  0.00    +0.020 C 
ATOM     29  C   LIG    1       -2.402   4.555   2.571  0.00  0.00    +0.280 C 
ENDBRANCH  18  29
ENDBRANCH  17  19
ENDBRANCH  16  17
ENDBRANCH   1  16
TORSDOF 7
