REMARK  Name = ZINCrD00000hQ5pO.0
REMARK                            x       y       z     vdW  Elec       q    Type
REMARK                         _______ _______ _______ _____ _____    ______ ____
ROOT
ATOM      1  N   LIG    1       -0.837   1.532  -1.114  0.00  0.00    -0.450 N 
ATOM      2  C   LIG    1       -0.611   2.983  -1.291  0.00  0.00    +0.240 C 
ATOM      3  C   LIG    1       -1.626   3.730  -0.463  0.00  0.00    +0.060 C 
ATOM      4  C   LIG    1       -1.095   4.066   0.939  0.00  0.00    +0.200 C 
ATOM      5  N   LIG    1       -0.335   2.946   1.540  0.00  0.00    -0.500 N 
ATOM      6  C   LIG    1       -0.936   1.649   1.321  0.00  0.00    +0.250 C 
ATOM      7  C   LIG    1       -0.302   1.010   0.070  0.00  0.00    +0.210 C 
ENDROOT
BRANCH   5   8
ATOM      8  C   LIG    1       -0.105   3.168   2.888  0.00  0.00    +0.340 A 
ATOM      9  N   LIG    1       -1.120   3.216   3.743  0.00  0.00    -0.550 NA
ATOM     10  C   LIG    1       -0.904   3.434   5.024  0.00  0.00    +0.500 A 
ATOM     11  N   LIG    1        0.309   3.608   5.501  0.00  0.00    -0.520 NA
ATOM     12  C   LIG    1        1.378   3.560   4.707  0.00  0.00    +0.180 A 
ATOM     13  C   LIG    1        2.736   3.721   5.334  0.00  0.00    +0.110 C 
ATOM     14  C   LIG    1        3.559   4.775   4.586  0.00  0.00    +0.030 C 
ATOM     15  C   LIG    1        4.394   4.056   3.532  0.00  0.00    +0.020 C 
ATOM     16  C   LIG    1        3.628   2.841   3.003  0.00  0.00    +0.010 C 
ATOM     17  C   LIG    1        2.327   3.330   2.365  0.00  0.00    +0.110 C 
ATOM     18  C   LIG    1        1.201   3.350   3.365  0.00  0.00    -0.150 A 
ENDBRANCH   5   8
BRANCH   1  22
ATOM     19  C   LIG    1        0.737  -0.367  -4.069  0.00  0.00    -0.080 A 
ATOM     20  N   LIG    1       -0.556  -0.366  -4.054  0.00  0.00    -0.180 NA
ATOM     21  N   LIG    1       -1.136   0.238  -3.112  0.00  0.00    -0.230 NA
ATOM     22  C   LIG    1       -0.389   0.821  -2.218  0.00  0.00    +0.250 A 
ATOM     23  S   LIG    1        1.295   0.550  -2.669  0.00  0.00    +0.090 S 
BRANCH  19  25
ATOM     24  F   LIG    1        0.811  -1.557  -6.122  0.00  0.00    -0.150 F 
ATOM     25  C   LIG    1        1.611  -1.030  -5.102  0.00  0.00    +0.560 C 
ATOM     26  F   LIG    1        2.342  -2.061  -4.503  0.00  0.00    -0.160 F 
ATOM     27  F   LIG    1        2.492  -0.086  -5.642  0.00  0.00    -0.160 F 
ENDBRANCH  19  25
ENDBRANCH   1  22
TORSDOF 3
