REMARK  Name = ZINCrH000004q4on.0
REMARK                            x       y       z     vdW  Elec       q    Type
REMARK                         _______ _______ _______ _____ _____    ______ ____
ROOT
ATOM      1  C   LIG    1       -2.035  -1.660  -0.005  0.00  0.00    +0.070 C 
ATOM      2  C   LIG    1       -2.956  -1.922  -1.199  0.00  0.00    +0.030 C 
ATOM      3  C   LIG    1       -3.399  -3.389  -1.184  0.00  0.00    +0.270 C 
ATOM      4  N   LIG    1       -4.005  -3.686   0.121  0.00  0.00    -0.610 N 
ATOM      5  C   LIG    1       -3.240  -3.386   1.339  0.00  0.00    +0.260 C 
ATOM      6  C   LIG    1       -5.238  -4.224   0.200  0.00  0.00    +0.520 C 
ATOM      7  O   LIG    1       -5.824  -4.548  -0.811  0.00  0.00    -0.510 OA
ATOM      8  C   LIG    1       -2.798  -1.920   1.296  0.00  0.00    +0.020 C 
ENDROOT
BRANCH   1  11
ATOM      9  C   LIG    1        0.915  -0.695  -0.001  0.00  0.00    +0.140 C 
ATOM     10  C   LIG    1       -0.297   0.200  -0.034  0.00  0.00    +0.080 A 
ATOM     11  C   LIG    1       -1.570  -0.227  -0.036  0.00  0.00    -0.160 A 
ATOM     12  C   LIG    1       -2.421   0.965  -0.073  0.00  0.00    -0.090 A 
ATOM     13  C   LIG    1       -3.801   1.172  -0.092  0.00  0.00    +0.050 A 
ATOM     14  C   LIG    1       -4.296   2.445  -0.127  0.00  0.00    -0.030 A 
ATOM     15  C   LIG    1       -3.437   3.535  -0.145  0.00  0.00    +0.020 A 
ATOM     16  C   LIG    1       -2.071   3.354  -0.128  0.00  0.00    -0.010 A 
ATOM     17  C   LIG    1       -1.546   2.067  -0.091  0.00  0.00    +0.100 A 
ATOM     18  N   LIG    1       -0.263   1.567  -0.072  0.00  0.00    -0.590 N 
ATOM     19  H   LIG    1        0.545   2.104  -0.079  0.00  0.00    +0.410 HD
ENDBRANCH   1  11
BRANCH   6  20
ATOM     20  C   LIG    1       -5.888  -4.424   1.545  0.00  0.00    +0.150 C 
ATOM     21  C   LIG    1       -5.210  -5.588   2.271  0.00  0.00    +0.040 C 
BRANCH  20  22
ATOM     22  O   LIG    1       -7.275  -4.719   1.364  0.00  0.00    -0.350 OA
BRANCH  22  23
ATOM     23  C   LIG    1       -8.107  -4.278   2.438  0.00  0.00    +0.170 C 
BRANCH  23  24
ATOM     24  C   LIG    1       -9.562  -4.644   2.139  0.00  0.00    +0.170 C 
ATOM     25  C   LIG    1      -10.484  -4.067   3.235  0.00  0.00    +0.020 C 
ATOM     26  C   LIG    1      -11.518  -5.210   3.430  0.00  0.00    +0.010 C 
ATOM     27  C   LIG    1      -10.631  -6.457   3.186  0.00  0.00    +0.200 C 
ATOM     28  O   LIG    1       -9.717  -6.068   2.148  0.00  0.00    -0.370 OA
ENDBRANCH  23  24
ENDBRANCH  22  23
ENDBRANCH  20  22
ENDBRANCH   6  20
TORSDOF 5
