REMARK  Name = ZINCvU0000000CN3.0
REMARK                            x       y       z     vdW  Elec       q    Type
REMARK                         _______ _______ _______ _____ _____    ______ ____
ROOT
ATOM      1  N   LIG    1       -2.737   4.416   4.769  0.00  0.00    -0.590 N 
ATOM      2  C   LIG    1       -1.800   5.218   5.315  0.00  0.00    +0.570 C 
ATOM      3  C   LIG    1       -2.167   6.632   5.119  0.00  0.00    +0.090 A 
ATOM      4  C   LIG    1       -3.354   6.676   4.445  0.00  0.00    -0.250 A 
ATOM      5  C   LIG    1       -3.978   7.957   4.097  0.00  0.00    +0.460 A 
ATOM      6  C   LIG    1       -3.100   9.130   4.336  0.00  0.00    -0.200 A 
ATOM      7  C   LIG    1       -3.466  10.393   3.869  0.00  0.00    +0.140 A 
ATOM      8  C   LIG    1       -2.632  11.468   4.090  0.00  0.00    -0.060 A 
ATOM      9  C   LIG    1       -1.436  11.293   4.774  0.00  0.00    +0.120 A 
ATOM     10  C   LIG    1       -1.067  10.052   5.242  0.00  0.00    +0.040 A 
ATOM     11 CL   LIG    1       -3.078  13.043   3.512  0.00  0.00    -0.050 Cl
ATOM     12  C   LIG    1       -1.894   8.948   5.034  0.00  0.00    +0.150 A 
ATOM     13  O   LIG    1       -5.109   8.050   3.653  0.00  0.00    -0.430 OA
ATOM     14  O   LIG    1       -1.511   7.742   5.510  0.00  0.00    -0.180 OA
ATOM     15  O   LIG    1       -0.797   4.832   5.882  0.00  0.00    -0.480 OA
ATOM     16  C   LIG    1       -3.785   5.270   4.188  0.00  0.00    +0.350 C 
ENDROOT
BRANCH  16  17
ATOM     17  C   LIG    1       -5.107   5.000   4.859  0.00  0.00    -0.080 A 
ATOM     18  C   LIG    1       -5.159   4.793   6.225  0.00  0.00    +0.010 A 
ATOM     19  C   LIG    1       -6.370   4.545   6.844  0.00  0.00    +0.030 A 
ATOM     20  C   LIG    1       -7.532   4.503   6.098  0.00  0.00    +0.000 A 
ATOM     21  C   LIG    1       -7.483   4.710   4.727  0.00  0.00    +0.110 A 
ATOM     22  C   LIG    1       -6.268   4.965   4.110  0.00  0.00    +0.020 A 
BRANCH  21  23
ATOM     23  O   LIG    1       -8.625   4.669   3.992  0.00  0.00    -0.500 OA
ATOM     24  H   LIG    1       -9.069   5.524   3.906  0.00  0.00    +0.390 HD
ENDBRANCH  21  23
ENDBRANCH  16  17
BRANCH   1  25
ATOM     25  C   LIG    1       -2.717   2.951   4.762  0.00  0.00    +0.380 C 
BRANCH  25  30
ATOM     26  C   LIG    1       -0.013   1.086   0.008  0.00  0.00    +0.090 C 
ATOM     27  C   LIG    1       -0.718   1.572   1.248  0.00  0.00    -0.070 A 
ATOM     28  C   LIG    1       -2.083   1.789   1.226  0.00  0.00    +0.000 A 
ATOM     29  C   LIG    1       -2.731   2.230   2.365  0.00  0.00    +0.020 A 
ATOM     30  C   LIG    1       -2.012   2.464   3.522  0.00  0.00    -0.130 A 
ATOM     31  C   LIG    1       -0.646   2.252   3.542  0.00  0.00    +0.040 A 
ATOM     32  C   LIG    1        0.001   1.806   2.405  0.00  0.00    +0.000 A 
ENDBRANCH  25  30
ENDBRANCH   1  25
TORSDOF 4
