REMARK  Name = ZINCqH00000089Ww.0
REMARK                            x       y       z     vdW  Elec       q    Type
REMARK                         _______ _______ _______ _____ _____    ______ ____
ROOT
ATOM      1  S   LIG    1        1.362   4.516   1.239  0.00  0.00    +2.440 S 
ATOM      2  O   LIG    1        2.717   4.365   1.640  0.00  0.00    -0.900 OA
ATOM      3  O   LIG    1        0.327   4.159   2.145  0.00  0.00    -0.900 OA
ENDROOT
BRANCH   1   5
ATOM      4  C   LIG    1       -0.311   6.384   0.148  0.00  0.00    +0.120 C 
ATOM      5  C   LIG    1        1.103   6.232   0.712  0.00  0.00    -0.460 C 
BRANCH   5   6
ATOM      6  C   LIG    1        1.273   7.152   1.894  0.00  0.00    +0.550 C 
ATOM      7  N   LIG    1        1.529   8.460   1.698  0.00  0.00    -0.710 N 
ATOM      8  H   LIG    1        1.603   8.810   0.797  0.00  0.00    +0.400 HD
ATOM      9  O   LIG    1        1.181   6.714   3.021  0.00  0.00    -0.520 OA
BRANCH   7  10
ATOM     10  C   LIG    1        1.694   9.354   2.847  0.00  0.00    +0.240 C 
ATOM     11  C   LIG    1        0.322   9.842   3.316  0.00  0.00    +0.010 C 
ATOM     12  C   LIG    1        0.495  10.776   4.516  0.00  0.00    +0.020 C 
ATOM     13  C   LIG    1        1.352  11.976   4.109  0.00  0.00    +0.010 C 
ATOM     14  C   LIG    1        2.724  11.488   3.640  0.00  0.00    +0.030 C 
ATOM     15  C   LIG    1        2.551  10.555   2.440  0.00  0.00    -0.020 C 
ATOM     16  C   LIG    1        3.923  10.066   1.971  0.00  0.00    +0.020 C 
ENDBRANCH   7  10
ENDBRANCH   5   6
ENDBRANCH   1   5
BRANCH   1  17
ATOM     17  C   LIG    1        1.113   3.606  -0.311  0.00  0.00    -0.290 C 
BRANCH  17  18
ATOM     18  C   LIG    1        1.433   2.150  -0.095  0.00  0.00    -0.040 A 
ATOM     19  C   LIG    1        0.490   1.311   0.467  0.00  0.00    +0.040 A 
ATOM     20  C   LIG    1        0.784  -0.026   0.665  0.00  0.00    +0.060 A 
ATOM     21  C   LIG    1        2.020  -0.523   0.299  0.00  0.00    +0.030 A 
ATOM     22  C   LIG    1        2.964   0.316  -0.264  0.00  0.00    +0.080 A 
ATOM     23  C   LIG    1        2.670   1.652  -0.461  0.00  0.00    -0.170 A 
BRANCH  23  24
ATOM     24  C   LIG    1        3.699   2.567  -1.073  0.00  0.00    +0.500 C 
ATOM     25  F   LIG    1        4.036   3.570  -0.157  0.00  0.00    -0.150 F 
ATOM     26  F   LIG    1        3.174   3.151  -2.231  0.00  0.00    -0.180 F 
ATOM     27  F   LIG    1        4.843   1.831  -1.401  0.00  0.00    -0.170 F 
ENDBRANCH  23  24
ENDBRANCH  17  18
ENDBRANCH   1  17
TORSDOF 6
