REMARK  Name = ZINCrH000004v6wI.0
REMARK                            x       y       z     vdW  Elec       q    Type
REMARK                         _______ _______ _______ _____ _____    ______ ____
ROOT
ATOM      1  O   LIG    1       -2.746   3.810   1.630  0.00  0.00    -0.500 OA
ATOM      2  C   LIG    1       -3.109   3.133   2.569  0.00  0.00    +0.510 C 
ATOM      3  N   LIG    1       -3.643   3.721   3.657  0.00  0.00    -0.670 N 
ATOM      4  H   LIG    1       -4.002   3.176   4.376  0.00  0.00    +0.410 HD
ENDROOT
BRANCH   2   5
ATOM      5  C   LIG    1       -2.962   1.634   2.517  0.00  0.00    +0.230 C 
ATOM      6  C   LIG    1       -4.352   0.967   2.596  0.00  0.00    +0.050 C 
ATOM      7  C   LIG    1       -4.222  -0.226   1.612  0.00  0.00    +0.040 C 
ATOM      8  C   LIG    1       -3.315   0.381   0.509  0.00  0.00    +0.250 C 
ATOM      9  N   LIG    1       -2.358   1.234   1.238  0.00  0.00    -0.610 N 
ATOM     10  C   LIG    1       -1.135   1.592   0.801  0.00  0.00    +0.540 C 
ATOM     11  O   LIG    1       -0.431   2.305   1.485  0.00  0.00    -0.520 OA
BRANCH  10  12
ATOM     12  C   LIG    1       -0.640   1.107  -0.537  0.00  0.00    -0.010 C 
ATOM     13  C   LIG    1       -1.584   1.597  -1.638  0.00  0.00    +0.020 C 
ATOM     14  C   LIG    1       -1.082   1.104  -2.996  0.00  0.00    +0.010 C 
ATOM     15  C   LIG    1        0.324   1.651  -3.249  0.00  0.00    +0.000 C 
ATOM     16  C   LIG    1        1.268   1.161  -2.149  0.00  0.00    +0.010 C 
ATOM     17  C   LIG    1        0.766   1.654  -0.790  0.00  0.00    +0.040 C 
ENDBRANCH  10  12
ENDBRANCH   2   5
BRANCH   3  18
ATOM     18  C   LIG    1       -3.682   5.118   3.751  0.00  0.00    +0.140 A 
ATOM     19  C   LIG    1       -3.516   5.736   4.983  0.00  0.00    -0.010 A 
ATOM     20  C   LIG    1       -3.548   7.114   5.075  0.00  0.00    +0.050 A 
ATOM     21  C   LIG    1       -3.757   7.880   3.936  0.00  0.00    +0.070 A 
ATOM     22  C   LIG    1       -3.929   7.262   2.704  0.00  0.00    -0.010 A 
ATOM     23  C   LIG    1       -3.892   5.885   2.612  0.00  0.00    +0.030 A 
BRANCH  21  24
ATOM     24  N   LIG    1       -3.795   9.276   4.029  0.00  0.00    -0.480 N 
ATOM     25  C   LIG    1       -2.698   9.892   3.240  0.00  0.00    +0.180 C 
ATOM     26  C   LIG    1       -3.190  11.345   3.022  0.00  0.00    +0.030 C 
ATOM     27  C   LIG    1       -4.712  11.167   2.813  0.00  0.00    +0.010 C 
ATOM     28  C   LIG    1       -5.051   9.812   3.461  0.00  0.00    +0.170 C 
ENDBRANCH  21  24
ENDBRANCH   3  18
TORSDOF 4
