REMARK  Name = ZINCpe00000MJIVQ.1
REMARK                            x       y       z     vdW  Elec       q    Type
REMARK                         _______ _______ _______ _____ _____    ______ ____
ROOT
ATOM      1  C   LIG    1       -4.598   5.376  -2.251  0.00  0.00    +0.080 C 
ATOM      2  C   LIG    1       -5.188   5.115  -0.863  0.00  0.00    +0.030 C 
ATOM      3  C   LIG    1       -5.441   3.614  -0.694  0.00  0.00    +0.280 C 
ATOM      4  N   LIG    1       -4.191   2.891  -0.964  0.00  0.00    -0.610 N 
ATOM      5  C   LIG    1       -3.489   3.141  -2.230  0.00  0.00    +0.270 C 
ATOM      6  C   LIG    1       -3.694   2.019  -0.064  0.00  0.00    +0.530 C 
ATOM      7  O   LIG    1       -4.280   1.825   0.980  0.00  0.00    -0.510 OA
ATOM      8  C   LIG    1       -3.261   4.644  -2.385  0.00  0.00    +0.030 C 
ENDROOT
BRANCH   6   9
ATOM      9  C   LIG    1       -2.410   1.285  -0.356  0.00  0.00    +0.130 C 
ATOM     10  C   LIG    1       -1.225   2.094   0.185  0.00  0.00    +0.330 C 
ATOM     11  N   LIG    1       -0.029   1.254   0.117  0.00  0.00    -0.470 N 
ATOM     12  C   LIG    1        1.269   1.598   0.193  0.00  0.00    +0.190 A 
ATOM     13  N   LIG    1        1.965   0.497   0.071  0.00  0.00    -0.290 NA
ATOM     14  N   LIG    1        1.170  -0.508  -0.075  0.00  0.00    -0.280 NA
ATOM     15  C   LIG    1        1.817   2.989   0.384  0.00  0.00    +0.200 C 
ATOM     16  C   LIG    1       -0.058  -0.094  -0.052  0.00  0.00    +0.170 A 
ATOM     17  C   LIG    1       -1.335  -0.886  -0.177  0.00  0.00    +0.330 C 
ATOM     18  N   LIG    1       -2.446  -0.036   0.287  0.00  0.00    -0.520 NA
ATOM     19  C   LIG    1       -3.740  -0.695   0.065  0.00  0.00    +0.220 C 
ENDBRANCH   6   9
BRANCH   1  23
ATOM     20  C   LIG    1       -2.479  10.005  -2.111  0.00  0.00    +0.140 C 
ATOM     21  C   LIG    1       -3.440   8.872  -2.364  0.00  0.00    +0.090 A 
ATOM     22  C   LIG    1       -3.258   7.578  -2.014  0.00  0.00    -0.120 A 
ATOM     23  C   LIG    1       -4.380   6.856  -2.434  0.00  0.00    +0.080 A 
ATOM     24  N   LIG    1       -5.210   7.689  -3.008  0.00  0.00    -0.290 NA
ATOM     25  N   LIG    1       -4.639   8.968  -2.976  0.00  0.00    -0.480 N 
ATOM     26  H   LIG    1       -5.036   9.778  -3.331  0.00  0.00    +0.440 HD
ENDBRANCH   1  23
TORSDOF 2
