REMARK  Name = ZINCpe00000MJIVQ.0
REMARK                            x       y       z     vdW  Elec       q    Type
REMARK                         _______ _______ _______ _____ _____    ______ ____
ROOT
ATOM      1  C   LIG    1        3.626   0.702  -0.030  0.00  0.00    +0.080 C 
ATOM      2  C   LIG    1        4.149   0.825   1.403  0.00  0.00    +0.030 C 
ATOM      3  C   LIG    1        5.681   0.811   1.387  0.00  0.00    +0.270 C 
ATOM      4  N   LIG    1        6.154   1.865   0.479  0.00  0.00    -0.610 N 
ATOM      5  C   LIG    1        5.643   1.893  -0.898  0.00  0.00    +0.290 C 
ATOM      6  C   LIG    1        7.039   2.789   0.902  0.00  0.00    +0.530 C 
ATOM      7  O   LIG    1        7.421   3.654   0.143  0.00  0.00    -0.510 OA
ATOM      8  C   LIG    1        4.111   1.895  -0.856  0.00  0.00    +0.030 C 
ENDROOT
BRANCH   6   9
ATOM      9  C   LIG    1        7.554   2.747   2.318  0.00  0.00    +0.170 C 
ATOM     10  C   LIG    1        8.656   1.685   2.429  0.00  0.00    +0.290 C 
ATOM     11  N   LIG    1        9.304   1.835   3.732  0.00  0.00    -0.470 N 
ATOM     12  C   LIG    1       10.099   0.981   4.400  0.00  0.00    +0.190 A 
ATOM     13  N   LIG    1       10.426   1.562   5.526  0.00  0.00    -0.290 NA
ATOM     14  N   LIG    1        9.879   2.728   5.590  0.00  0.00    -0.270 NA
ATOM     15  C   LIG    1       10.530  -0.388   3.939  0.00  0.00    +0.200 C 
ATOM     16  C   LIG    1        9.185   2.939   4.515  0.00  0.00    +0.140 A 
ATOM     17  C   LIG    1        8.372   4.148   4.126  0.00  0.00    +0.370 C 
ATOM     18  N   LIG    1        8.094   4.064   2.681  0.00  0.00    -0.510 NA
ATOM     19  C   LIG    1        9.296   4.375   1.895  0.00  0.00    +0.210 C 
ENDBRANCH   6   9
BRANCH   1  25
ATOM     20  C   LIG    1       -1.206  -0.904   0.008  0.00  0.00    +0.150 C 
ATOM     21  C   LIG    1        0.002  -0.004   0.002  0.00  0.00    +0.080 A 
ATOM     22  N   LIG    1       -0.016   1.304   0.009  0.00  0.00    -0.290 NA
ATOM     23  N   LIG    1        1.309   1.760  -0.001  0.00  0.00    -0.470 N 
ATOM     24  H   LIG    1        1.593   2.687   0.001  0.00  0.00    +0.440 HD
ATOM     25  C   LIG    1        2.119   0.681  -0.015  0.00  0.00    +0.090 A 
ATOM     26  C   LIG    1        1.337  -0.423  -0.013  0.00  0.00    -0.120 A 
ENDBRANCH   1  25
TORSDOF 2
