REMARK  Name = ZINCrD00000F5LxW.0
REMARK                            x       y       z     vdW  Elec       q    Type
REMARK                         _______ _______ _______ _____ _____    ______ ____
ROOT
ATOM      1  N   LIG    1       -1.191  -0.717   0.010  0.00  0.00    -0.590 N 
ENDROOT
BRANCH   1   2
ATOM      2  C   LIG    1        0.002  -0.004   0.002  0.00  0.00    +0.360 A 
ATOM      3  C   LIG    1        1.220  -0.680  -0.013  0.00  0.00    +0.160 A 
ATOM      4  N   LIG    1        2.350   0.001  -0.020  0.00  0.00    -0.400 NA
ATOM      5  C   LIG    1        2.327   1.323  -0.013  0.00  0.00    +0.130 A 
ATOM      6  C   LIG    1        1.121   1.998   0.002  0.00  0.00    +0.270 A 
ATOM      7  N   LIG    1       -0.016   1.323   0.009  0.00  0.00    -0.500 NA
ENDBRANCH   1   2
BRANCH   1   8
ATOM      8  C   LIG    1       -1.170  -2.179   0.113  0.00  0.00    +0.290 C 
BRANCH   8   9
ATOM      9  C   LIG    1       -1.213  -2.587   1.586  0.00  0.00    +0.030 C 
BRANCH   9  14
ATOM     10  C   LIG    1        1.842  -6.303   2.098  0.00  0.00    +0.300 C 
ATOM     11  N   LIG    1        0.568  -5.584   2.179  0.00  0.00    -0.620 N 
ATOM     12  C   LIG    1       -0.433  -5.789   3.233  0.00  0.00    +0.250 C 
ATOM     13  C   LIG    1       -1.360  -4.555   3.166  0.00  0.00    +0.040 C 
ATOM     14  C   LIG    1       -1.191  -4.113   1.694  0.00  0.00    -0.010 C 
ATOM     15  C   LIG    1        0.166  -4.652   1.298  0.00  0.00    +0.520 C 
ATOM     16  O   LIG    1        0.798  -4.296   0.326  0.00  0.00    -0.520 OA
ENDBRANCH   9  14
ENDBRANCH   8   9
ENDBRANCH   1   8
BRANCH   1  17
ATOM     17  C   LIG    1       -2.469  -0.008  -0.084  0.00  0.00    +0.330 C 
BRANCH  17  18
ATOM     18  C   LIG    1       -2.864   0.139  -1.555  0.00  0.00    -0.050 C 
ATOM     19  C   LIG    1       -4.142  -0.564  -2.017  0.00  0.00    +0.040 C 
ATOM     20  C   LIG    1       -4.116   0.957  -1.872  0.00  0.00    -0.120 C 
ATOM     21  C   LIG    1       -4.112   1.796  -3.153  0.00  0.00    +0.080 C 
ATOM     22  C   LIG    1       -3.600   3.201  -2.824  0.00  0.00    +0.030 C 
ATOM     23  C   LIG    1       -4.466   3.814  -1.723  0.00  0.00    +0.290 C 
ATOM     24  C   LIG    1       -4.342   2.986  -0.443  0.00  0.00    +0.030 C 
ATOM     25  F   LIG    1       -4.040   5.123  -1.472  0.00  0.00    -0.200 F 
ATOM     26  F   LIG    1       -5.802   3.832  -2.138  0.00  0.00    -0.200 F 
ATOM     27  C   LIG    1       -4.879   1.574  -0.696  0.00  0.00    +0.080 C 
ENDBRANCH  17  18
ENDBRANCH   1  17
TORSDOF 6
