REMARK  Name = ZINCrH00000No52n.0
REMARK                            x       y       z     vdW  Elec       q    Type
REMARK                         _______ _______ _______ _____ _____    ______ ____
ROOT
ATOM      1  O   LIG    1        5.792   1.777  -2.815  0.00  0.00    -0.570 OA
ATOM      2  C   LIG    1        4.642   1.387  -2.874  0.00  0.00    +0.710 C 
ATOM      3  N   LIG    1        4.318   0.172  -2.389  0.00  0.00    -0.610 N 
ATOM      4  N   LIG    1        3.692   2.168  -3.424  0.00  0.00    -0.670 N 
ATOM      5  H   LIG    1        2.792   1.828  -3.541  0.00  0.00    +0.410 HD
ENDROOT
BRANCH   4   6
ATOM      6  C   LIG    1        4.007   3.481  -3.828  0.00  0.00    +0.080 A 
ATOM      7  C   LIG    1        5.026   4.189  -3.284  0.00  0.00    -0.010 A 
ATOM      8  S   LIG    1        5.012   5.708  -4.092  0.00  0.00    +0.280 S 
ATOM      9  N   LIG    1        3.690   5.357  -5.095  0.00  0.00    -0.450 NA
ATOM     10  C   LIG    1        3.305   4.146  -4.815  0.00  0.00    +0.270 A 
ENDBRANCH   4   6
BRANCH   3  11
ATOM     11  C   LIG    1        5.351  -0.678  -1.791  0.00  0.00    +0.350 C 
BRANCH  11  12
ATOM     12  C   LIG    1        5.975  -1.560  -2.874  0.00  0.00    +0.200 C 
ATOM     13  O   LIG    1        4.962  -2.379  -3.459  0.00  0.00    -0.370 OA
ATOM     14  C   LIG    1        5.485  -3.365  -4.356  0.00  0.00    +0.210 C 
ATOM     15  C   LIG    1        6.221  -4.426  -3.534  0.00  0.00    +0.060 C 
ATOM     16  C   LIG    1        7.168  -3.758  -2.570  0.00  0.00    -0.070 A 
ATOM     17  C   LIG    1        8.173  -4.515  -1.990  0.00  0.00    +0.000 A 
ATOM     18  C   LIG    1        9.055  -3.936  -1.099  0.00  0.00    +0.010 A 
ATOM     19  C   LIG    1        8.935  -2.595  -0.785  0.00  0.00    +0.010 A 
ATOM     20  C   LIG    1        7.935  -1.839  -1.365  0.00  0.00    +0.020 A 
ATOM     21  C   LIG    1        7.050  -2.419  -2.260  0.00  0.00    -0.120 A 
ENDBRANCH  11  12
ENDBRANCH   3  11
BRANCH   3  22
ATOM     22  C   LIG    1        2.932  -0.299  -2.459  0.00  0.00    +0.290 C 
BRANCH  22  23
ATOM     23  C   LIG    1        2.185   0.123  -1.192  0.00  0.00    -0.060 C 
ATOM     24  C   LIG    1        0.774  -0.473  -1.207  0.00  0.00    +0.020 C 
ATOM     25  C   LIG    1        0.011   0.019   0.026  0.00  0.00    -0.010 C 
ATOM     26  C   LIG    1       -0.006   1.550   0.028  0.00  0.00    +0.200 C 
ATOM     27  O   LIG    1        1.336   2.040   0.011  0.00  0.00    -0.380 OA
ATOM     28  C   LIG    1        2.084   1.650  -1.143  0.00  0.00    +0.210 C 
ENDBRANCH  22  23
ENDBRANCH   3  22
TORSDOF 5
