REMARK  Name = ZINCrD0000075GRU.0
REMARK                            x       y       z     vdW  Elec       q    Type
REMARK                         _______ _______ _______ _____ _____    ______ ____
ROOT
ATOM      1  O   LIG    1        5.446   7.723  -0.471  0.00  0.00    -0.520 OA
ATOM      2  C   LIG    1        4.384   7.165  -0.272  0.00  0.00    +0.610 C 
ATOM      3  N   LIG    1        3.277   7.891  -0.019  0.00  0.00    -0.710 N 
ATOM      4  H   LIG    1        2.417   7.452   0.064  0.00  0.00    +0.410 HD
ENDROOT
BRANCH   2   5
ATOM      5  C   LIG    1        4.307   5.694  -0.308  0.00  0.00    +0.010 A 
ATOM      6  C   LIG    1        5.393   4.908  -0.559  0.00  0.00    -0.010 A 
ATOM      7  S   LIG    1        4.913   3.267  -0.518  0.00  0.00    +0.270 S 
ATOM      8  C   LIG    1        3.257   3.740  -0.161  0.00  0.00    +0.070 A 
ATOM      9  N   LIG    1        3.178   5.034  -0.104  0.00  0.00    -0.390 NA
BRANCH   8  10
ATOM     10  C   LIG    1        2.126   2.807   0.038  0.00  0.00    +0.390 A 
ATOM     11  N   LIG    1        2.341   1.501  -0.052  0.00  0.00    -0.510 NA
ATOM     12  C   LIG    1        1.353   0.640   0.120  0.00  0.00    +0.340 A 
ATOM     13  C   LIG    1        0.079   1.118   0.393  0.00  0.00    -0.060 A 
ATOM     14  C   LIG    1       -0.109   2.489   0.486  0.00  0.00    +0.330 A 
ATOM     15  N   LIG    1        0.921   3.296   0.303  0.00  0.00    -0.480 NA
ENDBRANCH   8  10
ENDBRANCH   2   5
BRANCH   3  16
ATOM     16  C   LIG    1        3.374   9.346   0.130  0.00  0.00    +0.290 C 
BRANCH  16  17
ATOM     17  C   LIG    1        2.076   9.982  -0.295  0.00  0.00    -0.110 A 
ATOM     18  C   LIG    1        0.873   9.385   0.036  0.00  0.00    +0.050 A 
ATOM     19  C   LIG    1       -0.318   9.970  -0.350  0.00  0.00    -0.010 A 
ATOM     20  C   LIG    1       -0.307  11.149  -1.076  0.00  0.00    +0.100 A 
ATOM     21  C   LIG    1        0.898  11.743  -1.411  0.00  0.00    -0.010 A 
ATOM     22  F   LIG    1       -1.471  11.719  -1.457  0.00  0.00    -0.140 F 
ATOM     23  C   LIG    1        2.088  11.159  -1.020  0.00  0.00    +0.070 A 
ENDBRANCH  16  17
BRANCH  16  24
ATOM     24  C   LIG    1        3.656   9.691   1.594  0.00  0.00    +0.150 C 
ATOM     25  C   LIG    1        3.901  11.208   1.736  0.00  0.00    +0.010 C 
ATOM     26  C   LIG    1        5.053  11.259   2.777  0.00  0.00    +0.000 C 
ATOM     27  C   LIG    1        5.841   9.978   2.407  0.00  0.00    +0.190 C 
ATOM     28  O   LIG    1        4.841   9.017   2.032  0.00  0.00    -0.360 OA
ENDBRANCH  16  24
ENDBRANCH   3  16
TORSDOF 5
