REMARK  Name = ZINCtj00001yywxG.1
REMARK                            x       y       z     vdW  Elec       q    Type
REMARK                         _______ _______ _______ _____ _____    ______ ____
ROOT
ATOM      1  C   LIG    1        1.317   1.853   0.010  0.00  0.00    -0.140 A 
ATOM      2  C   LIG    1        1.426   3.242  -0.080  0.00  0.00    +0.080 A 
ATOM      3  C   LIG    1        2.672   3.835  -0.073  0.00  0.00    +0.040 A 
ATOM      4  C   LIG    1        3.812   3.055   0.012  0.00  0.00    -0.070 A 
ATOM      5  C   LIG    1        3.711   1.678   0.096  0.00  0.00    +0.040 A 
ATOM      6  C   LIG    1        2.471   1.073   0.095  0.00  0.00    +0.030 A 
ENDROOT
BRANCH   1  13
ATOM      7  C   LIG    1       -1.664  -1.558   4.356  0.00  0.00    +0.330 C 
ATOM      8  N   LIG    1       -1.086  -1.331   3.025  0.00  0.00    -0.390 N 
ATOM      9  C   LIG    1       -2.092  -0.709   2.155  0.00  0.00    +0.260 C 
ATOM     10  C   LIG    1       -1.529  -0.577   0.737  0.00  0.00    +0.330 C 
ATOM     11  N   LIG    1       -0.253   0.152   0.808  0.00  0.00    -0.630 N 
ATOM     12  C   LIG    1        0.758  -0.311   1.771  0.00  0.00    +0.310 C 
ATOM     13  C   LIG    1       -0.014   1.211   0.009  0.00  0.00    +0.570 C 
ATOM     14  O   LIG    1       -0.896   1.642  -0.709  0.00  0.00    -0.500 OA
ATOM     15  C   LIG    1        0.084  -0.453   3.144  0.00  0.00    +0.260 C 
ATOM     16  H   LIG    1       -0.802  -2.215   2.629  0.00  0.00    +0.430 HD
ENDBRANCH   1  13
BRANCH   4  17
ATOM     17  C   LIG    1        5.170   3.710   0.012  0.00  0.00    +0.310 C 
BRANCH  17  18
ATOM     18  N   LIG    1        5.652   3.834  -1.365  0.00  0.00    -0.730 N 
ATOM     19  H   LIG    1        5.107   3.514  -2.101  0.00  0.00    +0.400 HD
ATOM     20  C   LIG    1        6.854   4.394  -1.610  0.00  0.00    +0.520 C 
ATOM     21  O   LIG    1        7.535   4.795  -0.691  0.00  0.00    -0.530 OA
BRANCH  20  22
ATOM     22  C   LIG    1        7.350   4.522  -3.027  0.00  0.00    +0.050 C 
BRANCH  22  23
ATOM     23  C   LIG    1        8.728   5.187  -3.027  0.00  0.00    +0.290 C 
BRANCH  23  24
ATOM     24  N   LIG    1        9.211   5.312  -4.404  0.00  0.00    -0.740 N 
ATOM     25  H   LIG    1        8.666   4.991  -5.140  0.00  0.00    +0.400 HD
ATOM     26  C   LIG    1       10.412   5.871  -4.649  0.00  0.00    +0.520 C 
ATOM     27  O   LIG    1       11.094   6.272  -3.729  0.00  0.00    -0.530 OA
BRANCH  26  28
ATOM     28  C   LIG    1       10.909   6.000  -6.066  0.00  0.00    -0.010 C 
ATOM     29  C   LIG    1       11.068   4.602  -6.699  0.00  0.00    +0.030 C 
ATOM     30  C   LIG    1       12.339   4.726  -7.578  0.00  0.00    +0.020 C 
ATOM     31  C   LIG    1       13.262   5.626  -6.719  0.00  0.00    +0.010 C 
ATOM     32  C   LIG    1       12.303   6.651  -6.080  0.00  0.00    +0.040 C 
ENDBRANCH  26  28
ENDBRANCH  23  24
ENDBRANCH  22  23
ENDBRANCH  20  22
ENDBRANCH  17  18
ENDBRANCH   4  17
TORSDOF 7
