REMARK  Name = ZINCvU0000000AZ7.0
REMARK                            x       y       z     vdW  Elec       q    Type
REMARK                         _______ _______ _______ _____ _____    ______ ____
ROOT
ATOM      1  O   LIG    1       -0.836  -2.293   0.110  0.00  0.00    -0.510 OA
ATOM      2  C   LIG    1       -1.564  -3.263  -0.001  0.00  0.00    +0.610 C 
ATOM      3  N   LIG    1       -2.898  -3.097  -0.089  0.00  0.00    -0.610 N 
ATOM      4  C   LIG    1       -3.481  -1.751  -0.181  0.00  0.00    +0.290 C 
ATOM      5  C   LIG    1       -4.395  -1.698  -1.415  0.00  0.00    +0.000 C 
ATOM      6  C   LIG    1       -5.427  -2.825  -1.327  0.00  0.00    +0.230 C 
ATOM      7  C   LIG    1       -4.709  -4.176  -1.318  0.00  0.00    +0.030 C 
ATOM      8  C   LIG    1       -3.799  -4.258  -0.089  0.00  0.00    +0.280 C 
ENDROOT
BRANCH   2   9
ATOM      9  C   LIG    1       -0.989  -4.610  -0.038  0.00  0.00    -0.070 A 
ATOM     10  C   LIG    1        0.333  -4.932   0.179  0.00  0.00    +0.060 A 
ATOM     11  C   LIG    1        0.437  -6.321   0.047  0.00  0.00    -0.030 A 
ATOM     12  C   LIG    1       -0.811  -6.791  -0.242  0.00  0.00    +0.050 A 
ATOM     13  O   LIG    1       -1.661  -5.752  -0.297  0.00  0.00    -0.150 OA
BRANCH  12  14
ATOM     14  C   LIG    1       -1.168  -8.207  -0.465  0.00  0.00    -0.020 A 
ATOM     15  C   LIG    1       -0.187  -9.198  -0.386  0.00  0.00    +0.080 A 
ATOM     16  C   LIG    1       -0.527 -10.518  -0.595  0.00  0.00    +0.040 A 
ATOM     17  C   LIG    1       -1.836 -10.862  -0.882  0.00  0.00    +0.090 A 
ATOM     18  C   LIG    1       -2.813  -9.885  -0.962  0.00  0.00    -0.180 A 
ATOM     19  C   LIG    1       -2.488  -8.562  -0.750  0.00  0.00    +0.090 A 
BRANCH  18  20
ATOM     20  C   LIG    1       -4.236 -10.269  -1.274  0.00  0.00    +0.510 C 
ATOM     21  F   LIG    1       -4.643  -9.633  -2.452  0.00  0.00    -0.170 F 
ATOM     22  F   LIG    1       -5.068  -9.876  -0.220  0.00  0.00    -0.170 F 
ATOM     23  F   LIG    1       -4.319 -11.656  -1.441  0.00  0.00    -0.170 F 
ENDBRANCH  18  20
ENDBRANCH  12  14
ENDBRANCH   2   9
BRANCH   6  24
ATOM     24  N   LIG    1       -6.324  -2.756  -2.484  0.00  0.00    -0.740 N 
ATOM     25  H   LIG    1       -6.144  -3.296  -3.269  0.00  0.00    +0.400 HD
BRANCH  24  26
ATOM     26  C   LIG    1       -7.438  -1.913  -2.455  0.00  0.00    +0.210 A 
ATOM     27  C   LIG    1       -7.699  -1.143  -1.329  0.00  0.00    -0.040 A 
ATOM     28  C   LIG    1       -8.798  -0.307  -1.304  0.00  0.00    +0.030 A 
ATOM     29  C   LIG    1       -9.645  -0.242  -2.398  0.00  0.00    +0.040 A 
ATOM     30  C   LIG    1       -9.389  -1.012  -3.520  0.00  0.00    +0.030 A 
ATOM     31  F   LIG    1      -10.722   0.572  -2.370  0.00  0.00    -0.150 F 
ATOM     32  C   LIG    1       -8.289  -1.847  -3.551  0.00  0.00    -0.040 A 
ENDBRANCH  24  26
ENDBRANCH   6  24
TORSDOF 5
