REMARK  Name = ZINCqH0000004ULp.0
REMARK                            x       y       z     vdW  Elec       q    Type
REMARK                         _______ _______ _______ _____ _____    ______ ____
ROOT
ATOM      1  C   LIG    1        5.283   4.894  -1.805  0.00  0.00    +0.520 C 
ATOM      2  N   LIG    1        4.158   5.262  -1.161  0.00  0.00    -0.610 N 
ATOM      3  C   LIG    1        4.139   6.463  -0.315  0.00  0.00    +0.270 C 
ATOM      4  C   LIG    1        3.622   6.080   1.075  0.00  0.00    +0.030 C 
ATOM      5  C   LIG    1        2.264   5.387   0.937  0.00  0.00    +0.040 C 
ATOM      6  C   LIG    1        2.424   4.108   0.112  0.00  0.00    +0.150 C 
ATOM      7  C   LIG    1        2.928   4.469  -1.290  0.00  0.00    +0.270 C 
ATOM      8  O   LIG    1        5.286   3.900  -2.500  0.00  0.00    -0.520 OA
ENDROOT
BRANCH   1   9
ATOM      9  C   LIG    1        6.537   5.718  -1.663  0.00  0.00    +0.150 C 
BRANCH   9  13
ATOM     10  N   LIG    1        9.347   3.870  -3.072  0.00  0.00    -0.370 N 
ATOM     11  N   LIG    1        8.959   4.645  -4.173  0.00  0.00    -0.290 NA
ATOM     12  C   LIG    1        7.937   5.379  -3.816  0.00  0.00    +0.090 A 
ATOM     13  C   LIG    1        7.641   5.096  -2.478  0.00  0.00    -0.230 A 
ATOM     14  C   LIG    1        7.204   6.361  -4.694  0.00  0.00    +0.150 C 
ATOM     15  C   LIG    1        8.526   4.169  -2.044  0.00  0.00    +0.100 A 
ATOM     16  C   LIG    1        8.582   3.574  -0.660  0.00  0.00    +0.140 C 
BRANCH  10  18
ATOM     17  C   LIG    1       11.736   3.621  -2.611  0.00  0.00    +0.040 C 
ATOM     18  C   LIG    1       10.452   2.908  -3.042  0.00  0.00    +0.320 C 
ENDBRANCH  10  18
ENDBRANCH   9  13
ENDBRANCH   1   9
BRANCH   6  19
ATOM     19  O   LIG    1        1.162   3.446   0.009  0.00  0.00    -0.290 OA
BRANCH  19  20
ATOM     20  C   LIG    1        1.185   2.105  -0.212  0.00  0.00    +0.140 A 
ATOM     21  C   LIG    1        2.391   1.459  -0.439  0.00  0.00    -0.060 A 
ATOM     22  C   LIG    1        2.412   0.096  -0.663  0.00  0.00    +0.060 A 
ATOM     23  C   LIG    1        1.232  -0.625  -0.662  0.00  0.00    -0.010 A 
ATOM     24  C   LIG    1        0.028   0.016  -0.437  0.00  0.00    +0.070 A 
ATOM     25  C   LIG    1        0.001   1.380  -0.211  0.00  0.00    -0.070 A 
ATOM     26 CL   LIG    1       -1.512   2.185   0.065  0.00  0.00    -0.060 Cl
ENDBRANCH  19  20
ENDBRANCH   6  19
TORSDOF 5
