REMARK  Name = ZINCqH0000005kwb.0
REMARK                            x       y       z     vdW  Elec       q    Type
REMARK                         _______ _______ _______ _____ _____    ______ ____
ROOT
ATOM      1  C   LIG    1       -2.795  -6.598   0.297  0.00  0.00    +0.250 C 
ATOM      2  C   LIG    1       -1.343  -6.566  -0.250  0.00  0.00    +0.030 C 
ATOM      3  C   LIG    1       -0.964  -5.073  -0.143  0.00  0.00    +0.250 C 
ATOM      4  N   LIG    1       -2.218  -4.307  -0.103  0.00  0.00    -0.610 N 
ATOM      5  C   LIG    1       -2.317  -2.967   0.010  0.00  0.00    +0.580 C 
ATOM      6  O   LIG    1       -3.408  -2.446   0.131  0.00  0.00    -0.520 OA
ATOM      7  C   LIG    1       -3.350  -5.245  -0.215  0.00  0.00    +0.260 C 
ENDROOT
BRANCH   5   8
ATOM      8  C   LIG    1       -1.098  -2.132  -0.013  0.00  0.00    -0.180 A 
ATOM      9  C   LIG    1        0.159  -2.726  -0.009  0.00  0.00    +0.130 A 
ATOM     10  C   LIG    1        1.285  -1.886  -0.031  0.00  0.00    -0.090 A 
ATOM     11  C   LIG    1        2.587  -2.413  -0.027  0.00  0.00    +0.040 A 
ATOM     12  C   LIG    1        3.656  -1.570  -0.048  0.00  0.00    +0.050 A 
ATOM     13  C   LIG    1        3.477  -0.189  -0.075  0.00  0.00    +0.020 A 
ATOM     14  C   LIG    1        2.227   0.358  -0.080  0.00  0.00    +0.120 A 
ATOM     15  F   LIG    1        2.075   1.700  -0.105  0.00  0.00    -0.120 F 
ATOM     16  C   LIG    1        1.098  -0.481  -0.058  0.00  0.00    +0.110 A 
ATOM     17  N   LIG    1       -0.138   0.033  -0.061  0.00  0.00    -0.460 NA
ATOM     18  C   LIG    1       -1.200  -0.730  -0.041  0.00  0.00    +0.370 A 
ENDBRANCH   5   8
BRANCH   1  20
ATOM     19  C   LIG    1       -3.525  -7.960  -1.716  0.00  0.00    +0.280 C 
ATOM     20  N   LIG    1       -3.544  -7.721  -0.271  0.00  0.00    -0.620 N 
BRANCH  20  21
ATOM     21  C   LIG    1       -4.278  -8.565   0.566  0.00  0.00    +0.210 A 
ATOM     22  C   LIG    1       -4.211  -8.408   1.945  0.00  0.00    -0.080 A 
ATOM     23  C   LIG    1       -4.942  -9.241   2.769  0.00  0.00    +0.050 A 
ATOM     24  C   LIG    1       -5.731 -10.237   2.224  0.00  0.00    -0.060 A 
ATOM     25  C   LIG    1       -5.796 -10.400   0.853  0.00  0.00    +0.050 A 
ATOM     26  C   LIG    1       -5.072  -9.567   0.022  0.00  0.00    -0.070 A 
ENDBRANCH  20  21
ENDBRANCH   1  20
TORSDOF 3
