REMARK  Name = ZINCqH00000355CC.0
REMARK                            x       y       z     vdW  Elec       q    Type
REMARK                         _______ _______ _______ _____ _____    ______ ____
ROOT
ATOM      1  C   LIG    1       -2.393   5.179   4.207  0.00  0.00    -0.120 A 
ATOM      2  C   LIG    1       -1.748   4.893   3.001  0.00  0.00    +0.120 A 
ATOM      3  C   LIG    1       -1.489   3.579   2.646  0.00  0.00    +0.060 A 
ATOM      4  C   LIG    1       -1.873   2.543   3.482  0.00  0.00    +0.130 A 
ATOM      5  C   LIG    1       -2.513   2.820   4.692  0.00  0.00    -0.120 A 
ATOM      6  C   LIG    1       -2.776   4.140   5.053  0.00  0.00    +0.170 A 
ENDROOT
BRANCH   1   7
ATOM      7  C   LIG    1       -2.670   6.580   4.584  0.00  0.00    +0.510 C 
ATOM      8  O   LIG    1       -3.231   6.828   5.633  0.00  0.00    -0.490 OA
BRANCH   7  10
ATOM      9  C   LIG    1       -2.603   8.936   4.200  0.00  0.00    +0.290 C 
ATOM     10  O   LIG    1       -2.300   7.584   3.765  0.00  0.00    -0.350 OA
ENDBRANCH   7  10
ENDBRANCH   1   7
BRANCH   5  11
ATOM     11  C   LIG    1       -2.917   1.714   5.585  0.00  0.00    +0.510 C 
ATOM     12  O   LIG    1       -3.478   1.956   6.635  0.00  0.00    -0.490 OA
BRANCH  11  13
ATOM     13  O   LIG    1       -2.663   0.438   5.235  0.00  0.00    -0.350 OA
ATOM     14  C   LIG    1       -3.087  -0.596   6.161  0.00  0.00    +0.290 C 
ENDBRANCH  11  13
ENDBRANCH   5  11
BRANCH   3  15
ATOM     15  O   LIG    1       -0.862   3.306   1.471  0.00  0.00    -0.280 OA
BRANCH  15  16
ATOM     16  C   LIG    1        0.465   3.502   1.429  0.00  0.00    +0.460 C 
ATOM     17  O   LIG    1        1.035   3.988   2.377  0.00  0.00    -0.470 OA
BRANCH  16  18
ATOM     18  C   LIG    1        1.245   3.117   0.198  0.00  0.00    +0.180 C 
BRANCH  18  19
ATOM     19  C   LIG    1        2.703   3.438   0.406  0.00  0.00    -0.070 A 
ATOM     20  C   LIG    1        3.196   4.678   0.041  0.00  0.00    -0.010 A 
ATOM     21  C   LIG    1        4.534   4.975   0.238  0.00  0.00    +0.040 A 
ATOM     22  C   LIG    1        5.378   4.029   0.787  0.00  0.00    +0.060 A 
ATOM     23  C   LIG    1        4.886   2.788   1.146  0.00  0.00    +0.040 A 
ATOM     24 CL   LIG    1        2.137   5.864  -0.656  0.00  0.00    -0.050 Cl
ATOM     25  C   LIG    1        3.548   2.492   0.956  0.00  0.00    -0.010 A 
ATOM     26 CL   LIG    1        2.931   0.934   1.407  0.00  0.00    -0.050 Cl
ENDBRANCH  18  19
ENDBRANCH  16  18
ENDBRANCH  15  16
ENDBRANCH   3  15
TORSDOF 8
