REMARK  Name = ZINCrD00000F5Lxh.0
REMARK                            x       y       z     vdW  Elec       q    Type
REMARK                         _______ _______ _______ _____ _____    ______ ____
ROOT
ATOM      1  O   LIG    1       -2.462  -0.225   0.336  0.00  0.00    -0.520 OA
ATOM      2  C   LIG    1       -2.460   0.983   0.187  0.00  0.00    +0.550 C 
ATOM      3  N   LIG    1       -3.623   1.644   0.028  0.00  0.00    -0.670 N 
ATOM      4  H   LIG    1       -3.629   2.613  -0.014  0.00  0.00    +0.410 HD
ENDROOT
BRANCH   3   5
ATOM      5  C   LIG    1       -4.823   0.933  -0.076  0.00  0.00    +0.140 A 
ATOM      6  C   LIG    1       -5.997   1.473   0.435  0.00  0.00    +0.000 A 
ATOM      7  C   LIG    1       -7.185   0.774   0.333  0.00  0.00    +0.040 A 
ATOM      8  C   LIG    1       -7.211  -0.465  -0.275  0.00  0.00    +0.050 A 
ATOM      9  C   LIG    1       -6.038  -1.015  -0.789  0.00  0.00    +0.000 A 
ATOM     10  C   LIG    1       -4.842  -0.309  -0.693  0.00  0.00    +0.050 A 
BRANCH   9  11
ATOM     11  C   LIG    1       -6.065  -2.347  -1.444  0.00  0.00    +0.270 A 
ATOM     12  N   LIG    1       -5.029  -2.963  -1.969  0.00  0.00    -0.300 NA
ATOM     13  N   LIG    1       -5.500  -4.187  -2.472  0.00  0.00    -0.480 N 
ATOM     14  H   LIG    1       -4.977  -4.871  -2.919  0.00  0.00    +0.440 HD
ATOM     15  C   LIG    1       -6.820  -4.223  -2.217  0.00  0.00    +0.500 A 
ATOM     16  N   LIG    1       -7.149  -3.117  -1.602  0.00  0.00    -0.530 NA
ENDBRANCH   9  11
ENDBRANCH   3   5
BRANCH   2  17
ATOM     17  C   LIG    1       -1.195   1.717   0.180  0.00  0.00    -0.080 C 
ATOM     18  C   LIG    1       -0.029   1.055   0.339  0.00  0.00    +0.130 C 
BRANCH  18  19
ATOM     19  C   LIG    1        1.243   1.792   0.325  0.00  0.00    -0.090 A 
ATOM     20  C   LIG    1        1.248   3.180   0.148  0.00  0.00    +0.070 A 
ATOM     21  C   LIG    1        2.441   3.867   0.141  0.00  0.00    +0.000 A 
ATOM     22  C   LIG    1        3.641   3.181   0.299  0.00  0.00    +0.150 A 
ATOM     23  C   LIG    1        3.642   1.801   0.471  0.00  0.00    +0.000 A 
ATOM     24  C   LIG    1        2.453   1.107   0.484  0.00  0.00    +0.080 A 
BRANCH  22  25
ATOM     25  N   LIG    1        4.852   3.883   0.286  0.00  0.00    -0.420 N 
ATOM     26  C   LIG    1        5.009   5.235   0.122  0.00  0.00    +0.130 A 
ATOM     27  C   LIG    1        6.331   5.484   0.177  0.00  0.00    +0.160 A 
ATOM     28  N   LIG    1        6.969   4.318   0.360  0.00  0.00    -0.480 NA
ATOM     29  C   LIG    1        6.095   3.352   0.427  0.00  0.00    +0.400 A 
ENDBRANCH  22  25
ENDBRANCH  18  19
ENDBRANCH   2  17
TORSDOF 5
