REMARK  Name = ZINCrD00000F5Lxh.1
REMARK                            x       y       z     vdW  Elec       q    Type
REMARK                         _______ _______ _______ _____ _____    ______ ____
ROOT
ATOM      1  O   LIG    1       -2.430  -0.231   0.001  0.00  0.00    -0.510 OA
ATOM      2  C   LIG    1       -2.447   0.986   0.017  0.00  0.00    +0.550 C 
ATOM      3  N   LIG    1       -3.623   1.644   0.028  0.00  0.00    -0.670 N 
ATOM      4  H   LIG    1       -3.638   2.611   0.108  0.00  0.00    +0.410 HD
ENDROOT
BRANCH   3   5
ATOM      5  C   LIG    1       -4.823   0.933  -0.076  0.00  0.00    +0.150 A 
ATOM      6  C   LIG    1       -5.900   1.484  -0.760  0.00  0.00    +0.000 A 
ATOM      7  C   LIG    1       -7.086   0.782  -0.870  0.00  0.00    +0.040 A 
ATOM      8  C   LIG    1       -7.212  -0.465  -0.291  0.00  0.00    +0.000 A 
ATOM      9  C   LIG    1       -6.138  -1.023   0.403  0.00  0.00    -0.000 A 
ATOM     10  C   LIG    1       -4.940  -0.319   0.509  0.00  0.00    +0.080 A 
BRANCH   9  11
ATOM     11  C   LIG    1       -6.270  -2.360   1.024  0.00  0.00    +0.220 A 
ATOM     12  N   LIG    1       -5.346  -3.002   1.702  0.00  0.00    -0.270 NA
ATOM     13  N   LIG    1       -5.805  -4.136   2.096  0.00  0.00    -0.290 NA
ATOM     14  C   LIG    1       -7.040  -4.282   1.695  0.00  0.00    +0.390 A 
ATOM     15  N   LIG    1       -7.380  -3.160   1.005  0.00  0.00    -0.580 N 
ATOM     16  H   LIG    1       -8.234  -2.967   0.586  0.00  0.00    +0.430 HD
ENDBRANCH   9  11
ENDBRANCH   3   5
BRANCH   2  17
ATOM     17  C   LIG    1       -1.190   1.735   0.024  0.00  0.00    -0.090 C 
ATOM     18  C   LIG    1       -0.013   1.076   0.012  0.00  0.00    +0.130 C 
BRANCH  18  19
ATOM     19  C   LIG    1        1.251   1.829   0.013  0.00  0.00    -0.090 A 
ATOM     20  C   LIG    1        1.234   3.228   0.025  0.00  0.00    +0.070 A 
ATOM     21  C   LIG    1        2.419   3.929   0.031  0.00  0.00    +0.000 A 
ATOM     22  C   LIG    1        3.632   3.248   0.013  0.00  0.00    +0.150 A 
ATOM     23  C   LIG    1        3.654   1.857  -0.005  0.00  0.00    +0.000 A 
ATOM     24  C   LIG    1        2.473   1.148  -0.005  0.00  0.00    +0.080 A 
BRANCH  22  25
ATOM     25  N   LIG    1        4.834   3.964   0.013  0.00  0.00    -0.420 N 
ATOM     26  C   LIG    1        4.970   5.328   0.024  0.00  0.00    +0.130 A 
ATOM     27  C   LIG    1        6.291   5.588   0.021  0.00  0.00    +0.160 A 
ATOM     28  N   LIG    1        6.948   4.419   0.001  0.00  0.00    -0.480 NA
ATOM     29  C   LIG    1        6.087   3.439  -0.004  0.00  0.00    +0.400 A 
ENDBRANCH  22  25
ENDBRANCH  18  19
ENDBRANCH   2  17
TORSDOF 5
