REMARK  Name = ZINCrD000006fiN5.0
REMARK                            x       y       z     vdW  Elec       q    Type
REMARK                         _______ _______ _______ _____ _____    ______ ____
ROOT
ATOM      1  C   LIG    1       -2.477   1.434   2.178  0.00  0.00    +0.560 C 
ATOM      2  N   LIG    1       -2.138   1.078   0.923  0.00  0.00    -0.730 N 
ATOM      3  H   LIG    1       -1.873   1.755   0.281  0.00  0.00    +0.400 HD
ATOM      4  O   LIG    1       -2.810   0.586   2.982  0.00  0.00    -0.540 OA
ENDROOT
BRANCH   1   8
ATOM      5  C   LIG    1       -2.382   5.523   3.322  0.00  0.00    +0.180 A 
ATOM      6  C   LIG    1       -2.763   4.553   4.244  0.00  0.00    +0.010 A 
ATOM      7  C   LIG    1       -2.795   3.227   3.876  0.00  0.00    +0.100 A 
ATOM      8  C   LIG    1       -2.444   2.855   2.575  0.00  0.00    -0.150 A 
ATOM      9  C   LIG    1       -2.056   3.832   1.654  0.00  0.00    +0.060 A 
ATOM     10  C   LIG    1       -2.031   5.157   2.026  0.00  0.00    -0.020 A 
BRANCH   5  12
ATOM     11  C   LIG    1       -2.005   7.205   4.955  0.00  0.00    +0.540 C 
ATOM     12  N   LIG    1       -2.351   6.865   3.697  0.00  0.00    -0.670 N 
ATOM     13  H   LIG    1       -2.578   7.554   3.054  0.00  0.00    +0.410 HD
ATOM     14  O   LIG    1       -1.623   6.351   5.732  0.00  0.00    -0.520 OA
BRANCH  11  16
ATOM     15  C   LIG    1       -1.747   8.944   6.627  0.00  0.00    +0.160 C 
ATOM     16  C   LIG    1       -2.088   8.608   5.386  0.00  0.00    -0.090 C 
ENDBRANCH  11  16
ENDBRANCH   5  12
ENDBRANCH   1   8
BRANCH   2  17
ATOM     17  C   LIG    1       -2.171  -0.333   0.528  0.00  0.00    +0.270 C 
BRANCH  17  18
ATOM     18  C   LIG    1       -1.585  -0.483  -0.877  0.00  0.00    +0.050 C 
BRANCH  18  19
ATOM     19  C   LIG    1       -1.799  -1.893  -1.362  0.00  0.00    -0.070 A 
ATOM     20  C   LIG    1       -1.467  -2.962  -0.550  0.00  0.00    +0.010 A 
ATOM     21  C   LIG    1       -1.667  -4.255  -0.994  0.00  0.00    +0.000 A 
ATOM     22  C   LIG    1       -2.190  -4.481  -2.253  0.00  0.00    +0.000 A 
ATOM     23  C   LIG    1       -2.517  -3.413  -3.067  0.00  0.00    +0.000 A 
ATOM     24  C   LIG    1       -2.321  -2.119  -2.622  0.00  0.00    +0.020 A 
ENDBRANCH  18  19
BRANCH  18  25
ATOM     25  C   LIG    1       -0.086  -0.178  -0.840  0.00  0.00    -0.050 C 
ATOM     26  C   LIG    1        0.125   1.296  -0.489  0.00  0.00    +0.030 C 
ATOM     27  C   LIG    1        0.587  -1.055   0.217  0.00  0.00    +0.040 C 
BRANCH  25  28
ATOM     28  C   LIG    1        0.527  -0.469  -2.211  0.00  0.00    +0.180 C 
BRANCH  28  29
ATOM     29  O   LIG    1       -0.175   0.269  -3.214  0.00  0.00    -0.570 OA
ATOM     30  H   LIG    1        0.161   0.132  -4.110  0.00  0.00    +0.380 HD
ENDBRANCH  28  29
ENDBRANCH  25  28
ENDBRANCH  18  25
ENDBRANCH  17  18
ENDBRANCH   2  17
TORSDOF 9
