REMARK  Name = ZINCrH000004sOiR.0
REMARK                            x       y       z     vdW  Elec       q    Type
REMARK                         _______ _______ _______ _____ _____    ______ ____
ROOT
ATOM      1  C   LIG    1       -1.223   1.752   0.017  0.00  0.00    +0.190 A 
ATOM      2  C   LIG    1       -0.013   1.076   0.008  0.00  0.00    -0.080 A 
ATOM      3  C   LIG    1        1.174   1.782   0.000  0.00  0.00    +0.080 A 
ATOM      4  C   LIG    1        1.166   3.167   0.008  0.00  0.00    -0.040 A 
ATOM      5  C   LIG    1       -0.028   3.855   0.024  0.00  0.00    +0.080 A 
ATOM      6  C   LIG    1       -1.236   3.154   0.031  0.00  0.00    -0.170 A 
ENDROOT
BRANCH   6   7
ATOM      7  C   LIG    1       -2.518   3.884   0.048  0.00  0.00    +0.560 C 
ATOM      8  N   LIG    1       -2.526   5.231   0.056  0.00  0.00    -0.720 N 
ATOM      9  H   LIG    1       -1.688   5.721   0.050  0.00  0.00    +0.400 HD
ATOM     10  O   LIG    1       -3.567   3.270   0.055  0.00  0.00    -0.520 OA
BRANCH   8  11
ATOM     11  C   LIG    1       -3.798   5.957   0.072  0.00  0.00    +0.250 C 
BRANCH  11  12
ATOM     12  C   LIG    1       -3.527   7.462   0.078  0.00  0.00    +0.120 C 
ATOM     13  C   LIG    1       -2.739   7.844  -1.177  0.00  0.00    +0.060 C 
BRANCH  12  14
ATOM     14  O   LIG    1       -2.769   7.805   1.239  0.00  0.00    -0.550 OA
ATOM     15  H   LIG    1       -3.208   7.591   2.074  0.00  0.00    +0.380 HD
ENDBRANCH  12  14
BRANCH  12  16
ATOM     16  C   LIG    1       -4.857   8.220   0.095  0.00  0.00    +0.000 C 
BRANCH  16  17
ATOM     17  C   LIG    1       -4.590   9.722  -0.025  0.00  0.00    +0.030 C 
BRANCH  17  18
ATOM     18  C   LIG    1       -5.919  10.479  -0.007  0.00  0.00    -0.030 C 
ATOM     19  C   LIG    1       -5.661  11.967  -0.252  0.00  0.00    +0.000 C 
ATOM     20  C   LIG    1       -6.593  10.295   1.354  0.00  0.00    +0.010 C 
ENDBRANCH  17  18
ENDBRANCH  16  17
ENDBRANCH  12  16
ENDBRANCH  11  12
ENDBRANCH   8  11
ENDBRANCH   6   7
BRANCH   1  21
ATOM     21  O   LIG    1       -2.390   1.060   0.019  0.00  0.00    -0.270 OA
BRANCH  21  22
ATOM     22  C   LIG    1       -2.299  -0.366   0.011  0.00  0.00    +0.300 C 
BRANCH  22  29
ATOM     23  C   LIG    1       -4.104  -1.172   2.583  0.00  0.00    +0.160 C 
ATOM     24  C   LIG    1       -4.477  -1.312   1.130  0.00  0.00    +0.040 A 
ATOM     25  N   LIG    1       -5.594  -1.781   0.653  0.00  0.00    -0.360 NA
ATOM     26  O   LIG    1       -5.600  -1.774  -0.556  0.00  0.00    +0.100 OA
ATOM     27  C   LIG    1       -4.456  -1.280  -1.051  0.00  0.00    +0.010 A 
ATOM     28  C   LIG    1       -4.100  -1.116  -2.506  0.00  0.00    +0.190 C 
ATOM     29  C   LIG    1       -3.684  -0.958   0.014  0.00  0.00    -0.210 A 
ENDBRANCH  22  29
ENDBRANCH  21  22
ENDBRANCH   1  21
TORSDOF 10
