REMARK  Name = ZINCqH0000000ooW.0
REMARK                            x       y       z     vdW  Elec       q    Type
REMARK                         _______ _______ _______ _____ _____    ______ ____
ROOT
ATOM      1  C   LIG    1        4.512  -0.472   1.950  0.00  0.00    +0.570 A 
ATOM      2  N   LIG    1        4.977   0.008   0.813  0.00  0.00    -0.570 NA
ATOM      3  C   LIG    1        6.295   0.033   0.575  0.00  0.00    +0.210 A 
ATOM      4  C   LIG    1        6.823   0.536  -0.623  0.00  0.00    +0.020 A 
ATOM      5  C   LIG    1        8.173   0.540  -0.814  0.00  0.00    +0.060 A 
ATOM      6  C   LIG    1        9.037   0.051   0.162  0.00  0.00    -0.010 A 
ATOM      7  C   LIG    1        8.557  -0.446   1.338  0.00  0.00    +0.080 A 
ATOM      8  C   LIG    1        7.177  -0.464   1.567  0.00  0.00    -0.200 A 
ATOM      9  C   LIG    1        6.621  -0.967   2.770  0.00  0.00    +0.310 A 
ATOM     10  N   LIG    1        5.303  -0.943   2.910  0.00  0.00    -0.560 NA
ENDROOT
BRANCH   9  11
ATOM     11  C   LIG    1        7.489  -1.500   3.844  0.00  0.00    -0.060 A 
ATOM     12  C   LIG    1        7.157  -2.693   4.486  0.00  0.00    +0.060 A 
ATOM     13  C   LIG    1        7.974  -3.187   5.482  0.00  0.00    +0.010 A 
ATOM     14  C   LIG    1        9.113  -2.495   5.853  0.00  0.00    +0.030 A 
ATOM     15  C   LIG    1        9.445  -1.309   5.224  0.00  0.00    +0.010 A 
ATOM     16  C   LIG    1        8.640  -0.807   4.222  0.00  0.00    +0.040 A 
ENDBRANCH   9  11
BRANCH   1  17
ATOM     17  N   LIG    1        3.144  -0.480   2.156  0.00  0.00    -0.690 N 
ATOM     18  H   LIG    1        2.780  -0.828   2.985  0.00  0.00    +0.410 HD
BRANCH  17  24
ATOM     19  C   LIG    1       -2.551   1.293   0.202  0.00  0.00    +0.090 C 
ATOM     20  C   LIG    1       -1.246   2.041   0.292  0.00  0.00    +0.510 C 
ATOM     21  N   LIG    1       -0.079   1.371   0.214  0.00  0.00    -0.620 N 
ATOM     22  C   LIG    1        1.199   2.096   0.169  0.00  0.00    +0.280 C 
ATOM     23  C   LIG    1        2.112   1.554   1.273  0.00  0.00    +0.010 C 
ATOM     24  C   LIG    1        2.244   0.037   1.121  0.00  0.00    +0.260 C 
ATOM     25  C   LIG    1        0.868  -0.615   1.270  0.00  0.00    +0.020 C 
ATOM     26  C   LIG    1       -0.060  -0.097   0.166  0.00  0.00    +0.290 C 
ATOM     27  O   LIG    1       -1.246   3.245   0.434  0.00  0.00    -0.540 OA
ENDBRANCH  17  24
ENDBRANCH   1  17
TORSDOF 3
