REMARK  Name = ZINCpe000000YgiK.0
REMARK                            x       y       z     vdW  Elec       q    Type
REMARK                         _______ _______ _______ _____ _____    ______ ____
ROOT
ATOM      1  C   LIG    1       -2.149  -3.032  -0.083  0.00  0.00    +0.120 A 
ATOM      2  C   LIG    1       -3.404  -2.443  -0.158  0.00  0.00    +0.090 A 
ATOM      3  C   LIG    1       -4.533  -3.234  -0.246  0.00  0.00    +0.000 A 
ATOM      4  C   LIG    1       -4.415  -4.613  -0.248  0.00  0.00    +0.180 A 
ATOM      5  C   LIG    1       -3.164  -5.203  -0.168  0.00  0.00    -0.700 A 
ATOM      6  F   LIG    1       -5.521  -5.385  -0.328  0.00  0.00    -0.120 F 
ATOM      7  C   LIG    1       -2.033  -4.416  -0.086  0.00  0.00    +0.170 A 
ENDROOT
BRANCH   1   9
ATOM      8  C   LIG    1        0.138  -2.626  -0.599  0.00  0.00    +0.600 C 
ATOM      9  N   LIG    1       -1.003  -2.232   0.000  0.00  0.00    -0.670 N 
ATOM     10  H   LIG    1       -1.031  -1.395   0.489  0.00  0.00    +0.410 HD
ATOM     11  O   LIG    1        0.197  -3.714  -1.139  0.00  0.00    -0.520 OA
BRANCH   8  15
ATOM     12  C   LIG    1        4.723  -0.800  -1.377  0.00  0.00    +0.370 C 
ATOM     13  N   LIG    1        3.331  -0.942  -0.944  0.00  0.00    -0.360 N 
ATOM     14  C   LIG    1        2.543  -2.006  -1.168  0.00  0.00    +0.330 A 
ATOM     15  C   LIG    1        1.315  -1.738  -0.598  0.00  0.00    -0.300 A 
ATOM     16  C   LIG    1        1.396  -0.454  -0.015  0.00  0.00    +0.270 A 
ATOM     17  N   LIG    1        2.597   0.010  -0.226  0.00  0.00    -0.290 NA
ENDBRANCH   8  15
ENDBRANCH   1   9
BRANCH   5  18
ATOM     18  S   LIG    1       -3.017  -6.959  -0.172  0.00  0.00    +2.690 S 
ATOM     19  O   LIG    1       -1.631  -7.246  -0.047  0.00  0.00    -0.940 OA
ATOM     20  O   LIG    1       -3.813  -7.426  -1.253  0.00  0.00    -0.940 OA
BRANCH  18  21
ATOM     21  N   LIG    1       -3.737  -7.514   1.212  0.00  0.00    -1.000 NA
ATOM     22  C   LIG    1       -2.964  -7.683   2.452  0.00  0.00    +0.270 C 
ATOM     23  C   LIG    1       -3.721  -6.977   3.589  0.00  0.00    +0.220 C 
ATOM     24  O   LIG    1       -5.072  -7.445   3.614  0.00  0.00    -0.370 OA
ATOM     25  C   LIG    1       -5.816  -7.149   2.430  0.00  0.00    +0.220 C 
ATOM     26  C   LIG    1       -5.168  -7.859   1.236  0.00  0.00    +0.280 C 
ENDBRANCH  18  21
ENDBRANCH   5  18
TORSDOF 4
