REMARK  Name = ZINCrH000004loaw.0
REMARK                            x       y       z     vdW  Elec       q    Type
REMARK                         _______ _______ _______ _____ _____    ______ ____
ROOT
ATOM      1  C   LIG    1        0.056   1.188   0.381  0.00  0.00    +0.570 C 
ATOM      2  N   LIG    1        1.209   1.880   0.279  0.00  0.00    -0.640 N 
ATOM      3  H   LIG    1        1.201   2.848   0.343  0.00  0.00    +0.410 HD
ATOM      4  O   LIG    1        0.066  -0.025   0.301  0.00  0.00    -0.490 OA
ENDROOT
BRANCH   1   9
ATOM      5  C   LIG    1       -3.608   1.871   0.873  0.00  0.00    +0.130 A 
ATOM      6  C   LIG    1       -3.612   3.256   0.963  0.00  0.00    -0.040 A 
ATOM      7  C   LIG    1       -2.428   3.964   0.864  0.00  0.00    +0.060 A 
ATOM      8  C   LIG    1       -1.234   3.298   0.681  0.00  0.00    +0.000 A 
ATOM      9  C   LIG    1       -1.220   1.905   0.583  0.00  0.00    -0.100 A 
ATOM     10  C   LIG    1       -2.415   1.192   0.683  0.00  0.00    +0.060 A 
BRANCH   5  11
ATOM     11  O   LIG    1       -4.774   1.180   0.971  0.00  0.00    -0.300 OA
BRANCH  11  12
ATOM     12  C   LIG    1       -5.966   1.944   1.166  0.00  0.00    +0.210 C 
BRANCH  12  13
ATOM     13  C   LIG    1       -7.168   1.001   1.253  0.00  0.00    +0.190 C 
BRANCH  13  15
ATOM     14  C   LIG    1       -8.126  -0.739   2.594  0.00  0.00    +0.200 C 
ATOM     15  O   LIG    1       -7.048   0.183   2.418  0.00  0.00    -0.390 OA
ENDBRANCH  13  15
ENDBRANCH  12  13
ENDBRANCH  11  12
ENDBRANCH   5  11
ENDBRANCH   1   9
BRANCH   2  16
ATOM     16  C   LIG    1        2.411   1.205   0.083  0.00  0.00    +0.310 A 
ATOM     17  C   LIG    1        2.589  -0.145   0.094  0.00  0.00    -0.080 A 
ATOM     18  C   LIG    1        3.942  -0.402  -0.144  0.00  0.00    +0.090 A 
ATOM     19  N   LIG    1        4.561   0.741  -0.294  0.00  0.00    -0.270 NA
ATOM     20  C   LIG    1        4.579  -1.766  -0.217  0.00  0.00    +0.160 C 
ATOM     21  N   LIG    1        3.624   1.773  -0.162  0.00  0.00    -0.340 N 
BRANCH  21  22
ATOM     22  C   LIG    1        3.888   3.146  -0.260  0.00  0.00    +0.140 A 
ATOM     23  C   LIG    1        3.083   3.954  -1.052  0.00  0.00    +0.000 A 
ATOM     24  C   LIG    1        3.345   5.307  -1.147  0.00  0.00    +0.020 A 
ATOM     25  C   LIG    1        4.409   5.856  -0.455  0.00  0.00    +0.020 A 
ATOM     26  C   LIG    1        5.212   5.054   0.334  0.00  0.00    +0.030 A 
ATOM     27  C   LIG    1        4.951   3.702   0.438  0.00  0.00    -0.070 A 
ATOM     28  C   LIG    1        5.823   2.830   1.304  0.00  0.00    +0.110 C 
ENDBRANCH  21  22
ENDBRANCH   2  16
TORSDOF 7
