REMARK  Name = ZINC9p0000002pVc.0
REMARK                            x       y       z     vdW  Elec       q    Type
REMARK                         _______ _______ _______ _____ _____    ______ ____
ROOT
ATOM      1  C   LIG    1       -0.751   1.592  -1.232  0.00  0.00    +0.090 C 
ATOM      2  C   LIG    1       -0.013   1.086   0.008  0.00  0.00    +0.160 C 
ATOM      3  C   LIG    1       -0.732   1.579   1.265  0.00  0.00    +0.060 C 
ATOM      4  C   LIG    1        0.010   1.070   2.504  0.00  0.00    +0.040 C 
ATOM      5  C   LIG    1        1.465   1.543   2.445  0.00  0.00    +0.070 C 
ATOM      6  C   LIG    1        2.104   1.052   1.144  0.00  0.00    +0.060 C 
ATOM      7  C   LIG    1        3.558   1.522   1.081  0.00  0.00    +0.090 C 
ATOM      8  C   LIG    1        2.061  -0.477   1.102  0.00  0.00    +0.080 C 
ATOM      9  N   LIG    1        1.365   1.593  -0.002  0.00  0.00    -0.500 N 
ATOM     10  H   LIG    1        1.351   2.601   0.054  0.00  0.00    +0.420 HD
ATOM     11  H   LIG    1        1.819   1.311  -0.858  0.00  0.00    +0.430 HD
ENDROOT
TORSDOF 0
