REMARK  Name = ZINCrg000000smbd.0
REMARK                            x       y       z     vdW  Elec       q    Type
REMARK                         _______ _______ _______ _____ _____    ______ ____
ROOT
ATOM      1  C   LIG    1        5.872   2.604   1.300  0.00  0.00    +0.070 C 
ATOM      2  C   LIG    1        5.614   4.112   1.253  0.00  0.00    +0.020 C 
ATOM      3  C   LIG    1        4.809   4.450  -0.006  0.00  0.00    +0.270 C 
ATOM      4  N   LIG    1        3.591   3.629  -0.023  0.00  0.00    -0.590 N 
ATOM      5  C   LIG    1        3.720   2.171   0.113  0.00  0.00    +0.280 C 
ATOM      6  C   LIG    1        2.378   4.201  -0.155  0.00  0.00    +0.570 C 
ATOM      7  O   LIG    1        2.285   5.408  -0.269  0.00  0.00    -0.530 OA
ATOM      8  C   LIG    1        4.538   1.859   1.365  0.00  0.00    +0.010 C 
ENDROOT
BRANCH   1  15
ATOM      9  C   LIG    1        8.731   1.238   1.306  0.00  0.00    +0.150 C 
ATOM     10  C   LIG    1        7.955   1.669   2.523  0.00  0.00    +0.080 A 
ATOM     11  N   LIG    1        8.345   1.545   3.766  0.00  0.00    -0.290 NA
ATOM     12  N   LIG    1        7.341   2.067   4.593  0.00  0.00    -0.480 N 
ATOM     13  H   LIG    1        7.364   2.105   5.562  0.00  0.00    +0.440 HD
ATOM     14  C   LIG    1        6.341   2.511   3.804  0.00  0.00    +0.230 A 
ATOM     15  C   LIG    1        6.693   2.273   2.519  0.00  0.00    -0.230 A 
ENDBRANCH   1  15
BRANCH   6  16
ATOM     16  C   LIG    1        1.159   3.360  -0.162  0.00  0.00    +0.110 A 
ATOM     17  C   LIG    1       -0.071   3.927   0.153  0.00  0.00    -0.010 A 
ATOM     18  C   LIG    1       -1.209   3.122   0.142  0.00  0.00    +0.140 A 
ATOM     19  C   LIG    1       -1.064   1.776  -0.192  0.00  0.00    -0.020 A 
ATOM     20  C   LIG    1        0.195   1.285  -0.487  0.00  0.00    +0.290 A 
ATOM     21  N   LIG    1        1.250   2.071  -0.468  0.00  0.00    -0.470 NA
BRANCH  18  22
ATOM     22  N   LIG    1       -2.460   3.649   0.450  0.00  0.00    -0.470 N 
ATOM     23  C   LIG    1       -3.057   2.952   1.600  0.00  0.00    +0.250 C 
ATOM     24  C   LIG    1       -2.070   2.995   2.768  0.00  0.00    +0.230 C 
ATOM     25  N   LIG    1       -1.607   4.363   2.982  0.00  0.00    -0.720 N 
ATOM     26  H   LIG    1       -1.198   4.586   3.833  0.00  0.00    +0.400 HD
ATOM     27  C   LIG    1       -1.721   5.322   2.057  0.00  0.00    +0.490 C 
ATOM     28  O   LIG    1       -1.282   6.424   2.306  0.00  0.00    -0.530 OA
ATOM     29  C   LIG    1       -2.371   5.090   0.722  0.00  0.00    +0.290 C 
ENDBRANCH  18  22
ENDBRANCH   6  16
TORSDOF 3
