REMARK  Name = ZINCvU0000000ERu.0
REMARK                            x       y       z     vdW  Elec       q    Type
REMARK                         _______ _______ _______ _____ _____    ______ ____
ROOT
ATOM      1  C   LIG    1       -3.490   3.012  -1.383  0.00  0.00    +0.040 C 
ATOM      2  C   LIG    1       -2.757   1.773  -0.864  0.00  0.00    +0.170 C 
ATOM      3  C   LIG    1       -3.066   1.565   0.633  0.00  0.00    +0.050 C 
ATOM      4  C   LIG    1       -1.841   2.214   1.336  0.00  0.00    +0.040 C 
ATOM      5  C   LIG    1       -0.698   1.859   0.352  0.00  0.00    +0.250 C 
ATOM      6  N   LIG    1       -1.304   1.964  -0.987  0.00  0.00    -0.600 N 
ATOM      7  C   LIG    1       -0.637   2.197  -2.135  0.00  0.00    +0.560 C 
ATOM      8  O   LIG    1       -1.242   2.262  -3.187  0.00  0.00    -0.480 OA
ENDROOT
BRANCH   7   9
ATOM      9  C   LIG    1        0.835   2.374  -2.114  0.00  0.00    -0.020 A 
ATOM     10  C   LIG    1        1.667   1.294  -2.030  0.00  0.00    -0.010 A 
ATOM     11  C   LIG    1        3.113   1.500  -2.015  0.00  0.00    +0.540 A 
ATOM     12  N   LIG    1        3.637   2.737  -2.075  0.00  0.00    -0.630 N 
ATOM     13  H   LIG    1        4.600   2.846  -2.061  0.00  0.00    +0.420 HD
ATOM     14  C   LIG    1        2.832   3.853  -2.156  0.00  0.00    +0.190 A 
ATOM     15  C   LIG    1        3.394   5.125  -2.217  0.00  0.00    -0.020 A 
ATOM     16  C   LIG    1        2.577   6.232  -2.297  0.00  0.00    +0.080 A 
ATOM     17  C   LIG    1        1.196   6.093  -2.318  0.00  0.00    -0.010 A 
ATOM     18  C   LIG    1        0.623   4.854  -2.260  0.00  0.00    +0.080 A 
ATOM     19  O   LIG    1        3.856   0.537  -1.943  0.00  0.00    -0.520 OA
ATOM     20  C   LIG    1        1.432   3.717  -2.178  0.00  0.00    -0.110 A 
ENDBRANCH   7   9
BRANCH   2  21
ATOM     21  C   LIG    1       -3.189   0.541  -1.661  0.00  0.00    +0.080 C 
BRANCH  21  22
ATOM     22  C   LIG    1       -2.872   0.750  -3.119  0.00  0.00    -0.050 A 
ATOM     23  C   LIG    1       -1.822   0.066  -3.702  0.00  0.00    +0.080 A 
ATOM     24  C   LIG    1       -1.530   0.255  -5.040  0.00  0.00    +0.000 A 
ATOM     25  C   LIG    1       -2.291   1.131  -5.796  0.00  0.00    +0.150 A 
ATOM     26  C   LIG    1       -3.342   1.816  -5.211  0.00  0.00    -0.210 A 
ATOM     27  F   LIG    1       -2.006   1.318  -7.104  0.00  0.00    -0.130 F 
ATOM     28  C   LIG    1       -3.635   1.620  -3.875  0.00  0.00    +0.100 A 
BRANCH  26  29
ATOM     29  C   LIG    1       -4.171   2.769  -6.033  0.00  0.00    +0.510 C 
ATOM     30  F   LIG    1       -4.767   2.075  -7.092  0.00  0.00    -0.180 F 
ATOM     31  F   LIG    1       -3.350   3.781  -6.542  0.00  0.00    -0.170 F 
ATOM     32  F   LIG    1       -5.166   3.335  -5.228  0.00  0.00    -0.180 F 
ENDBRANCH  26  29
ENDBRANCH  21  22
ENDBRANCH   2  21
TORSDOF 4
