REMARK  Name = ZINCpk00000y6yKO.0
REMARK                            x       y       z     vdW  Elec       q    Type
REMARK                         _______ _______ _______ _____ _____    ______ ____
ROOT
ATOM      1  O   LIG    1       10.079   1.077   1.532  0.00  0.00    -0.520 OA
ATOM      2  C   LIG    1        9.690   1.530   0.476  0.00  0.00    +0.510 C 
ATOM      3  N   LIG    1        8.527   1.102  -0.054  0.00  0.00    -0.610 N 
ATOM      4  C   LIG    1        7.941   1.565  -1.320  0.00  0.00    +0.260 C 
ATOM      5  C   LIG    1        6.601   0.821  -1.504  0.00  0.00    +0.030 C 
ATOM      6  C   LIG    1        6.236   0.401  -0.056  0.00  0.00    +0.250 C 
ATOM      7  C   LIG    1        7.632   0.093   0.540  0.00  0.00    +0.270 C 
ENDROOT
BRANCH   6   8
ATOM      8  N   LIG    1        5.389  -0.794  -0.054  0.00  0.00    -0.690 N 
ATOM      9  H   LIG    1        5.794  -1.676  -0.063  0.00  0.00    +0.420 HD
BRANCH   8  10
ATOM     10  C   LIG    1        4.003  -0.665  -0.041  0.00  0.00    +0.420 A 
ATOM     11  N   LIG    1        3.463   0.531  -0.029  0.00  0.00    -0.350 NA
ATOM     12  N   LIG    1        2.073   0.684  -0.014  0.00  0.00    -0.250 N 
ATOM     13  C   LIG    1        1.262   1.778  -0.000  0.00  0.00    +0.170 A 
ATOM     14  C   LIG    1       -0.016   1.329   0.009  0.00  0.00    +0.200 A 
ATOM     15  N   LIG    1        0.002  -0.004   0.002  0.00  0.00    -0.460 NA
ATOM     16  C   LIG    1        1.261  -0.420  -0.012  0.00  0.00    +0.140 A 
ATOM     17  C   LIG    1        1.843  -1.704  -0.025  0.00  0.00    +0.180 A 
ATOM     18  C   LIG    1        3.197  -1.819  -0.039  0.00  0.00    -0.050 A 
ENDBRANCH   8  10
ENDBRANCH   6   8
BRANCH   2  19
ATOM     19  C   LIG    1       10.508   2.572  -0.243  0.00  0.00    +0.270 C 
BRANCH  19  20
ATOM     20  C   LIG    1       11.000   2.009  -1.552  0.00  0.00    -0.120 A 
ATOM     21  C   LIG    1       12.107   1.181  -1.575  0.00  0.00    +0.020 A 
ATOM     22  C   LIG    1       12.555   0.661  -2.775  0.00  0.00    +0.020 A 
ATOM     23  C   LIG    1       11.903   0.977  -3.952  0.00  0.00    +0.020 A 
ATOM     24  C   LIG    1       10.800   1.809  -3.929  0.00  0.00    +0.010 A 
ATOM     25  C   LIG    1       10.348   2.325  -2.729  0.00  0.00    +0.020 A 
ENDBRANCH  19  20
BRANCH  19  26
ATOM     26  O   LIG    1       11.626   2.942   0.567  0.00  0.00    -0.530 OA
ATOM     27  H   LIG    1       12.219   2.209   0.777  0.00  0.00    +0.380 HD
ENDBRANCH  19  26
ENDBRANCH   2  19
TORSDOF 5
