REMARK  Name = ZINCrH000004lCXg.0
REMARK                            x       y       z     vdW  Elec       q    Type
REMARK                         _______ _______ _______ _____ _____    ______ ____
ROOT
ATOM      1  C   LIG    1       -1.059  -1.646  -1.242  0.00  0.00    +0.180 A 
ATOM      2  N   LIG    1       -0.912  -2.931  -1.122  0.00  0.00    -0.360 NA
ATOM      3  O   LIG    1       -1.147  -3.481  -2.178  0.00  0.00    +0.080 OA
ATOM      4  C   LIG    1       -1.476  -2.570  -3.099  0.00  0.00    +0.160 A 
ATOM      5  N   LIG    1       -1.428  -1.399  -2.511  0.00  0.00    -0.470 NA
ENDROOT
BRANCH   4   6
ATOM      6  C   LIG    1       -1.839  -2.839  -4.537  0.00  0.00    +0.310 C 
ATOM      7  C   LIG    1       -2.970  -3.887  -4.606  0.00  0.00    +0.030 C 
ATOM      8  C   LIG    1       -2.573  -4.744  -5.839  0.00  0.00    +0.030 C 
ATOM      9  C   LIG    1       -1.027  -4.749  -5.736  0.00  0.00    +0.180 C 
ATOM     10  N   LIG    1       -0.676  -3.397  -5.251  0.00  0.00    -0.500 NA
BRANCH  10  11
ATOM     11  C   LIG    1        0.506  -3.440  -4.381  0.00  0.00    +0.220 C 
BRANCH  11  12
ATOM     12  C   LIG    1        1.649  -4.089  -5.118  0.00  0.00    -0.090 A 
ATOM     13  C   LIG    1        1.835  -5.456  -5.039  0.00  0.00    +0.050 A 
ATOM     14  C   LIG    1        2.880  -6.053  -5.718  0.00  0.00    -0.010 A 
ATOM     15  C   LIG    1        3.748  -5.279  -6.470  0.00  0.00    +0.100 A 
ATOM     16  C   LIG    1        3.564  -3.909  -6.544  0.00  0.00    -0.010 A 
ATOM     17  F   LIG    1        4.772  -5.861  -7.131  0.00  0.00    -0.140 F 
ATOM     18  C   LIG    1        2.515  -3.315  -5.868  0.00  0.00    +0.070 A 
ENDBRANCH  11  12
ENDBRANCH  10  11
ENDBRANCH   4   6
BRANCH   1  19
ATOM     19  C   LIG    1       -0.859  -0.620  -0.155  0.00  0.00    +0.280 C 
BRANCH  19  22
ATOM     20  C   LIG    1        2.776  -0.470  -0.082  0.00  0.00    +0.040 A 
ATOM     21  N   LIG    1        1.593  -0.986  -0.066  0.00  0.00    -0.450 NA
ATOM     22  C   LIG    1        0.575  -0.156  -0.161  0.00  0.00    +0.070 A 
ATOM     23  C   LIG    1        0.917   1.132  -0.262  0.00  0.00    -0.060 A 
ATOM     24  S   LIG    1        2.676   1.230  -0.228  0.00  0.00    +0.160 S 
BRANCH  20  25
ATOM     25  C   LIG    1        4.060  -1.254   0.015  0.00  0.00    +0.300 C 
BRANCH  25  27
ATOM     26  C   LIG    1        5.714  -2.365  -1.317  0.00  0.00    +0.220 C 
ATOM     27  O   LIG    1        4.498  -1.615  -1.296  0.00  0.00    -0.380 OA
ENDBRANCH  25  27
ENDBRANCH  20  25
ENDBRANCH  19  22
ENDBRANCH   1  19
TORSDOF 7
