REMARK  Name = ZINCrH000004nQuT.0
REMARK                            x       y       z     vdW  Elec       q    Type
REMARK                         _______ _______ _______ _____ _____    ______ ____
ROOT
ATOM      1  C   LIG    1       -4.925   0.892  -0.115  0.00  0.00    +0.350 C 
ENDROOT
BRANCH   1   2
ATOM      2  C   LIG    1       -6.051   1.805   0.296  0.00  0.00    +0.270 A 
ATOM      3  N   LIG    1       -6.463   2.833  -0.386  0.00  0.00    -0.470 NA
ATOM      4  C   LIG    1       -7.491   3.433   0.269  0.00  0.00    +0.040 A 
ATOM      5  C   LIG    1       -8.288   4.548  -0.003  0.00  0.00    +0.070 A 
ATOM      6  C   LIG    1       -9.271   4.912   0.873  0.00  0.00    +0.000 A 
ATOM      7  C   LIG    1       -9.489   4.186   2.035  0.00  0.00    +0.040 A 
ATOM      8  C   LIG    1       -8.714   3.082   2.324  0.00  0.00    +0.010 A 
ATOM      9  C   LIG    1       -7.711   2.696   1.446  0.00  0.00    +0.050 A 
ATOM     10  N   LIG    1       -6.788   1.670   1.431  0.00  0.00    -0.590 N 
ATOM     11  H   LIG    1       -6.683   0.981   2.106  0.00  0.00    +0.420 HD
ENDBRANCH   1   2
BRANCH   1  12
ATOM     12  N   LIG    1       -3.666   1.642  -0.123  0.00  0.00    -0.720 N 
ATOM     13  H   LIG    1       -3.676   2.604  -0.247  0.00  0.00    +0.410 HD
ATOM     14  C   LIG    1       -2.495   0.996   0.041  0.00  0.00    +0.570 C 
ATOM     15  O   LIG    1       -2.483  -0.210   0.196  0.00  0.00    -0.530 OA
BRANCH  14  16
ATOM     16  C   LIG    1       -1.227   1.752   0.033  0.00  0.00    -0.160 A 
ATOM     17  C   LIG    1       -0.012   1.083   0.204  0.00  0.00    +0.110 A 
ATOM     18  C   LIG    1        1.169   1.790   0.191  0.00  0.00    +0.010 A 
ATOM     19  C   LIG    1        1.153   3.170   0.013  0.00  0.00    +0.180 A 
ATOM     20  C   LIG    1       -0.055   3.840  -0.152  0.00  0.00    -0.020 A 
ATOM     21  C   LIG    1       -1.240   3.138  -0.141  0.00  0.00    +0.070 A 
BRANCH  19  22
ATOM     22  N   LIG    1        2.351   3.884   0.000  0.00  0.00    -0.680 N 
ATOM     23  H   LIG    1        2.382   4.785   0.356  0.00  0.00    +0.420 HD
ATOM     24  C   LIG    1        3.466   3.320  -0.507  0.00  0.00    +0.510 C 
ATOM     25  O   LIG    1        3.407   2.231  -1.038  0.00  0.00    -0.520 OA
ATOM     26  C   LIG    1        4.785   4.043  -0.413  0.00  0.00    +0.110 C 
ENDBRANCH  19  22
ENDBRANCH  14  16
ENDBRANCH   1  12
BRANCH   1  27
ATOM     27  C   LIG    1       -5.199   0.342  -1.516  0.00  0.00    +0.070 C 
BRANCH  27  28
ATOM     28  C   LIG    1       -4.121  -0.679  -1.884  0.00  0.00    +0.100 C 
BRANCH  28  30
ATOM     29  C   LIG    1       -3.087  -2.505  -3.797  0.00  0.00    +0.140 C 
ATOM     30  S   LIG    1       -4.447  -1.331  -3.545  0.00  0.00    -0.270 S 
ENDBRANCH  28  30
ENDBRANCH  27  28
ENDBRANCH   1  27
TORSDOF 7
