REMARK  Name = ZINCbw00000004Ck.0
REMARK                            x       y       z     vdW  Elec       q    Type
REMARK                         _______ _______ _______ _____ _____    ______ ____
ROOT
ATOM      1  C   LIG    1        1.592   3.409   0.005  0.00  0.00    +0.210 A 
ATOM      2  C   LIG    1        0.525   4.299   0.014  0.00  0.00    -0.080 A 
ATOM      3  C   LIG    1        0.763   5.660   0.024  0.00  0.00    +0.050 A 
ATOM      4  C   LIG    1        2.061   6.136   0.014  0.00  0.00    -0.140 A 
ATOM      5  C   LIG    1        3.125   5.254   0.000  0.00  0.00    +0.050 A 
ATOM      6  C   LIG    1        2.895   3.892  -0.005  0.00  0.00    -0.070 A 
ENDROOT
BRANCH   1   7
ATOM      7  N   LIG    1        1.356   2.033   0.000  0.00  0.00    -0.750 N 
ATOM      8  H   LIG    1        2.102   1.413  -0.010  0.00  0.00    +0.400 HD
BRANCH   7  10
ATOM      9  C   LIG    1        0.002  -0.004   0.002  0.00  0.00    +0.020 C 
ATOM     10  C   LIG    1       -0.019   1.526   0.010  0.00  0.00    +0.240 C 
ENDBRANCH   7  10
ENDBRANCH   1   7
BRANCH   4  11
ATOM     11  C   LIG    1        2.316   7.622   0.019  0.00  0.00    +0.060 C 
ATOM     12  C   LIG    1        2.389   8.131  -1.422  0.00  0.00    +0.010 C 
ENDBRANCH   4  11
TORSDOF 3
