REMARK  Name = ZINCrD00000463DF.0
REMARK                            x       y       z     vdW  Elec       q    Type
REMARK                         _______ _______ _______ _____ _____    ______ ____
ROOT
ATOM      1  C   LIG    1        1.505   6.061   1.033  0.00  0.00    -0.020 C 
ATOM      2  C   LIG    1        2.314   5.498  -0.138  0.00  0.00    +0.040 C 
ATOM      3  C   LIG    1        2.411   3.977   0.000  0.00  0.00    +0.210 C 
ATOM      4  N   LIG    1        1.061   3.398   0.010  0.00  0.00    -0.460 N 
ATOM      5  C   LIG    1        0.281   3.888   1.153  0.00  0.00    +0.220 C 
ATOM      6  C   LIG    1        0.121   5.407   1.050  0.00  0.00    +0.060 C 
ENDROOT
BRANCH   4   7
ATOM      7  C   LIG    1        1.115   2.015   0.002  0.00  0.00    +0.520 A 
ATOM      8  N   LIG    1        2.295   1.414  -0.012  0.00  0.00    -0.570 NA
ATOM      9  C   LIG    1        2.387   0.092  -0.020  0.00  0.00    +0.360 A 
ATOM     10  C   LIG    1        1.232  -0.665  -0.013  0.00  0.00    -0.120 A 
ATOM     11  C   LIG    1        0.002  -0.004   0.002  0.00  0.00    +0.380 A 
ATOM     12  N   LIG    1       -0.016   1.325   0.009  0.00  0.00    -0.570 NA
BRANCH  11  13
ATOM     13  N   LIG    1       -1.182  -0.723   0.009  0.00  0.00    -0.470 N 
ATOM     14  C   LIG    1       -1.248  -1.640  -1.138  0.00  0.00    +0.180 C 
ATOM     15  C   LIG    1       -2.542  -2.455  -1.059  0.00  0.00    +0.240 C 
ATOM     16  O   LIG    1       -3.659  -1.564  -1.013  0.00  0.00    -0.380 OA
ATOM     17  C   LIG    1       -3.627  -0.657   0.092  0.00  0.00    +0.230 C 
ATOM     18  C   LIG    1       -2.345   0.177   0.025  0.00  0.00    +0.190 C 
ENDBRANCH  11  13
ENDBRANCH   4   7
BRANCH   1  19
ATOM     19  C   LIG    1        1.353   7.575   0.869  0.00  0.00    +0.250 C 
ATOM     20  F   LIG    1        0.688   7.848  -0.331  0.00  0.00    -0.200 F 
BRANCH  19  27
ATOM     21  F   LIG    1        2.744   8.286   3.213  0.00  0.00    -0.140 F 
ATOM     22  C   LIG    1        3.349   8.544   2.033  0.00  0.00    +0.110 A 
ATOM     23  C   LIG    1        4.601   9.134   2.010  0.00  0.00    -0.010 A 
ATOM     24  C   LIG    1        5.218   9.396   0.801  0.00  0.00    +0.060 A 
ATOM     25  C   LIG    1        4.586   9.070  -0.384  0.00  0.00    +0.000 A 
ATOM     26  C   LIG    1        3.338   8.475  -0.362  0.00  0.00    +0.070 A 
ATOM     27  C   LIG    1        2.716   8.217   0.845  0.00  0.00    -0.160 A 
ENDBRANCH  19  27
ENDBRANCH   1  19
TORSDOF 4
