REMARK  Name = ZINCvU00000008w5.0
REMARK                            x       y       z     vdW  Elec       q    Type
REMARK                         _______ _______ _______ _____ _____    ______ ____
ROOT
ATOM      1  C   LIG    1       -1.247  -2.104   0.003  0.00  0.00    -0.140 A 
ATOM      2  C   LIG    1       -1.258  -2.820   1.210  0.00  0.00    +0.070 A 
ATOM      3  C   LIG    1       -1.319  -4.234   1.138  0.00  0.00    -0.090 A 
ATOM      4  C   LIG    1       -1.338  -5.021   2.297  0.00  0.00    +0.040 A 
ATOM      5  C   LIG    1       -1.391  -6.379   2.190  0.00  0.00    +0.020 A 
ATOM      6  C   LIG    1       -1.428  -6.994   0.941  0.00  0.00    +0.040 A 
ATOM      7  C   LIG    1       -1.411  -6.258  -0.205  0.00  0.00    +0.040 A 
ATOM      8  C   LIG    1       -1.356  -4.856  -0.134  0.00  0.00    +0.150 A 
ATOM      9  N   LIG    1       -1.338  -4.114  -1.249  0.00  0.00    -0.460 NA
ATOM     10  C   LIG    1       -1.287  -2.807  -1.213  0.00  0.00    +0.210 A 
ENDROOT
BRANCH   2  11
ATOM     11  C   LIG    1       -1.211  -2.123   2.513  0.00  0.00    -0.080 A 
ATOM     12  C   LIG    1       -0.079  -1.390   2.876  0.00  0.00    +0.040 A 
ATOM     13  C   LIG    1       -0.045  -0.738   4.091  0.00  0.00    +0.010 A 
ATOM     14  C   LIG    1       -1.124  -0.817   4.953  0.00  0.00    +0.030 A 
ATOM     15  C   LIG    1       -2.246  -1.546   4.602  0.00  0.00    +0.010 A 
ATOM     16  C   LIG    1       -2.296  -2.199   3.388  0.00  0.00    +0.040 A 
ENDBRANCH   2  11
BRANCH   1  17
ATOM     17  C   LIG    1       -1.190  -0.632   0.010  0.00  0.00    +0.530 C 
ATOM     18  O   LIG    1       -2.218   0.016   0.023  0.00  0.00    -0.490 OA
BRANCH  17  20
ATOM     19  C   LIG    1       -0.018   1.448   0.010  0.00  0.00    +0.260 C 
ATOM     20  O   LIG    1        0.002  -0.004   0.002  0.00  0.00    -0.340 OA
ENDBRANCH  17  20
ENDBRANCH   1  17
BRANCH  10  21
ATOM     21  C   LIG    1       -1.269  -2.037  -2.508  0.00  0.00    +0.260 C 
BRANCH  21  22
ATOM     22  N   LIG    1        0.120  -1.840  -2.942  0.00  0.00    -0.530 NA
ATOM     23  C   LIG    1        0.750  -3.121  -3.289  0.00  0.00    +0.190 C 
BRANCH  22  24
ATOM     24  C   LIG    1        0.192  -0.896  -4.066  0.00  0.00    +0.190 C 
ATOM     25  C   LIG    1       -0.383   0.454  -3.635  0.00  0.00    +0.050 C 
BRANCH  24  26
ATOM     26  C   LIG    1        1.629  -0.720  -4.482  0.00  0.00    -0.130 A 
ATOM     27  C   LIG    1        1.966  -0.642  -5.825  0.00  0.00    +0.060 A 
ATOM     28  C   LIG    1        3.301  -0.474  -6.162  0.00  0.00    -0.040 A 
ATOM     29  C   LIG    1        4.245  -0.403  -5.156  0.00  0.00    +0.250 A 
ATOM     30  N   LIG    1        3.889  -0.487  -3.889  0.00  0.00    -0.490 NA
ATOM     31  C   LIG    1        2.629  -0.641  -3.531  0.00  0.00    +0.290 A 
ENDBRANCH  24  26
ENDBRANCH  22  24
ENDBRANCH  21  22
ENDBRANCH  10  21
TORSDOF 7
