REMARK  Name = ZINCrH000004nNeO.0
REMARK                            x       y       z     vdW  Elec       q    Type
REMARK                         _______ _______ _______ _____ _____    ______ ____
ROOT
ATOM      1  N   LIG    1       -2.398   0.913  -0.074  0.00  0.00    -0.660 N 
ATOM      2  H   LIG    1       -2.350  -0.044   0.074  0.00  0.00    +0.420 HD
ATOM      3  C   LIG    1       -3.589   1.502  -0.299  0.00  0.00    +0.610 C 
ATOM      4  O   LIG    1       -3.640   2.685  -0.570  0.00  0.00    -0.490 OA
ENDROOT
BRANCH   1   8
ATOM      5  C   LIG    1        1.086   3.206  -0.011  0.00  0.00    +0.150 A 
ATOM      6  C   LIG    1       -0.109   3.745   0.444  0.00  0.00    +0.040 A 
ATOM      7  C   LIG    1       -1.264   2.987   0.420  0.00  0.00    +0.070 A 
ATOM      8  C   LIG    1       -1.228   1.683  -0.055  0.00  0.00    +0.140 A 
ATOM      9  C   LIG    1       -0.034   1.144  -0.517  0.00  0.00    +0.040 A 
ATOM     10  C   LIG    1        1.121   1.902  -0.492  0.00  0.00    -0.040 A 
ATOM     11 CL   LIG    1        2.615   1.226  -1.061  0.00  0.00    -0.050 Cl
BRANCH   5  12
ATOM     12  N   LIG    1        2.255   3.974   0.013  0.00  0.00    -1.050 N 
ATOM     13  H   LIG    1        2.912   3.881  -0.694  0.00  0.00    +0.430 HD
BRANCH  12  15
ATOM     14  C   LIG    1        2.503   4.016   2.746  0.00  0.00    -0.270 C 
ATOM     15  S   LIG    1        2.518   5.043   1.251  0.00  0.00    +2.610 S 
ATOM     16  O   LIG    1        1.384   5.898   1.222  0.00  0.00    -0.940 OA
ATOM     17  O   LIG    1        3.823   5.548   1.006  0.00  0.00    -0.940 OA
ENDBRANCH  12  15
ENDBRANCH   5  12
ENDBRANCH   1   8
BRANCH   3  18
ATOM     18  C   LIG    1       -4.837   0.706  -0.214  0.00  0.00    -0.030 A 
ATOM     19  N   LIG    1       -4.938  -0.571   0.067  0.00  0.00    -0.320 NA
ATOM     20  O   LIG    1       -6.089  -0.941   0.064  0.00  0.00    +0.140 OA
ATOM     21  C   LIG    1       -6.934   0.063  -0.228  0.00  0.00    +0.020 A 
ATOM     22  C   LIG    1       -6.161   1.176  -0.416  0.00  0.00    +0.040 A 
BRANCH  21  23
ATOM     23  C   LIG    1       -8.407  -0.018  -0.322  0.00  0.00    -0.070 A 
ATOM     24  C   LIG    1       -9.205   0.899   0.364  0.00  0.00    +0.080 A 
ATOM     25  C   LIG    1      -10.579   0.821   0.268  0.00  0.00    +0.010 A 
ATOM     26  C   LIG    1      -11.168  -0.169  -0.497  0.00  0.00    +0.070 A 
ATOM     27  C   LIG    1      -10.386  -1.086  -1.176  0.00  0.00    +0.000 A 
ATOM     28  C   LIG    1       -9.008  -1.017  -1.094  0.00  0.00    +0.130 A 
ATOM     29  F   LIG    1       -8.244  -1.912  -1.757  0.00  0.00    -0.130 F 
ENDBRANCH  21  23
ENDBRANCH   3  18
TORSDOF 5
