REMARK  Name = ZINCkj000005fzDs.0
REMARK                            x       y       z     vdW  Elec       q    Type
REMARK                         _______ _______ _______ _____ _____    ______ ____
ROOT
ATOM      1  N   LIG    1       -0.156   6.656  -1.854  0.00  0.00    -1.120 NA
ATOM      2  H   LIG    1        0.415   7.122  -2.485  0.00  0.00    +0.430 HD
ENDROOT
BRANCH   1   3
ATOM      3  S   LIG    1        0.341   6.438  -0.290  0.00  0.00    +2.680 S 
ATOM      4  O   LIG    1        0.117   5.069   0.015  0.00  0.00    -0.910 OA
ATOM      5  O   LIG    1        1.614   7.060  -0.183  0.00  0.00    -0.910 OA
BRANCH   3   6
ATOM      6  C   LIG    1       -0.751   7.362   0.738  0.00  0.00    -0.680 A 
ATOM      7  C   LIG    1       -1.747   6.716   1.446  0.00  0.00    +0.150 A 
ATOM      8  C   LIG    1       -2.604   7.441   2.253  0.00  0.00    +0.110 A 
ATOM      9  C   LIG    1       -2.465   8.812   2.352  0.00  0.00    +0.010 A 
ATOM     10  C   LIG    1       -1.473   9.460   1.640  0.00  0.00    +0.110 A 
ATOM     11  C   LIG    1       -0.613   8.734   0.837  0.00  0.00    +0.120 A 
BRANCH   9  12
ATOM     12  N   LIG    1       -3.383   9.589   3.216  0.00  0.00    +0.010 N 
ATOM     13  O   LIG    1       -3.261  10.797   3.303  0.00  0.00    -0.130 OA
ATOM     14  O   LIG    1       -4.261   9.019   3.839  0.00  0.00    -0.120 OA
ENDBRANCH   9  12
ENDBRANCH   3   6
ENDBRANCH   1   3
BRANCH   1  15
ATOM     15  C   LIG    1       -1.459   6.145  -2.287  0.00  0.00    +0.160 C 
BRANCH  15  17
ATOM     16  C   LIG    1       -2.998   5.871  -4.236  0.00  0.00    +0.040 C 
ATOM     17  C   LIG    1       -1.637   6.404  -3.784  0.00  0.00    +0.040 C 
ENDBRANCH  15  17
BRANCH  15  18
ATOM     18  C   LIG    1       -1.532   4.641  -2.017  0.00  0.00    +0.050 C 
ATOM     19  C   LIG    1       -0.327   3.949  -2.657  0.00  0.00    +0.040 C 
ENDBRANCH  15  18
BRANCH  15  20
ATOM     20  C   LIG    1       -2.569   6.857  -1.511  0.00  0.00    +0.250 C 
BRANCH  20  21
ATOM     21  N   LIG    1       -2.418   8.310  -1.661  0.00  0.00    -0.640 N 
ATOM     22  H   LIG    1       -2.480   8.556  -2.637  0.00  0.00    +0.440 HD
ATOM     23  H   LIG    1       -1.519   8.594  -1.299  0.00  0.00    +0.420 HD
ATOM     24  H   LIG    1       -3.150   8.779  -1.149  0.00  0.00    +0.440 HD
ENDBRANCH  20  21
ENDBRANCH  15  20
ENDBRANCH   1  15
TORSDOF 8
