REMARK  Name = ZINCfA000000biDF.0
REMARK                            x       y       z     vdW  Elec       q    Type
REMARK                         _______ _______ _______ _____ _____    ______ ____
ROOT
ATOM      1  C   LIG    1       -0.108   8.096   0.044  0.00  0.00    -0.180 A 
ATOM      2  C   LIG    1       -1.298   7.391   0.051  0.00  0.00    +0.050 A 
ATOM      3  C   LIG    1       -1.285   6.011   0.044  0.00  0.00    +0.030 A 
ATOM      4  C   LIG    1       -0.070   5.328   0.029  0.00  0.00    +0.010 A 
ATOM      5  C   LIG    1        1.125   6.043   0.027  0.00  0.00    +0.030 A 
ATOM      6  C   LIG    1        1.101   7.423   0.029  0.00  0.00    +0.050 A 
ENDROOT
BRANCH   4   7
ATOM      7  C   LIG    1       -0.050   3.844   0.022  0.00  0.00    -0.080 A 
ATOM      8  C   LIG    1        1.164   3.161   0.007  0.00  0.00    +0.030 A 
ATOM      9  C   LIG    1        1.177   1.781   0.000  0.00  0.00    +0.010 A 
ATOM     10  C   LIG    1       -0.013   1.076   0.008  0.00  0.00    +0.030 A 
ATOM     11  C   LIG    1       -1.221   1.748   0.017  0.00  0.00    +0.010 A 
ATOM     12  C   LIG    1       -1.246   3.128   0.030  0.00  0.00    +0.030 A 
ENDBRANCH   4   7
BRANCH   1  13
ATOM     13  C   LIG    1       -0.128   9.603   0.051  0.00  0.00    +0.330 C 
BRANCH  13  15
ATOM     14  C   LIG    1       -0.142  11.555   1.446  0.00  0.00    +0.320 C 
ATOM     15  N   LIG    1       -0.122  10.086   1.438  0.00  0.00    -0.510 N 
ATOM     16  H   LIG    1        0.710   9.758   1.905  0.00  0.00    +0.430 HD
ATOM     17  H   LIG    1       -0.937   9.736   1.920  0.00  0.00    +0.430 HD
ENDBRANCH  13  15
ENDBRANCH   1  13
TORSDOF 3
