REMARK  Name = ZINCkj000005kskg.0
REMARK                            x       y       z     vdW  Elec       q    Type
REMARK                         _______ _______ _______ _____ _____    ______ ____
ROOT
ATOM      1  N   LIG    1       -1.556   0.392   3.167  0.00  0.00    -1.110 NA
ATOM      2  H   LIG    1       -1.926   1.287   3.212  0.00  0.00    +0.420 HD
ENDROOT
BRANCH   1   3
ATOM      3  S   LIG    1        0.025   0.171   2.726  0.00  0.00    +2.690 S 
ATOM      4  O   LIG    1        0.549   1.463   2.451  0.00  0.00    -0.940 OA
ATOM      5  O   LIG    1        0.591  -0.708   3.688  0.00  0.00    -0.930 OA
BRANCH   3  13
ATOM      6  C   LIG    1       -0.018   1.503   0.010  0.00  0.00    +0.130 C 
ATOM      7  C   LIG    1        0.002  -0.004   0.002  0.00  0.00    +0.040 A 
ATOM      8  C   LIG    1       -0.006  -0.689  -1.199  0.00  0.00    +0.000 A 
ATOM      9  C   LIG    1        0.019  -2.071  -1.207  0.00  0.00    +0.100 A 
ATOM     10  C   LIG    1        0.040  -2.769  -0.015  0.00  0.00    +0.000 A 
ATOM     11  C   LIG    1        0.042  -2.085   1.188  0.00  0.00    +0.050 A 
ATOM     12 CL   LIG    1        0.068  -2.961   2.686  0.00  0.00    -0.030 Cl
ATOM     13  C   LIG    1        0.023  -0.702   1.195  0.00  0.00    -0.690 A 
ENDBRANCH   3  13
ENDBRANCH   1   3
BRANCH   1  14
ATOM     14  C   LIG    1       -2.396  -0.765   3.487  0.00  0.00    +0.320 C 
BRANCH  14  15
ATOM     15  C   LIG    1       -3.660  -0.294   4.209  0.00  0.00    +0.160 C 
ATOM     16  C   LIG    1       -4.444  -1.526   4.705  0.00  0.00    +0.240 C 
ATOM     17  N   LIG    1       -5.373  -1.106   5.732  0.00  0.00    -0.510 N 
ATOM     18  C   LIG    1       -6.722  -0.816   5.196  0.00  0.00    +0.270 C 
ATOM     19  C   LIG    1       -6.670  -0.047   3.870  0.00  0.00    +0.040 C 
ATOM     20  C   LIG    1       -5.617   1.034   3.878  0.00  0.00    +0.240 C 
ATOM     21  H   LIG    1       -5.448  -1.839   6.421  0.00  0.00    +0.440 HD
ATOM     22  H   LIG    1       -5.014  -0.275   6.177  0.00  0.00    +0.420 HD
ATOM     23  O   LIG    1       -4.399   0.469   3.356  0.00  0.00    -0.350 OA
ENDBRANCH  14  15
ENDBRANCH   1  14
TORSDOF 4
