REMARK  Name = ZINCtV00000L6jNF.0
REMARK                            x       y       z     vdW  Elec       q    Type
REMARK                         _______ _______ _______ _____ _____    ______ ____
ROOT
ATOM      1  C   LIG    1        3.568   3.269   1.002  0.00  0.00    +0.000 C 
ATOM      2  C   LIG    1        3.281   2.474   2.277  0.00  0.00    +0.100 C 
ENDROOT
BRANCH   1   5
ATOM      3  N   LIG    1        6.036   3.383   0.871  0.00  0.00    -0.660 N 
ATOM      4  H   LIG    1        6.028   2.489   0.494  0.00  0.00    +0.420 HD
ATOM      5  C   LIG    1        4.874   4.006   1.153  0.00  0.00    +0.540 C 
ATOM      6  O   LIG    1        4.880   5.159   1.528  0.00  0.00    -0.490 OA
BRANCH   3  11
ATOM      7  C   LIG    1        8.588   5.532   2.442  0.00  0.00    -0.150 A 
ATOM      8  C   LIG    1        9.680   5.292   1.602  0.00  0.00    +0.050 A 
ATOM      9  C   LIG    1        9.551   4.426   0.535  0.00  0.00    +0.030 A 
ATOM     10  C   LIG    1        8.347   3.790   0.296  0.00  0.00    +0.020 A 
ATOM     11  C   LIG    1        7.253   4.026   1.122  0.00  0.00    +0.130 A 
ATOM     12  C   LIG    1        7.370   4.893   2.196  0.00  0.00    +0.090 A 
BRANCH   7  14
ATOM     13  C   LIG    1       10.037   7.143   3.843  0.00  0.00    +0.080 C 
ATOM     14  C   LIG    1        8.722   6.455   3.581  0.00  0.00    +0.390 C 
ATOM     15  O   LIG    1        7.774   6.662   4.308  0.00  0.00    -0.450 OA
ENDBRANCH   7  14
ENDBRANCH   3  11
ENDBRANCH   1   5
BRANCH   1  16
ATOM     16  S   LIG    1        2.233   4.459   0.720  0.00  0.00    +0.170 S 
BRANCH  16  17
ATOM     17  C   LIG    1        0.892   3.352   0.435  0.00  0.00    +0.030 A 
ATOM     18  N   LIG    1        0.932   2.054   0.443  0.00  0.00    -0.260 NA
ATOM     19  N   LIG    1       -0.232   1.361   0.196  0.00  0.00    -0.310 N 
ATOM     20  C   LIG    1       -1.335   2.095  -0.043  0.00  0.00    +0.210 A 
ATOM     21  S   LIG    1       -2.914   1.528  -0.387  0.00  0.00    -0.380 S 
ATOM     22  S   LIG    1       -0.791   3.779   0.079  0.00  0.00    +0.170 S 
BRANCH  19  23
ATOM     23  C   LIG    1       -0.265  -0.037   0.188  0.00  0.00    +0.140 A 
ATOM     24  C   LIG    1        0.677  -0.752  -0.541  0.00  0.00    +0.080 A 
ATOM     25  C   LIG    1        0.647  -2.132  -0.542  0.00  0.00    +0.070 A 
ATOM     26  C   LIG    1       -0.329  -2.805   0.172  0.00  0.00    -0.010 A 
ATOM     27  C   LIG    1       -1.274  -2.096   0.895  0.00  0.00    -0.020 A 
ATOM     28 CL   LIG    1       -2.496  -2.943   1.790  0.00  0.00    -0.020 Cl
ATOM     29 CL   LIG    1       -0.368  -4.541   0.162  0.00  0.00    -0.030 Cl
ATOM     30  C   LIG    1       -1.244  -0.714   0.905  0.00  0.00    +0.100 A 
ENDBRANCH  19  23
ENDBRANCH  16  17
ENDBRANCH   1  16
TORSDOF 6
