REMARK  Name = ZINCpk00000KfLNm.0
REMARK                            x       y       z     vdW  Elec       q    Type
REMARK                         _______ _______ _______ _____ _____    ______ ____
ROOT
ATOM      1  C   LIG    1       -3.678   1.622   0.175  0.00  0.00    +0.190 A 
ATOM      2  C   LIG    1       -4.549   0.558   0.298  0.00  0.00    -0.290 A 
ATOM      3  C   LIG    1       -3.818  -0.616   0.002  0.00  0.00    +0.300 A 
ATOM      4  N   LIG    1       -2.594  -0.269  -0.285  0.00  0.00    -0.280 NA
ATOM      5  N   LIG    1       -2.479   1.122  -0.178  0.00  0.00    -0.310 N 
ENDROOT
BRANCH   2   6
ATOM      6  C   LIG    1       -5.973   0.632   0.669  0.00  0.00    +0.600 C 
ATOM      7  N   LIG    1       -6.512  -0.312   1.466  0.00  0.00    -0.610 N 
ATOM      8  C   LIG    1       -5.676  -1.364   2.066  0.00  0.00    +0.250 C 
ATOM      9  C   LIG    1       -5.973  -1.410   3.574  0.00  0.00    +0.140 C 
ATOM     10  O   LIG    1       -7.383  -1.532   3.771  0.00  0.00    -0.370 OA
ATOM     11  C   LIG    1       -8.141  -0.425   3.275  0.00  0.00    +0.140 C 
ATOM     12  C   LIG    1       -9.622  -0.634   3.596  0.00  0.00    +0.080 C 
ATOM     13  C   LIG    1       -5.264  -2.615   4.196  0.00  0.00    +0.060 C 
ATOM     14  C   LIG    1       -7.955  -0.326   1.757  0.00  0.00    +0.260 C 
ATOM     15  O   LIG    1       -6.663   1.544   0.257  0.00  0.00    -0.530 OA
ENDBRANCH   2   6
BRANCH   5  16
ATOM     16  C   LIG    1       -1.317   1.867  -0.406  0.00  0.00    +0.270 A 
ATOM     17  C   LIG    1       -0.065   1.273  -0.253  0.00  0.00    +0.100 A 
ATOM     18  C   LIG    1        1.056   2.049  -0.495  0.00  0.00    +0.060 A 
ATOM     19  C   LIG    1        0.863   3.377  -0.870  0.00  0.00    +0.260 A 
ATOM     20  N   LIG    1       -0.364   3.857  -0.985  0.00  0.00    -0.270 NA
ATOM     21  N   LIG    1       -1.403   3.138  -0.761  0.00  0.00    -0.200 NA
BRANCH  19  22
ATOM     22  O   LIG    1        1.933   4.175  -1.118  0.00  0.00    -0.290 OA
ATOM     23  C   LIG    1        1.659   5.525  -1.499  0.00  0.00    +0.280 C 
ENDBRANCH  19  22
ENDBRANCH   5  16
BRANCH   1  25
ATOM     24  C   LIG    1       -4.476   3.698  -0.922  0.00  0.00    +0.060 C 
ATOM     25  C   LIG    1       -4.009   3.076   0.395  0.00  0.00    +0.110 C 
ENDBRANCH   1  25
TORSDOF 4
