REMARK  Name = ZINCpk00000y6zag.0
REMARK                            x       y       z     vdW  Elec       q    Type
REMARK                         _______ _______ _______ _____ _____    ______ ____
ROOT
ATOM      1  C   LIG    1        0.002  -0.004   0.002  0.00  0.00    +0.040 C 
ATOM      2  C   LIG    1       -0.019   1.526   0.010  0.00  0.00    +0.020 C 
ATOM      3  C   LIG    1        1.420   2.052  -0.001  0.00  0.00    +0.280 C 
ATOM      4  N   LIG    1        2.130   1.465  -1.145  0.00  0.00    -0.610 N 
ATOM      5  C   LIG    1        2.135   0.004  -1.299  0.00  0.00    +0.280 C 
ATOM      6  C   LIG    1        2.764   2.251  -2.037  0.00  0.00    +0.500 C 
ATOM      7  O   LIG    1        3.347   1.754  -2.977  0.00  0.00    -0.520 OA
ATOM      8  C   LIG    1        0.688  -0.500  -1.273  0.00  0.00    +0.020 C 
ENDROOT
BRANCH   1  13
ATOM      9  C   LIG    1       -5.402  -1.917   0.048  0.00  0.00    +0.130 C 
ATOM     10  C   LIG    1       -3.977  -1.427   0.058  0.00  0.00    +0.120 A 
ATOM     11  C   LIG    1       -3.137  -1.791   1.093  0.00  0.00    -0.030 A 
ATOM     12  C   LIG    1       -1.828  -1.335   1.093  0.00  0.00    +0.060 A 
ATOM     13  C   LIG    1       -1.411  -0.526   0.047  0.00  0.00    -0.140 A 
ATOM     14  C   LIG    1       -2.310  -0.199  -0.951  0.00  0.00    +0.260 A 
ATOM     15  N   LIG    1       -3.547  -0.655  -0.921  0.00  0.00    -0.480 NA
ENDBRANCH   1  13
BRANCH   6  16
ATOM     16  C   LIG    1        2.750   3.748  -1.865  0.00  0.00    +0.310 C 
BRANCH  16  17
ATOM     17  N   LIG    1        3.504   4.372  -2.956  0.00  0.00    -0.580 N 
ATOM     18  C   LIG    1        2.813   4.753  -4.198  0.00  0.00    +0.290 C 
ATOM     19  C   LIG    1        3.234   3.789  -5.309  0.00  0.00    +0.010 C 
ATOM     20  C   LIG    1        4.510   4.262  -5.980  0.00  0.00    +0.020 C 
ATOM     21  C   LIG    1        5.731   4.215  -5.079  0.00  0.00    +0.050 C 
ATOM     22  C   LIG    1        5.602   5.229  -3.939  0.00  0.00    +0.190 C 
ATOM     23  C   LIG    1        4.811   4.596  -2.814  0.00  0.00    +0.490 C 
ATOM     24  O   LIG    1        5.369   4.287  -1.782  0.00  0.00    -0.540 OA
BRANCH  22  25
ATOM     25  O   LIG    1        4.917   6.393  -4.407  0.00  0.00    -0.540 OA
ATOM     26  H   LIG    1        4.801   7.078  -3.734  0.00  0.00    +0.380 HD
ENDBRANCH  22  25
ENDBRANCH  16  17
ENDBRANCH   6  16
TORSDOF 4
