REMARK  Name = ZINCpk00001AZivl.0
REMARK                            x       y       z     vdW  Elec       q    Type
REMARK                         _______ _______ _______ _____ _____    ______ ____
ROOT
ATOM      1  C   LIG    1       -6.424   1.578   3.746  0.00  0.00    +0.270 C 
ENDROOT
BRANCH   1   6
ATOM      2  N   LIG    1       -7.543   1.720   6.034  0.00  0.00    -0.290 N 
ATOM      3  N   LIG    1       -7.715   2.644   6.917  0.00  0.00    -0.080 NA
ATOM      4  N   LIG    1       -7.173   3.731   6.491  0.00  0.00    -0.070 NA
ATOM      5  N   LIG    1       -6.644   3.521   5.335  0.00  0.00    -0.290 NA
ATOM      6  C   LIG    1       -6.860   2.269   5.012  0.00  0.00    +0.150 A 
BRANCH   2   8
ATOM      7  C   LIG    1       -6.977  -0.497   6.898  0.00  0.00    +0.050 C 
ATOM      8  C   LIG    1       -8.005   0.332   6.125  0.00  0.00    +0.330 C 
ENDBRANCH   2   8
ENDBRANCH   1   6
BRANCH   1   9
ATOM      9  C   LIG    1       -7.268   2.082   2.574  0.00  0.00    +0.120 C 
ATOM     10  F   LIG    1       -8.625   1.922   2.873  0.00  0.00    -0.200 F 
ATOM     11  C   LIG    1       -6.971   3.563   2.330  0.00  0.00    +0.060 C 
BRANCH   9  12
ATOM     12  C   LIG    1       -6.925   1.280   1.317  0.00  0.00    +0.110 C 
ATOM     13  F   LIG    1       -7.707   1.731   0.248  0.00  0.00    -0.200 F 
ATOM     14  C   LIG    1       -7.208  -0.203   1.565  0.00  0.00    +0.040 C 
ATOM     15  C   LIG    1       -5.444   1.467   0.981  0.00  0.00    +0.090 C 
ENDBRANCH   9  12
ENDBRANCH   1   9
BRANCH   1  16
ATOM     16  N   LIG    1       -5.008   1.871   3.491  0.00  0.00    -0.500 NA
ATOM     17  C   LIG    1       -4.140   0.873   4.130  0.00  0.00    +0.210 C 
BRANCH  16  18
ATOM     18  C   LIG    1       -4.663   3.229   3.935  0.00  0.00    +0.220 C 
BRANCH  18  19
ATOM     19  C   LIG    1       -3.351   3.662   3.278  0.00  0.00    +0.170 C 
ATOM     20  C   LIG    1       -2.929   5.027   3.830  0.00  0.00    +0.150 C 
ATOM     21  N   LIG    1       -1.710   5.473   3.139  0.00  0.00    -0.540 NA
ATOM     22  C   LIG    1       -1.936   5.564   1.690  0.00  0.00    +0.140 C 
ATOM     23  C   LIG    1       -2.368   4.194   1.159  0.00  0.00    +0.220 C 
ATOM     24  C   LIG    1       -1.238   6.755   3.680  0.00  0.00    +0.190 C 
ATOM     25  O   LIG    1       -3.536   3.763   1.863  0.00  0.00    -0.360 OA
ENDBRANCH  18  19
ENDBRANCH  16  18
ENDBRANCH   1  16
TORSDOF 7
