REMARK  Name = ZINCrD00000lbpnB.0
REMARK                            x       y       z     vdW  Elec       q    Type
REMARK                         _______ _______ _______ _____ _____    ______ ____
ROOT
ATOM      1  C   LIG    1       -6.138   1.286   0.039  0.00  0.00    +0.460 C 
ATOM      2  O   LIG    1       -6.311   2.482   0.046  0.00  0.00    -0.500 OA
ENDROOT
BRANCH   1   3
ATOM      3  C   LIG    1       -7.321   0.353   0.040  0.00  0.00    +0.370 C 
BRANCH   3   5
ATOM      4  C   LIG    1       -9.753   0.509   0.053  0.00  0.00    +0.570 C 
ATOM      5  N   LIG    1       -8.560   1.136   0.050  0.00  0.00    -0.720 N 
ATOM      6  H   LIG    1       -8.521   2.105   0.055  0.00  0.00    +0.410 HD
ATOM      7  O   LIG    1       -9.802  -0.706   0.047  0.00  0.00    -0.530 OA
BRANCH   4  12
ATOM      8  C   LIG    1      -14.618   3.583   0.094  0.00  0.00    +0.100 C 
ATOM      9  C   LIG    1      -13.344   2.778   0.083  0.00  0.00    -0.060 A 
ATOM     10  C   LIG    1      -13.403   1.396   0.076  0.00  0.00    +0.000 A 
ATOM     11  C   LIG    1      -12.240   0.653   0.066  0.00  0.00    +0.090 A 
ATOM     12  C   LIG    1      -11.003   1.299   0.063  0.00  0.00    -0.150 A 
ATOM     13  C   LIG    1      -10.950   2.693   0.075  0.00  0.00    +0.050 A 
ATOM     14  C   LIG    1      -12.120   3.425   0.081  0.00  0.00    +0.000 A 
ENDBRANCH   4  12
ENDBRANCH   3   5
ENDBRANCH   1   3
BRANCH   1  15
ATOM     15  O   LIG    1       -4.891   0.788   0.030  0.00  0.00    -0.330 OA
BRANCH  15  16
ATOM     16  C   LIG    1       -3.799   1.746   0.030  0.00  0.00    +0.240 C 
BRANCH  16  17
ATOM     17  C   LIG    1       -2.485   1.008   0.020  0.00  0.00    +0.400 C 
ATOM     18  O   LIG    1       -2.470  -0.204   0.013  0.00  0.00    -0.420 OA
BRANCH  17  19
ATOM     19  C   LIG    1       -1.221   1.760   0.017  0.00  0.00    -0.170 A 
ATOM     20  C   LIG    1       -0.013   1.076   0.008  0.00  0.00    +0.120 A 
ATOM     21  C   LIG    1        1.189   1.800   0.000  0.00  0.00    -0.070 A 
ATOM     22  C   LIG    1        2.432   1.143  -0.015  0.00  0.00    +0.040 A 
ATOM     23  C   LIG    1        3.580   1.875  -0.022  0.00  0.00    +0.010 A 
ATOM     24  C   LIG    1        3.542   3.267  -0.015  0.00  0.00    +0.030 A 
ATOM     25  C   LIG    1        2.357   3.937  -0.000  0.00  0.00    +0.010 A 
ATOM     26  C   LIG    1        1.151   3.218   0.008  0.00  0.00    -0.030 A 
ATOM     27  C   LIG    1       -0.090   3.882   0.023  0.00  0.00    +0.030 A 
ATOM     28  C   LIG    1       -1.244   3.168   0.030  0.00  0.00    +0.040 A 
ENDBRANCH  17  19
ENDBRANCH  16  17
ENDBRANCH  15  16
ENDBRANCH   1  15
TORSDOF 7
