REMARK  Name = ZINCrH000004tcJQ.0
REMARK                            x       y       z     vdW  Elec       q    Type
REMARK                         _______ _______ _______ _____ _____    ______ ____
ROOT
ATOM      1  C   LIG    1        2.132   0.783   1.261  0.00  0.00    +0.210 A 
ATOM      2  N   LIG    1        1.815   1.368   2.377  0.00  0.00    -0.370 NA
ATOM      3  O   LIG    1        2.679   1.182   3.208  0.00  0.00    +0.090 OA
ATOM      4  C   LIG    1        3.663   0.446   2.682  0.00  0.00    +0.200 A 
ATOM      5  N   LIG    1        3.324   0.187   1.442  0.00  0.00    -0.470 NA
ENDROOT
BRANCH   4   6
ATOM      6  C   LIG    1        4.922   0.000   3.380  0.00  0.00    +0.240 C 
ATOM      7  C   LIG    1        4.561  -0.848   4.608  0.00  0.00    +0.050 C 
ATOM      8  C   LIG    1        5.812  -1.091   5.455  0.00  0.00    +0.050 C 
ATOM      9  C   LIG    1        6.231   0.210   6.152  0.00  0.00    +0.140 C 
ATOM     10  C   LIG    1        6.289   1.300   5.116  0.00  0.00    +0.030 A 
ATOM     11  N   LIG    1        6.858   2.470   5.160  0.00  0.00    -0.270 NA
ATOM     12  N   LIG    1        6.653   3.066   4.033  0.00  0.00    -0.260 N 
ATOM     13  H   LIG    1        6.977   3.954   3.813  0.00  0.00    +0.470 HD
ATOM     14  N   LIG    1        5.960   2.321   3.239  0.00  0.00    -0.260 NA
ATOM     15  C   LIG    1        5.696   1.202   3.851  0.00  0.00    -0.000 A 
ENDBRANCH   4   6
BRANCH   1  16
ATOM     16  C   LIG    1        1.317   0.779  -0.006  0.00  0.00    -0.020 C 
ATOM     17  C   LIG    1       -0.019   1.526   0.010  0.00  0.00    +0.070 C 
ATOM     18  C   LIG    1        0.002  -0.004   0.002  0.00  0.00    +0.070 C 
BRANCH  16  23
ATOM     19  C   LIG    1        4.047   0.155  -2.538  0.00  0.00    -0.180 A 
ATOM     20  C   LIG    1        3.559   0.830  -3.642  0.00  0.00    +0.070 A 
ATOM     21  C   LIG    1        2.346   1.488  -3.569  0.00  0.00    +0.020 A 
ATOM     22  C   LIG    1        1.620   1.471  -2.393  0.00  0.00    +0.060 A 
ATOM     23  C   LIG    1        2.108   0.797  -1.289  0.00  0.00    -0.050 A 
ATOM     24  C   LIG    1        3.324   0.143  -1.360  0.00  0.00    +0.110 A 
BRANCH  19  26
ATOM     25  F   LIG    1        5.910  -0.404  -3.898  0.00  0.00    -0.180 F 
ATOM     26  C   LIG    1        5.370  -0.562  -2.617  0.00  0.00    +0.510 C 
ATOM     27  F   LIG    1        5.178  -1.924  -2.357  0.00  0.00    -0.180 F 
ATOM     28  F   LIG    1        6.249  -0.026  -1.671  0.00  0.00    -0.170 F 
ENDBRANCH  19  26
ENDBRANCH  16  23
ENDBRANCH   1  16
TORSDOF 4
