REMARK  Name = ZINCrH000004tcJQ.1
REMARK                            x       y       z     vdW  Elec       q    Type
REMARK                         _______ _______ _______ _____ _____    ______ ____
ROOT
ATOM      1  C   LIG    1       -4.017   1.906   4.242  0.00  0.00    +0.210 A 
ATOM      2  N   LIG    1       -3.928   2.994   3.536  0.00  0.00    -0.370 NA
ATOM      3  O   LIG    1       -3.280   2.790   2.531  0.00  0.00    +0.090 OA
ATOM      4  C   LIG    1       -2.891   1.512   2.494  0.00  0.00    +0.180 A 
ATOM      5  N   LIG    1       -3.352   0.942   3.581  0.00  0.00    -0.470 NA
ENDROOT
BRANCH   4   6
ATOM      6  C   LIG    1       -2.072   0.854   1.413  0.00  0.00    +0.230 C 
ATOM      7  C   LIG    1       -0.729   1.579   1.268  0.00  0.00    +0.050 C 
ATOM      8  C   LIG    1       -0.013   1.086   0.008  0.00  0.00    +0.050 C 
ATOM      9  C   LIG    1       -0.754   1.594  -1.236  0.00  0.00    +0.140 C 
ATOM     10  C   LIG    1       -2.217   1.274  -1.078  0.00  0.00    +0.010 A 
ATOM     11  N   LIG    1       -3.175   1.252  -1.999  0.00  0.00    -0.250 NA
ATOM     12  N   LIG    1       -4.286   0.925  -1.431  0.00  0.00    -0.070 NA
ATOM     13  N   LIG    1       -4.102   0.730  -0.168  0.00  0.00    -0.380 N 
ATOM     14  H   LIG    1       -4.782   0.475   0.475  0.00  0.00    +0.450 HD
ATOM     15  C   LIG    1       -2.802   0.943   0.099  0.00  0.00    -0.030 A 
ENDBRANCH   4   6
BRANCH   1  16
ATOM     16  C   LIG    1       -4.733   1.754   5.559  0.00  0.00    -0.020 C 
ATOM     17  C   LIG    1       -6.260   1.848   5.547  0.00  0.00    +0.080 C 
ATOM     18  C   LIG    1       -5.428   2.991   6.132  0.00  0.00    +0.080 C 
BRANCH  16  23
ATOM     19  C   LIG    1       -2.883  -1.219   6.969  0.00  0.00    -0.180 A 
ATOM     20  C   LIG    1       -2.944  -0.964   8.326  0.00  0.00    +0.070 A 
ATOM     21  C   LIG    1       -3.584   0.171   8.788  0.00  0.00    +0.020 A 
ATOM     22  C   LIG    1       -4.162   1.051   7.892  0.00  0.00    +0.060 A 
ATOM     23  C   LIG    1       -4.102   0.795   6.535  0.00  0.00    -0.050 A 
ATOM     24  C   LIG    1       -3.467  -0.343   6.074  0.00  0.00    +0.110 A 
BRANCH  19  26
ATOM     25  F   LIG    1       -1.683  -3.183   7.551  0.00  0.00    -0.180 F 
ATOM     26  C   LIG    1       -2.185  -2.457   6.466  0.00  0.00    +0.510 C 
ATOM     27  F   LIG    1       -1.131  -2.087   5.624  0.00  0.00    -0.170 F 
ATOM     28  F   LIG    1       -3.094  -3.248   5.755  0.00  0.00    -0.180 F 
ENDBRANCH  19  26
ENDBRANCH  16  23
ENDBRANCH   1  16
TORSDOF 4
