REMARK  Name = ZINCrg00001JduSy.0
REMARK                            x       y       z     vdW  Elec       q    Type
REMARK                         _______ _______ _______ _____ _____    ______ ____
ROOT
ATOM      1  C   LIG    1       -0.401   2.738   0.512  0.00  0.00    +0.230 C 
ATOM      2  C   LIG    1       -0.995   2.714   1.922  0.00  0.00    +0.030 C 
ENDROOT
BRANCH   1   4
ATOM      3  C   LIG    1        1.090   4.665   0.504  0.00  0.00    +0.520 C 
ATOM      4  N   LIG    1        0.940   3.327   0.557  0.00  0.00    -0.720 N 
ATOM      5  H   LIG    1        1.719   2.754   0.626  0.00  0.00    +0.410 HD
ATOM      6  O   LIG    1        0.122   5.378   0.343  0.00  0.00    -0.520 OA
BRANCH   3   7
ATOM      7  C   LIG    1        2.461   5.276   0.644  0.00  0.00    +0.250 C 
BRANCH   7   8
ATOM      8  C   LIG    1        2.968   5.069   2.072  0.00  0.00    +0.000 C 
ATOM      9  C   LIG    1        1.971   5.676   3.061  0.00  0.00    +0.030 C 
BRANCH   8  11
ATOM     10  C   LIG    1        3.703   3.366   3.747  0.00  0.00    +0.030 C 
ATOM     11  C   LIG    1        3.114   3.571   2.350  0.00  0.00    +0.000 C 
ENDBRANCH   8  11
ENDBRANCH   7   8
BRANCH   7  12
ATOM     12  N   LIG    1        2.389   6.710   0.354  0.00  0.00    -1.100 NA
ATOM     13  H   LIG    1        1.607   7.219   0.618  0.00  0.00    +0.430 HD
BRANCH  12  14
ATOM     14  S   LIG    1        3.643   7.461  -0.424  0.00  0.00    +2.610 S 
ATOM     15  O   LIG    1        4.794   7.079   0.316  0.00  0.00    -0.950 OA
ATOM     16  O   LIG    1        3.241   8.822  -0.503  0.00  0.00    -0.950 OA
ATOM     17  C   LIG    1        3.668   6.708  -2.074  0.00  0.00    -0.290 C 
ENDBRANCH  12  14
ENDBRANCH   7  12
ENDBRANCH   3   7
ENDBRANCH   1   4
BRANCH   1  18
ATOM     18  C   LIG    1       -0.313   1.310  -0.028  0.00  0.00    +0.240 C 
ATOM     19  C   LIG    1        0.281   1.334  -1.438  0.00  0.00    +0.030 C 
BRANCH  18  20
ATOM     20  N   LIG    1       -1.654   0.721  -0.073  0.00  0.00    -0.720 N 
ATOM     21  H   LIG    1       -2.433   1.294  -0.142  0.00  0.00    +0.400 HD
ATOM     22  C   LIG    1       -1.804  -0.617  -0.020  0.00  0.00    +0.590 C 
ATOM     23  O   LIG    1       -0.827  -1.336   0.066  0.00  0.00    -0.490 OA
BRANCH  22  24
ATOM     24  C   LIG    1       -3.150  -1.208  -0.065  0.00  0.00    -0.010 A 
ATOM     25  C   LIG    1       -3.469  -2.556  -0.026  0.00  0.00    -0.130 A 
ATOM     26  C   LIG    1       -4.864  -2.608  -0.093  0.00  0.00    +0.060 A 
ATOM     27  N   LIG    1       -5.308  -1.380  -0.174  0.00  0.00    -0.250 NA
ATOM     28  C   LIG    1       -5.706  -3.857  -0.082  0.00  0.00    +0.160 C 
ATOM     29 BR   LIG    1       -2.271  -4.014   0.097  0.00  0.00    +0.020 Br
ATOM     30  N   LIG    1       -4.338  -0.538  -0.160  0.00  0.00    -0.370 N 
ATOM     31  H   LIG    1       -4.434   0.426  -0.210  0.00  0.00    +0.450 HD
ENDBRANCH  22  24
ENDBRANCH  18  20
ENDBRANCH   1  18
TORSDOF 9
