REMARK  Name = ZINCc70000002kIq.0
REMARK                            x       y       z     vdW  Elec       q    Type
REMARK                         _______ _______ _______ _____ _____    ______ ____
ROOT
ATOM      1  C   LIG    1        0.989   4.435  -0.717  0.00  0.00    +0.200 C 
ATOM      2  C   LIG    1        1.818   3.246  -0.306  0.00  0.00    +0.180 A 
ATOM      3  N   LIG    1        3.120   3.213  -0.178  0.00  0.00    -0.300 NA
ATOM      4  N   LIG    1        3.492   2.035   0.190  0.00  0.00    -0.290 NA
ATOM      5  C   LIG    1        2.449   1.271   0.312  0.00  0.00    +0.180 A 
ATOM      6  C   LIG    1        2.391  -0.179   0.721  0.00  0.00    +0.170 C 
ATOM      7  C   LIG    1        0.941  -0.511   1.101  0.00  0.00    +0.050 C 
ATOM      8  C   LIG    1        0.002  -0.004   0.002  0.00  0.00    -0.010 C 
ATOM      9  C   LIG    1       -0.019   1.529   0.010  0.00  0.00    +0.300 C 
ATOM     10  N   LIG    1        1.360   2.017  -0.000  0.00  0.00    -0.470 N 
ENDROOT
BRANCH   8  11
ATOM     11  C   LIG    1       -1.411  -0.534   0.255  0.00  0.00    +0.190 C 
BRANCH  11  12
ATOM     12  O   LIG    1       -1.414  -1.958   0.132  0.00  0.00    -0.570 OA
ATOM     13  H   LIG    1       -2.280  -2.363   0.280  0.00  0.00    +0.390 HD
ENDBRANCH  11  12
ENDBRANCH   8  11
TORSDOF 2
