REMARK  Name = ZINCpk00000y6wag.1
REMARK                            x       y       z     vdW  Elec       q    Type
REMARK                         _______ _______ _______ _____ _____    ______ ____
ROOT
ATOM      1  C   LIG    1       -4.711   3.688  -0.889  0.00  0.00    +0.290 C 
ATOM      2  C   LIG    1       -3.682   3.206   0.147  0.00  0.00    +0.280 C 
ATOM      3  N   LIG    1       -3.669   1.735   0.130  0.00  0.00    -0.610 N 
ATOM      4  C   LIG    1       -4.956   1.030   0.244  0.00  0.00    +0.280 C 
ATOM      5  C   LIG    1       -5.923   1.618  -0.790  0.00  0.00    +0.150 C 
ATOM      6  C   LIG    1       -7.322   1.042  -0.568  0.00  0.00    +0.080 C 
ATOM      7  C   LIG    1       -2.512   1.052   0.019  0.00  0.00    +0.570 C 
ATOM      8  O   LIG    1       -2.529  -0.158  -0.094  0.00  0.00    -0.520 OA
ATOM      9  O   LIG    1       -5.962   3.040  -0.644  0.00  0.00    -0.360 OA
ENDROOT
BRANCH   1  14
ATOM     10  C   LIG    1       -4.529   8.632  -1.660  0.00  0.00    +0.200 C 
ATOM     11  C   LIG    1       -4.816   7.271  -1.080  0.00  0.00    +0.170 A 
ATOM     12  N   LIG    1       -5.494   7.023   0.000  0.00  0.00    -0.380 NA
ATOM     13  O   LIG    1       -5.546   5.828   0.198  0.00  0.00    +0.100 OA
ATOM     14  C   LIG    1       -4.885   5.180  -0.766  0.00  0.00    +0.180 A 
ATOM     15  N   LIG    1       -4.412   6.091  -1.582  0.00  0.00    -0.460 NA
ENDBRANCH   1  14
BRANCH   7  16
ATOM     16  C   LIG    1       -1.223   1.776   0.036  0.00  0.00    -0.190 A 
ATOM     17  C   LIG    1       -0.167   1.367  -0.787  0.00  0.00    +0.130 A 
ATOM     18  C   LIG    1        1.017   2.082  -0.738  0.00  0.00    +0.000 A 
ATOM     19  C   LIG    1        1.120   3.163   0.119  0.00  0.00    +0.160 A 
ATOM     20  N   LIG    1        0.110   3.522   0.887  0.00  0.00    -0.480 NA
ATOM     21  C   LIG    1       -1.036   2.874   0.877  0.00  0.00    +0.290 A 
BRANCH  19  22
ATOM     22  C   LIG    1        2.408   3.943   0.175  0.00  0.00    +0.260 C 
BRANCH  22  23
ATOM     23  N   LIG    1        2.316   5.105  -0.721  0.00  0.00    -0.540 NA
ATOM     24  C   LIG    1        3.624   5.755  -0.876  0.00  0.00    +0.190 C 
ATOM     25  C   LIG    1        1.308   6.059  -0.242  0.00  0.00    +0.190 C 
ENDBRANCH  22  23
ENDBRANCH  19  22
ENDBRANCH   7  16
TORSDOF 4
