REMARK  Name = ZINCpe000000SUK4.0
REMARK                            x       y       z     vdW  Elec       q    Type
REMARK                         _______ _______ _______ _____ _____    ______ ____
ROOT
ATOM      1  C   LIG    1        5.748   8.166   2.209  0.00  0.00    +0.240 C 
ATOM      2  C   LIG    1        5.287   7.388   1.011  0.00  0.00    +0.510 C 
ATOM      3  N   LIG    1        6.089   6.576   0.320  0.00  0.00    -0.720 N 
ATOM      4  H   LIG    1        5.728   6.158  -0.477  0.00  0.00    +0.400 HD
ATOM      5  C   LIG    1        7.468   6.275   0.678  0.00  0.00    +0.250 C 
ATOM      6  C   LIG    1        8.046   7.368   1.579  0.00  0.00    +0.290 C 
ATOM      7  O   LIG    1        4.133   7.499   0.658  0.00  0.00    -0.520 OA
ATOM      8  N   LIG    1        7.062   7.661   2.635  0.00  0.00    -0.620 N 
ATOM      9  C   LIG    1        7.352   7.470   3.937  0.00  0.00    +0.620 C 
ATOM     10  O   LIG    1        6.456   7.426   4.759  0.00  0.00    -0.510 OA
ENDROOT
BRANCH   9  11
ATOM     11  C   LIG    1        8.748   7.315   4.363  0.00  0.00    -0.370 A 
ATOM     12  C   LIG    1        9.528   8.271   5.009  0.00  0.00    +0.440 A 
ATOM     13  N   LIG    1       10.744   7.716   5.216  0.00  0.00    -0.340 N 
ATOM     14  N   LIG    1       10.732   6.417   4.698  0.00  0.00    -0.290 NA
ATOM     15  C   LIG    1        9.556   6.165   4.196  0.00  0.00    +0.330 A 
BRANCH  13  16
ATOM     16  C   LIG    1       11.830   8.338   5.837  0.00  0.00    +0.370 A 
ATOM     17  C   LIG    1       12.807   7.564   6.451  0.00  0.00    -0.010 A 
ATOM     18  C   LIG    1       13.878   8.193   7.063  0.00  0.00    +0.100 A 
ATOM     19  C   LIG    1       13.934   9.579   7.038  0.00  0.00    -0.030 A 
ATOM     20  C   LIG    1       12.927  10.285   6.409  0.00  0.00    +0.300 A 
ATOM     21  N   LIG    1       11.919   9.659   5.835  0.00  0.00    -0.520 NA
ENDBRANCH  13  16
BRANCH  12  22
ATOM     22  N   LIG    1        9.135   9.543   5.369  0.00  0.00    -0.820 N 
ATOM     23  H   LIG    1        8.234   9.846   5.174  0.00  0.00    +0.420 HD
ATOM     24  H   LIG    1        9.759  10.135   5.817  0.00  0.00    +0.420 HD
ENDBRANCH  12  22
ENDBRANCH   9  11
BRANCH   1  25
ATOM     25  C   LIG    1        4.740   7.996   3.348  0.00  0.00    +0.080 C 
BRANCH  25  27
ATOM     26  C   LIG    1        2.603   7.027   2.490  0.00  0.00    +0.020 C 
ATOM     27  C   LIG    1        3.335   8.324   2.840  0.00  0.00    -0.020 C 
ATOM     28  C   LIG    1        2.560   9.069   3.928  0.00  0.00    +0.000 C 
ENDBRANCH  25  27
ENDBRANCH   1  25
TORSDOF 5
