REMARK  Name = ZINCqH0000002apA.0
REMARK                            x       y       z     vdW  Elec       q    Type
REMARK                         _______ _______ _______ _____ _____    ______ ____
ROOT
ATOM      1  N   LIG    1       -2.964   6.848   3.607  0.00  0.00    -0.740 N 
ATOM      2  H   LIG    1       -3.353   7.011   4.481  0.00  0.00    +0.400 HD
ENDROOT
BRANCH   1   7
ATOM      3  C   LIG    1       -2.069   4.002   1.455  0.00  0.00    +0.190 A 
ATOM      4  C   LIG    1       -2.463   2.937   2.255  0.00  0.00    -0.040 A 
ATOM      5  C   LIG    1       -3.012   3.173   3.501  0.00  0.00    +0.080 A 
ATOM      6  C   LIG    1       -3.180   4.468   3.951  0.00  0.00    -0.170 A 
ATOM      7  C   LIG    1       -2.793   5.538   3.153  0.00  0.00    +0.230 A 
ATOM      8  C   LIG    1       -3.785   4.722   5.308  0.00  0.00    +0.080 C 
ATOM      9  C   LIG    1       -2.236   5.304   1.903  0.00  0.00    -0.100 A 
BRANCH   3  11
ATOM     10  C   LIG    1       -0.726   2.681   0.001  0.00  0.00    +0.510 C 
ATOM     11  N   LIG    1       -1.508   3.761   0.196  0.00  0.00    -0.680 N 
ATOM     12  H   LIG    1       -1.683   4.372  -0.538  0.00  0.00    +0.410 HD
ATOM     13  O   LIG    1       -0.433   1.968   0.938  0.00  0.00    -0.510 OA
BRANCH  10  15
ATOM     14  C   LIG    1        0.641   1.093  -1.324  0.00  0.00    +0.040 C 
ATOM     15  C   LIG    1       -0.216   2.358  -1.379  0.00  0.00    +0.060 C 
ENDBRANCH  10  15
ENDBRANCH   3  11
ENDBRANCH   1   7
BRANCH   1  16
ATOM     16  C   LIG    1       -2.556   7.975   2.765  0.00  0.00    +0.400 C 
BRANCH  16  17
ATOM     17  C   LIG    1       -2.845   9.268   3.482  0.00  0.00    +0.160 A 
ATOM     18  N   LIG    1       -2.033   9.907   4.282  0.00  0.00    -0.260 NA
ATOM     19  N   LIG    1       -2.598  10.975   4.722  0.00  0.00    -0.270 NA
ATOM     20  C   LIG    1       -3.809  11.075   4.222  0.00  0.00    +0.230 A 
ATOM     21  N   LIG    1       -3.998   9.988   3.411  0.00  0.00    -0.470 N 
ATOM     22  C   LIG    1       -5.194   9.665   2.630  0.00  0.00    +0.350 C 
BRANCH  20  23
ATOM     23  C   LIG    1       -4.782  12.159   4.481  0.00  0.00    -0.020 A 
ATOM     24  C   LIG    1       -4.352  13.372   5.019  0.00  0.00    +0.070 A 
ATOM     25  C   LIG    1       -5.263  14.381   5.254  0.00  0.00    +0.010 A 
ATOM     26  C   LIG    1       -6.603  14.187   4.968  0.00  0.00    +0.030 A 
ATOM     27  C   LIG    1       -7.037  12.984   4.439  0.00  0.00    +0.010 A 
ATOM     28  C   LIG    1       -6.134  11.970   4.195  0.00  0.00    +0.020 A 
ENDBRANCH  20  23
ENDBRANCH  16  17
ENDBRANCH   1  16
TORSDOF 6
