REMARK  Name = ZINCrD000000CaTc.0
REMARK                            x       y       z     vdW  Elec       q    Type
REMARK                         _______ _______ _______ _____ _____    ______ ____
ROOT
ATOM      1  O   LIG    1       -1.234   2.521   6.025  0.00  0.00    -0.570 OA
ATOM      2  C   LIG    1       -1.911   2.840   5.067  0.00  0.00    +0.710 C 
ATOM      3  N   LIG    1       -2.992   3.626   5.238  0.00  0.00    -0.620 N 
ATOM      4  C   LIG    1       -3.766   4.097   4.080  0.00  0.00    +0.270 C 
ATOM      5  C   LIG    1       -5.240   3.724   4.294  0.00  0.00    +0.020 C 
ATOM      6  C   LIG    1       -5.713   4.286   5.637  0.00  0.00    +0.030 C 
ATOM      7  C   LIG    1       -4.891   3.667   6.769  0.00  0.00    +0.020 C 
ATOM      8  C   LIG    1       -3.416   4.035   6.584  0.00  0.00    +0.300 C 
ATOM      9  N   LIG    1       -1.581   2.406   3.834  0.00  0.00    -0.670 N 
ATOM     10  H   LIG    1       -2.085   2.709   3.063  0.00  0.00    +0.410 HD
ENDROOT
BRANCH   6  11
ATOM     11  C   LIG    1       -7.170   3.954   5.835  0.00  0.00    -0.080 A 
ATOM     12  C   LIG    1       -7.582   2.635   5.858  0.00  0.00    +0.010 A 
ATOM     13  C   LIG    1       -8.917   2.331   6.044  0.00  0.00    +0.000 A 
ATOM     14  C   LIG    1       -9.843   3.346   6.197  0.00  0.00    +0.000 A 
ATOM     15  C   LIG    1       -9.432   4.666   6.169  0.00  0.00    +0.000 A 
ATOM     16  C   LIG    1       -8.095   4.970   5.988  0.00  0.00    +0.000 A 
ENDBRANCH   6  11
BRANCH   9  17
ATOM     17  C   LIG    1       -0.509   1.518   3.668  0.00  0.00    +0.130 A 
ATOM     18  C   LIG    1        0.002   0.819   4.752  0.00  0.00    +0.090 A 
ATOM     19  C   LIG    1        1.068  -0.046   4.539  0.00  0.00    -0.020 A 
ATOM     20  C   LIG    1        1.580  -0.189   3.266  0.00  0.00    +0.250 A 
ATOM     21  N   LIG    1        1.071   0.484   2.249  0.00  0.00    -0.490 NA
ATOM     22  C   LIG    1        0.057   1.318   2.406  0.00  0.00    +0.260 A 
BRANCH  22  23
ATOM     23  N   LIG    1       -0.447   2.007   1.306  0.00  0.00    -0.480 N 
ATOM     24  C   LIG    1       -0.059   1.349   0.050  0.00  0.00    +0.190 C 
ATOM     25  C   LIG    1       -0.682   2.102  -1.129  0.00  0.00    +0.220 C 
ATOM     26  O   LIG    1       -0.269   3.471  -1.085  0.00  0.00    -0.380 OA
ATOM     27  C   LIG    1       -0.631   4.143   0.125  0.00  0.00    +0.230 C 
ATOM     28  C   LIG    1       -0.009   3.410   1.316  0.00  0.00    +0.170 C 
ENDBRANCH  22  23
ENDBRANCH   9  17
TORSDOF 3
