REMARK  Name = ZINCkj00000GePfd.0
REMARK                            x       y       z     vdW  Elec       q    Type
REMARK                         _______ _______ _______ _____ _____    ______ ____
ROOT
ATOM      1  C   LIG    1       -0.875   1.544   3.379  0.00  0.00    -0.020 C 
ATOM      2  C   LIG    1       -0.799   3.073   3.361  0.00  0.00    +0.070 C 
ATOM      3  C   LIG    1       -1.644   3.634   4.507  0.00  0.00    +0.220 C 
ATOM      4  N   LIG    1       -1.146   3.115   5.787  0.00  0.00    -0.460 N 
ATOM      5  C   LIG    1       -1.254   1.652   5.844  0.00  0.00    +0.230 C 
ATOM      6  C   LIG    1       -0.395   1.031   4.740  0.00  0.00    +0.030 C 
ENDROOT
BRANCH   4   7
ATOM      7  C   LIG    1       -1.805   3.704   6.851  0.00  0.00    +0.480 A 
ATOM      8  N   LIG    1       -2.421   2.933   7.736  0.00  0.00    -0.550 NA
ATOM      9  C   LIG    1       -3.056   3.463   8.768  0.00  0.00    +0.340 A 
ATOM     10  C   LIG    1       -3.081   4.842   8.911  0.00  0.00    -0.100 A 
ATOM     11  C   LIG    1       -2.432   5.618   7.964  0.00  0.00    +0.360 A 
ATOM     12  N   LIG    1       -1.811   5.024   6.959  0.00  0.00    -0.530 NA
ENDBRANCH   4   7
BRANCH   1  13
ATOM     13  C   LIG    1        0.019   0.975   2.275  0.00  0.00    +0.260 C 
BRANCH  13  14
ATOM     14  N   LIG    1       -0.110  -0.488   2.246  0.00  0.00    -0.390 N 
ATOM     15  C   LIG    1       -1.475  -0.852   1.842  0.00  0.00    +0.300 C 
ATOM     16  H   LIG    1        0.079  -0.861   3.164  0.00  0.00    +0.420 HD
BRANCH  14  17
ATOM     17  C   LIG    1        0.850  -1.046   1.284  0.00  0.00    +0.260 C 
BRANCH  17  18
ATOM     18  C   LIG    1        0.803  -2.574   1.344  0.00  0.00    +0.010 C 
BRANCH  18  20
ATOM     19  C   LIG    1        1.847  -4.676   0.489  0.00  0.00    +0.020 C 
ATOM     20  C   LIG    1        1.803  -3.154   0.342  0.00  0.00    +0.220 C 
BRANCH  20  21
ATOM     21  O   LIG    1        1.397  -2.816  -0.986  0.00  0.00    -0.560 OA
ATOM     22  H   LIG    1        0.523  -3.151  -1.228  0.00  0.00    +0.380 HD
ENDBRANCH  20  21
ENDBRANCH  18  20
ENDBRANCH  17  18
ENDBRANCH  14  17
ENDBRANCH  13  14
ENDBRANCH   1  13
TORSDOF 7
