REMARK  Name = ZINCkj00000GePfd.1
REMARK                            x       y       z     vdW  Elec       q    Type
REMARK                         _______ _______ _______ _____ _____    ______ ____
ROOT
ATOM      1  C   LIG    1        0.273   1.176   0.052  0.00  0.00    -0.020 C 
ATOM      2  C   LIG    1       -0.252   1.803  -1.242  0.00  0.00    +0.070 C 
ATOM      3  C   LIG    1        0.693   1.453  -2.393  0.00  0.00    +0.220 C 
ATOM      4  N   LIG    1        2.039   1.958  -2.095  0.00  0.00    -0.460 N 
ATOM      5  C   LIG    1        2.583   1.335  -0.882  0.00  0.00    +0.230 C 
ATOM      6  C   LIG    1        1.695   1.682   0.315  0.00  0.00    +0.030 C 
ENDROOT
BRANCH   4   7
ATOM      7  C   LIG    1        2.889   1.773  -3.172  0.00  0.00    +0.480 A 
ATOM      8  N   LIG    1        4.020   1.106  -2.996  0.00  0.00    -0.550 NA
ATOM      9  C   LIG    1        4.851   0.907  -4.005  0.00  0.00    +0.340 A 
ATOM     10  C   LIG    1        4.532   1.416  -5.255  0.00  0.00    -0.100 A 
ATOM     11  C   LIG    1        3.343   2.114  -5.402  0.00  0.00    +0.360 A 
ATOM     12  N   LIG    1        2.554   2.272  -4.353  0.00  0.00    -0.530 NA
ENDBRANCH   4   7
BRANCH   1  13
ATOM     13  C   LIG    1       -0.634   1.572   1.219  0.00  0.00    +0.260 C 
BRANCH  13  14
ATOM     14  N   LIG    1       -0.172   0.908   2.445  0.00  0.00    -0.390 N 
ATOM     15  C   LIG    1       -0.356  -0.543   2.315  0.00  0.00    +0.300 C 
ATOM     16  H   LIG    1        0.805   1.112   2.590  0.00  0.00    +0.420 HD
BRANCH  14  17
ATOM     17  C   LIG    1       -0.950   1.400   3.591  0.00  0.00    +0.260 C 
BRANCH  17  18
ATOM     18  C   LIG    1       -0.388   0.803   4.882  0.00  0.00    +0.050 C 
BRANCH  18  20
ATOM     19  C   LIG    1       -0.717   0.624   7.353  0.00  0.00    +0.020 C 
ATOM     20  C   LIG    1       -1.198   1.315   6.075  0.00  0.00    +0.180 C 
BRANCH  20  21
ATOM     21  O   LIG    1       -1.018   2.727   6.202  0.00  0.00    -0.570 OA
ATOM     22  H   LIG    1       -1.504   3.121   6.939  0.00  0.00    +0.400 HD
ENDBRANCH  20  21
ENDBRANCH  18  20
ENDBRANCH  17  18
ENDBRANCH  14  17
ENDBRANCH  13  14
ENDBRANCH   1  13
TORSDOF 7
