REMARK  Name = ZINCtV00001bB3vs.0
REMARK                            x       y       z     vdW  Elec       q    Type
REMARK                         _______ _______ _______ _____ _____    ______ ____
ROOT
ATOM      1  C   LIG    1        1.179   1.800  -0.191  0.00  0.00    -0.060 A 
ATOM      2  C   LIG    1       -0.021   1.083  -0.178  0.00  0.00    +0.050 A 
ATOM      3  C   LIG    1       -1.219   1.753   0.012  0.00  0.00    +0.140 A 
ATOM      4  C   LIG    1       -1.224   3.130   0.200  0.00  0.00    +0.000 A 
ATOM      5  C   LIG    1       -0.037   3.840   0.188  0.00  0.00    +0.030 A 
ATOM      6  C   LIG    1        1.161   3.187  -0.005  0.00  0.00    +0.020 A 
ENDROOT
BRANCH   3   7
ATOM      7  N   LIG    1       -2.424   1.042   0.020  0.00  0.00    -0.670 N 
ATOM      8  H   LIG    1       -3.232   1.452  -0.326  0.00  0.00    +0.410 HD
ATOM      9  C   LIG    1       -2.461  -0.215   0.507  0.00  0.00    +0.560 C 
ATOM     10  O   LIG    1       -1.473  -0.695   1.027  0.00  0.00    -0.510 OA
BRANCH   9  11
ATOM     11  C   LIG    1       -3.704  -1.008   0.409  0.00  0.00    -0.140 A 
ATOM     12  C   LIG    1       -4.842  -0.457  -0.183  0.00  0.00    +0.070 A 
ATOM     13  C   LIG    1       -5.997  -1.204  -0.276  0.00  0.00    +0.020 A 
ATOM     14  C   LIG    1       -6.033  -2.495   0.225  0.00  0.00    -0.010 A 
ATOM     15  C   LIG    1       -4.909  -3.045   0.818  0.00  0.00    +0.020 A 
ATOM     16 CL   LIG    1       -7.494  -3.427   0.111  0.00  0.00    -0.060 Cl
ATOM     17  C   LIG    1       -3.746  -2.309   0.912  0.00  0.00    +0.110 A 
ENDBRANCH   9  11
ENDBRANCH   3   7
BRANCH   1  19
ATOM     18  C   LIG    1        3.614   1.793  -0.408  0.00  0.00    -0.090 C 
ATOM     19  C   LIG    1        2.456   1.098  -0.397  0.00  0.00    +0.140 C 
BRANCH  18  21
ATOM     20  O   LIG    1        4.897  -0.113  -0.774  0.00  0.00    -0.440 OA
ATOM     21  C   LIG    1        4.884   1.095  -0.613  0.00  0.00    +0.470 C 
BRANCH  21  22
ATOM     22  C   LIG    1        6.144   1.852  -0.626  0.00  0.00    -0.050 A 
ATOM     23  C   LIG    1        7.379   1.312  -0.807  0.00  0.00    +0.060 A 
ATOM     24  C   LIG    1        8.322   2.428  -0.744  0.00  0.00    -0.150 A 
ATOM     25  C   LIG    1        9.710   2.537  -0.854  0.00  0.00    +0.070 A 
ATOM     26  C   LIG    1       10.303   3.763  -0.745  0.00  0.00    -0.010 A 
ATOM     27  C   LIG    1        9.536   4.899  -0.526  0.00  0.00    +0.060 A 
ATOM     28  C   LIG    1        8.165   4.813  -0.416  0.00  0.00    +0.030 A 
ATOM     29  C   LIG    1        7.539   3.577  -0.523  0.00  0.00    +0.070 A 
ATOM     30  O   LIG    1        6.250   3.187  -0.465  0.00  0.00    -0.180 OA
ENDBRANCH  21  22
ENDBRANCH  18  21
ENDBRANCH   1  19
TORSDOF 5
