REMARK  Name = ZINCqH00000069Gu.0
REMARK                            x       y       z     vdW  Elec       q    Type
REMARK                         _______ _______ _______ _____ _____    ______ ____
ROOT
ATOM      1  N   LIG    1        4.585   1.281   0.578  0.00  0.00    -0.730 N 
ATOM      2  H   LIG    1        4.342   2.195   0.792  0.00  0.00    +0.400 HD
ATOM      3  C   LIG    1        5.875   0.962   0.353  0.00  0.00    +0.560 C 
ATOM      4  O   LIG    1        6.180  -0.184   0.085  0.00  0.00    -0.510 OA
ENDROOT
BRANCH   3   5
ATOM      5  C   LIG    1        6.917   2.003   0.432  0.00  0.00    -0.200 A 
ATOM      6  C   LIG    1        6.580   3.326   0.740  0.00  0.00    +0.140 A 
ATOM      7  C   LIG    1        7.595   4.265   0.801  0.00  0.00    -0.060 A 
ATOM      8  C   LIG    1        8.899   3.874   0.560  0.00  0.00    +0.340 A 
ATOM      9  N   LIG    1        9.194   2.621   0.272  0.00  0.00    -0.540 NA
ATOM     10  C   LIG    1        8.265   1.684   0.206  0.00  0.00    +0.370 A 
BRANCH  10  11
ATOM     11  O   LIG    1        8.614   0.409  -0.087  0.00  0.00    -0.250 OA
BRANCH  11  12
ATOM     12  C   LIG    1       10.002   0.151  -0.307  0.00  0.00    +0.170 C 
ATOM     13  C   LIG    1       10.668  -0.218   1.021  0.00  0.00    +0.080 C 
BRANCH  12  14
ATOM     14  C   LIG    1       10.156  -1.008  -1.294  0.00  0.00    +0.460 C 
ATOM     15  F   LIG    1        9.546  -2.152  -0.768  0.00  0.00    -0.170 F 
ATOM     16  F   LIG    1       11.515  -1.261  -1.508  0.00  0.00    -0.170 F 
ATOM     17  F   LIG    1        9.547  -0.671  -2.507  0.00  0.00    -0.180 F 
ENDBRANCH  12  14
ENDBRANCH  11  12
ENDBRANCH  10  11
ENDBRANCH   3   5
BRANCH   1  18
ATOM     18  C   LIG    1        3.550   0.247   0.500  0.00  0.00    +0.270 C 
BRANCH  18  19
ATOM     19  C   LIG    1        2.203   0.841   0.917  0.00  0.00    -0.070 C 
ATOM     20  C   LIG    1        1.777   1.939  -0.079  0.00  0.00    +0.020 C 
ATOM     21  C   LIG    1        0.242   1.772  -0.195  0.00  0.00    +0.020 C 
ATOM     22  C   LIG    1        0.061   0.234  -0.154  0.00  0.00    +0.020 C 
ATOM     23  C   LIG    1        1.112  -0.243   0.869  0.00  0.00    +0.020 C 
BRANCH  19  24
ATOM     24  C   LIG    1        2.302   1.423   2.328  0.00  0.00    +0.050 C 
BRANCH  24  25
ATOM     25  C   LIG    1        2.767   0.334   3.298  0.00  0.00    +0.160 C 
BRANCH  25  27
ATOM     26  C   LIG    1        3.187  -0.091   5.619  0.00  0.00    +0.200 C 
ATOM     27  O   LIG    1        2.766   0.851   4.630  0.00  0.00    -0.390 OA
ENDBRANCH  25  27
ENDBRANCH  24  25
ENDBRANCH  19  24
ENDBRANCH  18  19
ENDBRANCH   1  18
TORSDOF 9
