REMARK  Name = ZINCtj00001yywtK.1
REMARK                            x       y       z     vdW  Elec       q    Type
REMARK                         _______ _______ _______ _____ _____    ______ ____
ROOT
ATOM      1  N   LIG    1       -0.065   4.112  -3.296  0.00  0.00    -0.480 NA
ATOM      2  C   LIG    1       -1.385   3.844  -2.693  0.00  0.00    +0.230 C 
ATOM      3  C   LIG    1       -1.129   3.282  -1.270  0.00  0.00    +0.030 C 
ATOM      4  C   LIG    1       -1.079   1.740  -1.409  0.00  0.00    +0.160 C 
ATOM      5  C   LIG    1       -0.275   1.139  -0.255  0.00  0.00    +0.160 C 
ATOM      6  C   LIG    1       -0.801   1.679   1.091  0.00  0.00    +0.060 C 
ATOM      7  C   LIG    1        0.068   2.930   1.353  0.00  0.00    -0.020 C 
ATOM      8  C   LIG    1        0.981   3.006   0.105  0.00  0.00    +0.220 C 
ATOM      9  O   LIG    1        1.075   1.643  -0.360  0.00  0.00    -0.350 OA
ATOM     10  C   LIG    1        0.274   3.843  -0.949  0.00  0.00    -0.010 C 
ATOM     11  C   LIG    1        0.984   3.754  -2.314  0.00  0.00    +0.250 C 
ENDROOT
BRANCH   1  14
ATOM     12  C   LIG    1        0.914   3.217  -6.707  0.00  0.00    +0.220 C 
ATOM     13  C   LIG    1        0.781   3.964  -5.554  0.00  0.00    +0.030 C 
ATOM     14  C   LIG    1        0.095   3.402  -4.475  0.00  0.00    +0.430 C 
ATOM     15  N   LIG    1       -0.397   2.173  -4.595  0.00  0.00    -0.510 NA
ATOM     16  C   LIG    1       -0.251   1.497  -5.717  0.00  0.00    +0.410 C 
ATOM     17  C   LIG    1       -0.829   0.109  -5.817  0.00  0.00    +0.240 C 
ATOM     18  N   LIG    1        0.391   1.999  -6.753  0.00  0.00    -0.510 NA
ATOM     19  H   LIG    1        0.482   1.470  -7.560  0.00  0.00    +0.450 HD
BRANCH  12  21
ATOM     20  C   LIG    1        3.146   3.525  -7.742  0.00  0.00    +0.060 C 
ATOM     21  C   LIG    1        1.645   3.777  -7.899  0.00  0.00    +0.130 C 
ENDBRANCH  12  21
ENDBRANCH   1  14
BRANCH   7  22
ATOM     22  C   LIG    1       -0.791   4.164   1.457  0.00  0.00    +0.530 C 
ATOM     23  N   LIG    1       -0.216   5.381   1.536  0.00  0.00    -0.720 N 
ATOM     24  H   LIG    1        0.750   5.462   1.526  0.00  0.00    +0.400 HD
ATOM     25  O   LIG    1       -2.000   4.063   1.469  0.00  0.00    -0.520 OA
BRANCH  23  26
ATOM     26  C   LIG    1       -1.051   6.580   1.637  0.00  0.00    +0.240 C 
ATOM     27  C   LIG    1       -1.398   7.135   0.236  0.00  0.00    +0.050 C 
ATOM     28  C   LIG    1       -1.364   8.637   0.399  0.00  0.00    -0.030 C 
ATOM     29  C   LIG    1       -0.743   8.978   1.495  0.00  0.00    -0.030 C 
ATOM     30  C   LIG    1       -0.258   7.760   2.246  0.00  0.00    +0.050 C 
ENDBRANCH  23  26
ENDBRANCH   7  22
BRANCH   4  31
ATOM     31  O   LIG    1       -2.412   1.226  -1.371  0.00  0.00    -0.550 OA
ATOM     32  H   LIG    1       -2.464   0.264  -1.454  0.00  0.00    +0.380 HD
ENDBRANCH   4  31
TORSDOF 5
