REMARK  Name = ZINCkj000005mkhM.0
REMARK                            x       y       z     vdW  Elec       q    Type
REMARK                         _______ _______ _______ _____ _____    ______ ____
ROOT
ATOM      1  N   LIG    1        0.008  -0.011  -2.447  0.00  0.00    -0.380 N 
ATOM      2  C   LIG    1       -1.330  -0.612  -2.496  0.00  0.00    +0.250 C 
ATOM      3  C   LIG    1       -2.105  -0.045  -3.688  0.00  0.00    +0.060 C 
ATOM      4  C   LIG    1       -1.351  -0.372  -4.980  0.00  0.00    -0.010 C 
ATOM      5  C   LIG    1        0.069   0.194  -4.888  0.00  0.00    +0.080 C 
ATOM      6  C   LIG    1        0.762  -0.380  -3.651  0.00  0.00    +0.270 C 
ATOM      7  H   LIG    1       -0.077   0.993  -2.399  0.00  0.00    +0.430 HD
ENDROOT
BRANCH   1   8
ATOM      8  C   LIG    1        0.718  -0.497  -1.257  0.00  0.00    +0.250 C 
BRANCH   8   9
ATOM      9  C   LIG    1        0.002  -0.004   0.002  0.00  0.00    +0.220 C 
BRANCH   9  10
ATOM     10  O   LIG    1       -0.017   1.425   0.010  0.00  0.00    -0.540 OA
ATOM     11  H   LIG    1        0.861   1.830   0.004  0.00  0.00    +0.390 HD
ENDBRANCH   9  10
BRANCH   9  12
ATOM     12  C   LIG    1        0.742  -0.511   1.242  0.00  0.00    +0.060 C 
BRANCH  12  13
ATOM     13  C   LIG    1       -0.042  -0.124   2.497  0.00  0.00    +0.460 C 
ATOM     14  F   LIG    1       -0.160   1.269   2.562  0.00  0.00    -0.170 F 
ATOM     15  F   LIG    1        0.635  -0.587   3.631  0.00  0.00    -0.170 F 
ATOM     16  F   LIG    1       -1.316  -0.699   2.447  0.00  0.00    -0.180 F 
ENDBRANCH  12  13
ENDBRANCH   9  12
ENDBRANCH   8   9
ENDBRANCH   1   8
BRANCH   4  17
ATOM     17  C   LIG    1       -2.076   0.257  -6.171  0.00  0.00    +0.340 C 
BRANCH  17  18
ATOM     18  N   LIG    1       -3.390  -0.372  -6.330  0.00  0.00    -0.300 N 
ATOM     19  C   LIG    1       -4.579   0.273  -6.366  0.00  0.00    +0.140 A 
ATOM     20  C   LIG    1       -5.522  -0.683  -6.525  0.00  0.00    +0.150 A 
ATOM     21  N   LIG    1       -4.874  -1.852  -6.578  0.00  0.00    -0.260 NA
ATOM     22  N   LIG    1       -3.611  -1.633  -6.465  0.00  0.00    -0.090 NA
ENDBRANCH  17  18
ENDBRANCH   4  17
TORSDOF 7
