REMARK  Name = ZINCpe000000Uue8.0
REMARK                            x       y       z     vdW  Elec       q    Type
REMARK                         _______ _______ _______ _____ _____    ______ ____
ROOT
ATOM      1  N   LIG    1       -7.270   3.481   3.763  0.00  0.00    -1.010 NA
ATOM      2  C   LIG    1       -7.323   2.040   4.046  0.00  0.00    +0.290 C 
ATOM      3  C   LIG    1       -5.930   1.575   4.488  0.00  0.00    +0.300 C 
ATOM      4  N   LIG    1       -4.941   2.071   3.520  0.00  0.00    -0.630 N 
ATOM      5  C   LIG    1       -4.884   3.513   3.241  0.00  0.00    +0.270 C 
ATOM      6  C   LIG    1       -4.097   1.219   2.904  0.00  0.00    +0.710 C 
ATOM      7  N   LIG    1       -3.124   1.696   2.103  0.00  0.00    -0.740 N 
ATOM      8  H   LIG    1       -3.075   2.646   1.912  0.00  0.00    +0.400 HD
ATOM      9  O   LIG    1       -4.215   0.021   3.071  0.00  0.00    -0.590 OA
ATOM     10  C   LIG    1       -6.281   3.976   2.795  0.00  0.00    +0.290 C 
ENDROOT
BRANCH   1  11
ATOM     11  S   LIG    1       -8.306   4.527   4.519  0.00  0.00    +2.780 S 
ATOM     12  O   LIG    1       -9.433   3.758   4.918  0.00  0.00    -0.970 OA
ATOM     13  O   LIG    1       -8.403   5.672   3.683  0.00  0.00    -0.970 OA
BRANCH  11  15
ATOM     14  C   LIG    1       -6.715   6.221   5.903  0.00  0.00    +0.290 C 
ATOM     15  N   LIG    1       -7.566   5.028   5.913  0.00  0.00    -1.010 NA
ATOM     16  C   LIG    1       -7.761   4.279   7.157  0.00  0.00    +0.300 C 
ENDBRANCH  11  15
ENDBRANCH   1  11
BRANCH   7  17
ATOM     17  C   LIG    1       -2.140   0.780   1.521  0.00  0.00    +0.330 C 
BRANCH  17  18
ATOM     18  C   LIG    1       -1.082   1.583   0.762  0.00  0.00    -0.110 C 
ATOM     19  C   LIG    1       -0.342   2.680   1.531  0.00  0.00    +0.030 C 
ATOM     20  C   LIG    1        0.381   1.383   1.164  0.00  0.00    +0.050 C 
BRANCH  18  21
ATOM     21  C   LIG    1       -1.375   1.832  -0.695  0.00  0.00    -0.050 A 
ATOM     22  C   LIG    1       -0.901   2.975  -1.310  0.00  0.00    +0.000 A 
ATOM     23  C   LIG    1       -1.166   3.201  -2.648  0.00  0.00    +0.000 A 
ATOM     24  C   LIG    1       -1.913   2.287  -3.368  0.00  0.00    +0.000 A 
ATOM     25  C   LIG    1       -2.391   1.146  -2.752  0.00  0.00    +0.010 A 
ATOM     26  C   LIG    1       -2.123   0.919  -1.415  0.00  0.00    +0.010 A 
ENDBRANCH  18  21
ENDBRANCH  17  18
ENDBRANCH   7  17
TORSDOF 5
