REMARK  Name = ZINCrH000004uEgn.0
REMARK                            x       y       z     vdW  Elec       q    Type
REMARK                         _______ _______ _______ _____ _____    ______ ____
ROOT
ATOM      1  O   LIG    1       -2.325  -0.157   0.023  0.00  0.00    -0.520 OA
ATOM      2  C   LIG    1       -1.266  -0.754   0.010  0.00  0.00    +0.560 C 
ATOM      3  N   LIG    1       -1.252  -2.102   0.003  0.00  0.00    -0.730 N 
ATOM      4  H   LIG    1       -0.407  -2.578  -0.008  0.00  0.00    +0.400 HD
ENDROOT
BRANCH   2   5
ATOM      5  C   LIG    1        0.002  -0.004   0.002  0.00  0.00    -0.180 A 
ATOM      6  C   LIG    1       -0.017   1.389   0.010  0.00  0.00    +0.200 A 
ATOM      7  C   LIG    1        1.204   2.095   0.002  0.00  0.00    -0.090 A 
ATOM      8  C   LIG    1        1.229   3.498   0.009  0.00  0.00    +0.040 A 
ATOM      9  C   LIG    1        2.425   4.151   0.000  0.00  0.00    +0.010 A 
ATOM     10  C   LIG    1        3.625   3.446  -0.015  0.00  0.00    +0.030 A 
ATOM     11  C   LIG    1        3.637   2.084  -0.022  0.00  0.00    +0.010 A 
ATOM     12  C   LIG    1        2.425   1.376  -0.014  0.00  0.00    -0.020 A 
ATOM     13  C   LIG    1        2.406  -0.032  -0.020  0.00  0.00    +0.020 A 
ATOM     14  C   LIG    1        1.226  -0.699  -0.013  0.00  0.00    +0.050 A 
BRANCH   6  15
ATOM     15  O   LIG    1       -1.195   2.057   0.019  0.00  0.00    -0.470 OA
ATOM     16  H   LIG    1       -1.532   2.247   0.905  0.00  0.00    +0.400 HD
ENDBRANCH   6  15
ENDBRANCH   2   5
BRANCH   3  17
ATOM     17  C   LIG    1       -2.513  -2.847   0.011  0.00  0.00    +0.320 C 
BRANCH  17  18
ATOM     18  C   LIG    1       -2.223  -4.326   0.000  0.00  0.00    -0.110 A 
ATOM     19  C   LIG    1       -2.107  -4.998  -1.202  0.00  0.00    +0.040 A 
ATOM     20  C   LIG    1       -1.836  -6.354  -1.212  0.00  0.00    +0.010 A 
ATOM     21  C   LIG    1       -1.690  -7.038  -0.020  0.00  0.00    +0.040 A 
ATOM     22  C   LIG    1       -1.812  -6.367   1.183  0.00  0.00    -0.120 A 
ATOM     23  C   LIG    1       -2.078  -5.010   1.192  0.00  0.00    +0.040 A 
BRANCH  22  24
ATOM     24  C   LIG    1       -1.653  -7.113   2.482  0.00  0.00    +0.350 C 
BRANCH  24  25
ATOM     25  N   LIG    1       -2.957  -7.621   2.916  0.00  0.00    -0.460 N 
ATOM     26  C   LIG    1       -3.856  -6.972   3.718  0.00  0.00    +0.120 A 
ATOM     27  C   LIG    1       -4.914  -7.792   3.861  0.00  0.00    +0.140 A 
ATOM     28  N   LIG    1       -4.664  -8.915   3.172  0.00  0.00    -0.490 NA
ATOM     29  C   LIG    1       -3.494  -8.820   2.603  0.00  0.00    +0.380 A 
ENDBRANCH  24  25
ENDBRANCH  22  24
ENDBRANCH  17  18
ENDBRANCH   3  17
TORSDOF 6
