REMARK  Name = ZINCrD000000AIQE.0
REMARK                            x       y       z     vdW  Elec       q    Type
REMARK                         _______ _______ _______ _____ _____    ______ ____
ROOT
ATOM      1  O   LIG    1       -0.651   9.745  -0.023  0.00  0.00    -0.560 OA
ATOM      2  C   LIG    1        0.455   9.672   0.477  0.00  0.00    +0.720 C 
ATOM      3  N   LIG    1        1.019   8.467   0.695  0.00  0.00    -0.650 N 
ATOM      4  H   LIG    1        1.901   8.410   1.094  0.00  0.00    +0.410 HD
ATOM      5  N   LIG    1        1.118  10.797   0.812  0.00  0.00    -0.740 N 
ATOM      6  H   LIG    1        2.001  10.739   1.211  0.00  0.00    +0.400 HD
ENDROOT
BRANCH   3   7
ATOM      7  C   LIG    1        0.330   7.298   0.346  0.00  0.00    +0.340 A 
ATOM      8  N   LIG    1        0.764   6.071   0.511  0.00  0.00    -0.310 NA
ATOM      9  N   LIG    1       -0.215   5.192   0.032  0.00  0.00    -0.330 N 
ATOM     10  C   LIG    1       -1.260   5.935  -0.419  0.00  0.00    +0.280 A 
ATOM     11  C   LIG    1       -0.948   7.238  -0.236  0.00  0.00    -0.070 A 
BRANCH   9  12
ATOM     12  C   LIG    1       -0.135   3.796   0.024  0.00  0.00    +0.350 A 
ATOM     13  N   LIG    1       -1.244   3.076   0.031  0.00  0.00    -0.480 NA
ATOM     14  C   LIG    1       -1.214   1.757   0.017  0.00  0.00    +0.300 A 
ATOM     15  C   LIG    1       -0.013   1.076   0.008  0.00  0.00    +0.000 A 
ATOM     16  C   LIG    1        1.176   1.793   0.001  0.00  0.00    +0.070 A 
ATOM     17  C   LIG    1        1.112   3.177   0.009  0.00  0.00    +0.060 A 
ATOM     18  F   LIG    1        2.243   3.916   0.001  0.00  0.00    -0.110 F 
ENDBRANCH   9  12
ENDBRANCH   3   7
BRANCH   5  19
ATOM     19  C   LIG    1        0.506  12.106   0.575  0.00  0.00    +0.280 C 
BRANCH  19  20
ATOM     20  C   LIG    1        1.460  13.207   1.042  0.00  0.00    -0.020 C 
ATOM     21  C   LIG    1        0.775  14.573   0.912  0.00  0.00    +0.040 C 
ATOM     22  C   LIG    1        1.649  15.618   1.603  0.00  0.00    +0.080 C 
ATOM     23  C   LIG    1        3.070  15.528   1.113  0.00  0.00    -0.080 A 
ATOM     24  C   LIG    1        3.903  16.616   1.339  0.00  0.00    +0.000 A 
ATOM     25  C   LIG    1        5.216  16.594   0.918  0.00  0.00    +0.000 A 
ATOM     26  C   LIG    1        5.709  15.479   0.267  0.00  0.00    +0.000 A 
ATOM     27  C   LIG    1        4.883  14.397   0.039  0.00  0.00    +0.000 A 
ATOM     28  C   LIG    1        3.560  14.419   0.459  0.00  0.00    -0.080 A 
ATOM     29  C   LIG    1        2.711  13.210   0.166  0.00  0.00    +0.070 C 
ENDBRANCH  19  20
ENDBRANCH   5  19
TORSDOF 4
