REMARK  Name = ZINCrH00000tj127.0
REMARK                            x       y       z     vdW  Elec       q    Type
REMARK                         _______ _______ _______ _____ _____    ______ ____
ROOT
ATOM      1  C   LIG    1        1.279   1.783   0.005  0.00  0.00    -0.280 A 
ATOM      2  C   LIG    1        0.006   1.339  -0.288  0.00  0.00    +0.270 A 
ATOM      3  N   LIG    1       -0.003   0.003  -0.169  0.00  0.00    -0.350 N 
ATOM      4  N   LIG    1        1.268  -0.444   0.205  0.00  0.00    -0.250 NA
ATOM      5  C   LIG    1        2.070   0.590   0.322  0.00  0.00    +0.160 A 
ENDROOT
BRANCH   1   7
ATOM      6  O   LIG    1        2.381   3.609   0.948  0.00  0.00    -0.520 OA
ATOM      7  C   LIG    1        1.750   3.179   0.002  0.00  0.00    +0.600 C 
ATOM      8  N   LIG    1        1.480   3.978  -1.049  0.00  0.00    -0.620 N 
ATOM      9  C   LIG    1        2.015   5.348  -1.115  0.00  0.00    +0.260 C 
ATOM     10  C   LIG    1        2.691   5.532  -2.483  0.00  0.00    +0.220 C 
ATOM     11  O   LIG    1        1.772   5.159  -3.514  0.00  0.00    -0.380 OA
ATOM     12  C   LIG    1        1.376   3.786  -3.476  0.00  0.00    +0.220 C 
ATOM     13  C   LIG    1        0.638   3.510  -2.161  0.00  0.00    +0.250 C 
ENDBRANCH   1   7
BRANCH   5  14
ATOM     14  C   LIG    1        3.503   0.556   0.700  0.00  0.00    -0.020 A 
ATOM     15  C   LIG    1        4.398   1.460   0.131  0.00  0.00    +0.040 A 
ATOM     16  C   LIG    1        5.730   1.427   0.491  0.00  0.00    +0.010 A 
ATOM     17  C   LIG    1        6.179   0.493   1.407  0.00  0.00    +0.010 A 
ATOM     18  C   LIG    1        5.296  -0.409   1.972  0.00  0.00    +0.010 A 
ATOM     19  C   LIG    1        3.961  -0.383   1.623  0.00  0.00    +0.040 A 
ENDBRANCH   5  14
BRANCH   3  20
ATOM     20  C   LIG    1       -1.167  -0.857  -0.397  0.00  0.00    +0.380 C 
BRANCH  20  21
ATOM     21  C   LIG    1       -0.821  -1.909  -1.419  0.00  0.00    -0.110 A 
ATOM     22  C   LIG    1       -1.131  -1.708  -2.750  0.00  0.00    +0.040 A 
ATOM     23  C   LIG    1       -0.809  -2.671  -3.689  0.00  0.00    +0.010 A 
ATOM     24  C   LIG    1       -0.189  -3.841  -3.294  0.00  0.00    +0.040 A 
ATOM     25  C   LIG    1        0.116  -4.047  -1.961  0.00  0.00    +0.020 A 
ATOM     26  C   LIG    1       -0.200  -3.081  -1.023  0.00  0.00    -0.000 A 
ATOM     27 CL   LIG    1        0.183  -3.337   0.651  0.00  0.00    -0.050 Cl
ENDBRANCH  20  21
ENDBRANCH   3  20
TORSDOF 4
