REMARK  Name = ZINCkj000005eElO.1
REMARK                            x       y       z     vdW  Elec       q    Type
REMARK                         _______ _______ _______ _____ _____    ______ ____
ROOT
ATOM      1  N   LIG    1       -3.453   1.927   0.266  0.00  0.00    -0.360 N 
ATOM      2  C   LIG    1       -4.759   1.344   0.630  0.00  0.00    +0.260 C 
ATOM      3  C   LIG    1       -5.612   2.269   1.374  0.00  0.00    +0.080 C 
ATOM      4  C   LIG    1       -5.944   3.526   0.539  0.00  0.00    +0.230 C 
ATOM      5  N   LIG    1       -4.794   4.400   0.526  0.00  0.00    -0.470 N 
ATOM      6  C   LIG    1       -3.876   4.195  -0.617  0.00  0.00    +0.240 C 
ATOM      7  C   LIG    1       -3.628   2.711  -0.934  0.00  0.00    +0.260 C 
ATOM      8  H   LIG    1       -3.123   2.518   1.014  0.00  0.00    +0.440 HD
ENDROOT
BRANCH   5   9
ATOM      9  C   LIG    1       -5.178   5.729   0.623  0.00  0.00    +0.210 A 
ATOM     10  N   LIG    1       -5.906   6.224   1.574  0.00  0.00    -0.480 NA
ATOM     11  C   LIG    1       -6.178   7.516   1.508  0.00  0.00    +0.250 A 
ATOM     12  C   LIG    1       -5.654   8.139   0.452  0.00  0.00    -0.060 A 
ATOM     13  S   LIG    1       -4.755   6.954  -0.492  0.00  0.00    +0.110 S 
ENDBRANCH   5   9
BRANCH   1  14
ATOM     14  C   LIG    1       -2.482   0.853   0.018  0.00  0.00    +0.160 C 
ATOM     15  C   LIG    1       -2.405  -0.058   1.246  0.00  0.00    +0.120 C 
BRANCH  14  18
ATOM     16  N   LIG    1       -0.072   0.651  -0.501  0.00  0.00    -0.700 N 
ATOM     17  H   LIG    1       -0.187  -0.312  -0.514  0.00  0.00    +0.410 HD
ATOM     18  C   LIG    1       -1.125   1.453  -0.247  0.00  0.00    +0.500 C 
ATOM     19  O   LIG    1       -0.982   2.657  -0.232  0.00  0.00    -0.520 OA
BRANCH  16  20
ATOM     20  C   LIG    1        1.245   1.235  -0.766  0.00  0.00    +0.320 C 
BRANCH  20  22
ATOM     21  C   LIG    1        2.944   0.133  -2.130  0.00  0.00    +0.070 C 
ATOM     22  C   LIG    1        2.240   0.133  -1.025  0.00  0.00    -0.080 C 
ENDBRANCH  20  22
ENDBRANCH  16  20
ENDBRANCH  14  18
ENDBRANCH   1  14
TORSDOF 5
