REMARK  Name = ZINCkj000005eElO.2
REMARK                            x       y       z     vdW  Elec       q    Type
REMARK                         _______ _______ _______ _____ _____    ______ ____
ROOT
ATOM      1  N   LIG    1       -0.436  -2.752  -0.634  0.00  0.00    -0.360 N 
ATOM      2  C   LIG    1        0.671  -2.869   0.282  0.00  0.00    +0.240 C 
ATOM      3  C   LIG    1        0.426  -1.908   1.461  0.00  0.00    +0.090 C 
ATOM      4  C   LIG    1        0.795  -0.532   1.142  0.00  0.00    +0.220 C 
ATOM      5  N   LIG    1        0.002  -0.004   0.002  0.00  0.00    -0.460 N 
ATOM      6  C   LIG    1        0.532  -0.507  -1.241  0.00  0.00    +0.230 C 
ATOM      7  C   LIG    1       -0.172  -1.787  -1.726  0.00  0.00    +0.290 C 
ATOM      8  H   LIG    1       -1.252  -2.449  -0.123  0.00  0.00    +0.430 HD
ENDROOT
BRANCH   5   9
ATOM      9  C   LIG    1       -0.017   1.382   0.010  0.00  0.00    +0.190 A 
ATOM     10  N   LIG    1       -1.090   2.110   0.018  0.00  0.00    -0.440 NA
ATOM     11  C   LIG    1       -0.922   3.421   0.028  0.00  0.00    +0.230 A 
ATOM     12  C   LIG    1        0.351   3.817   0.018  0.00  0.00    -0.030 A 
ATOM     13  S   LIG    1        1.371   2.380   0.002  0.00  0.00    +0.080 S 
ENDBRANCH   5   9
BRANCH   1  14
ATOM     14  C   LIG    1       -0.707  -4.070  -1.222  0.00  0.00    +0.160 C 
ATOM     15  C   LIG    1       -1.881  -3.962  -2.198  0.00  0.00    +0.120 C 
BRANCH  14  18
ATOM     16  N   LIG    1       -1.340  -6.328  -0.434  0.00  0.00    -0.700 N 
ATOM     17  H   LIG    1       -1.326  -6.620  -1.359  0.00  0.00    +0.410 HD
ATOM     18  C   LIG    1       -1.052  -5.047  -0.128  0.00  0.00    +0.500 C 
ATOM     19  O   LIG    1       -1.071  -4.681   1.028  0.00  0.00    -0.520 OA
BRANCH  16  20
ATOM     20  C   LIG    1       -1.675  -7.278   0.630  0.00  0.00    +0.320 C 
BRANCH  20  22
ATOM     21  C   LIG    1       -1.291  -9.682   0.442  0.00  0.00    +0.070 C 
ATOM     22  C   LIG    1       -1.953  -8.630   0.026  0.00  0.00    -0.080 C 
ENDBRANCH  20  22
ENDBRANCH  16  20
ENDBRANCH  14  18
ENDBRANCH   1  14
TORSDOF 5
