REMARK  Name = ZINCvU000000080g.0
REMARK                            x       y       z     vdW  Elec       q    Type
REMARK                         _______ _______ _______ _____ _____    ______ ____
ROOT
ATOM      1  S   LIG    1        1.831   4.179   1.510  0.00  0.00    +0.080 S 
ENDROOT
BRANCH   1   3
ATOM      2  N   LIG    1        1.022   3.730   4.151  0.00  0.00    -0.450 N 
ATOM      3  C   LIG    1        0.811   3.567   2.811  0.00  0.00    +0.150 A 
ATOM      4  N   LIG    1       -0.296   2.874   2.673  0.00  0.00    -0.280 NA
ATOM      5  N   LIG    1       -0.784   2.587   3.826  0.00  0.00    -0.260 NA
ATOM      6  C   LIG    1       -0.023   3.087   4.772  0.00  0.00    +0.230 A 
BRANCH   6   7
ATOM      7  C   LIG    1       -0.248   2.979   6.229  0.00  0.00    -0.030 A 
ATOM      8  C   LIG    1        0.379   3.870   7.102  0.00  0.00    +0.040 A 
ATOM      9  C   LIG    1        0.164   3.768   8.460  0.00  0.00    -0.010 A 
ATOM     10  C   LIG    1       -0.667   2.777   8.960  0.00  0.00    +0.120 A 
ATOM     11  C   LIG    1       -1.288   1.887   8.098  0.00  0.00    +0.000 A 
ATOM     12  F   LIG    1       -0.871   2.679  10.291  0.00  0.00    -0.130 F 
ATOM     13  C   LIG    1       -1.083   1.983   6.738  0.00  0.00    +0.110 A 
ENDBRANCH   6   7
BRANCH   2  14
ATOM     14  C   LIG    1        2.131   4.441   4.792  0.00  0.00    +0.340 C 
BRANCH  14  16
ATOM     15  C   LIG    1        1.886   6.554   5.991  0.00  0.00    +0.070 C 
ATOM     16  C   LIG    1        1.816   5.914   4.850  0.00  0.00    -0.060 C 
ENDBRANCH  14  16
ENDBRANCH   2  14
ENDBRANCH   1   3
BRANCH   1  17
ATOM     17  C   LIG    1        0.911   3.568   0.076  0.00  0.00    +0.060 C 
BRANCH  17  18
ATOM     18  C   LIG    1        1.548   4.087  -1.187  0.00  0.00    +0.540 C 
ATOM     19  N   LIG    1        0.814   4.209  -2.311  0.00  0.00    -0.600 N 
ATOM     20  C   LIG    1       -0.607   3.835  -2.321  0.00  0.00    +0.270 C 
ATOM     21  C   LIG    1       -1.422   5.026  -2.849  0.00  0.00    +0.010 C 
ATOM     22  C   LIG    1       -0.873   5.446  -4.215  0.00  0.00    +0.020 C 
ATOM     23  C   LIG    1        0.585   5.888  -4.066  0.00  0.00    +0.010 C 
ATOM     24  C   LIG    1        1.421   4.713  -3.550  0.00  0.00    +0.280 C 
ATOM     25  O   LIG    1        2.721   4.394  -1.193  0.00  0.00    -0.520 OA
ENDBRANCH  17  18
BRANCH  17  26
ATOM     26  C   LIG    1        0.935   2.061   0.069  0.00  0.00    -0.090 A 
ATOM     27  C   LIG    1       -0.249   1.351   0.128  0.00  0.00    +0.060 A 
ATOM     28  C   LIG    1       -0.227  -0.032   0.121  0.00  0.00    +0.000 A 
ATOM     29  C   LIG    1        0.979  -0.703   0.055  0.00  0.00    +0.010 A 
ATOM     30  C   LIG    1        2.163   0.007  -0.005  0.00  0.00    +0.000 A 
ATOM     31  C   LIG    1        2.141   1.389   0.001  0.00  0.00    +0.040 A 
ENDBRANCH  17  26
ENDBRANCH   1  17
TORSDOF 7
