REMARK  Name = ZINCvU00000005W4.0
REMARK                            x       y       z     vdW  Elec       q    Type
REMARK                         _______ _______ _______ _____ _____    ______ ____
ROOT
ATOM      1  S   LIG    1        0.949   0.825  -3.077  0.00  0.00    +0.090 S 
ENDROOT
BRANCH   1   2
ATOM      2  C   LIG    1       -0.429   1.757  -2.495  0.00  0.00    +0.150 A 
ATOM      3  N   LIG    1       -1.325   2.368  -3.236  0.00  0.00    -0.280 NA
ATOM      4  N   LIG    1       -2.192   2.954  -2.490  0.00  0.00    -0.250 NA
ATOM      5  C   LIG    1       -1.907   2.746  -1.223  0.00  0.00    +0.260 A 
ATOM      6  N   LIG    1       -0.764   1.978  -1.188  0.00  0.00    -0.450 N 
BRANCH   6   7
ATOM      7  C   LIG    1       -0.059   1.494   0.001  0.00  0.00    +0.250 C 
ATOM      8  C   LIG    1        1.374   2.032  -0.001  0.00  0.00    +0.020 C 
ATOM      9  C   LIG    1        2.110   1.526   1.241  0.00  0.00    +0.040 C 
ATOM     10  C   LIG    1        2.140  -0.004   1.228  0.00  0.00    +0.010 C 
ATOM     11  C   LIG    1        0.708  -0.542   1.230  0.00  0.00    +0.040 C 
ATOM     12  C   LIG    1       -0.029  -0.036  -0.012  0.00  0.00    +0.020 C 
ENDBRANCH   6   7
BRANCH   5  13
ATOM     13  C   LIG    1       -2.662   3.244  -0.063  0.00  0.00    +0.030 A 
ATOM     14  C   LIG    1       -3.609   4.224  -0.086  0.00  0.00    +0.030 A 
ATOM     15  C   LIG    1       -4.066   4.376   1.238  0.00  0.00    -0.050 A 
ATOM     16  C   LIG    1       -3.386   3.493   1.995  0.00  0.00    +0.200 A 
ATOM     17  O   LIG    1       -2.543   2.806   1.206  0.00  0.00    -0.180 OA
ENDBRANCH   5  13
ENDBRANCH   1   2
BRANCH   1  19
ATOM     18  C   LIG    1       -0.588   0.298  -5.273  0.00  0.00    +0.090 C 
ATOM     19  C   LIG    1        0.711   0.995  -4.863  0.00  0.00    +0.010 C 
BRANCH  19  20
ATOM     20  C   LIG    1        1.871   0.361  -5.587  0.00  0.00    +0.550 C 
ATOM     21  N   LIG    1        2.196   0.771  -6.829  0.00  0.00    -0.660 N 
ATOM     22  H   LIG    1        1.644   1.427  -7.283  0.00  0.00    +0.420 HD
ATOM     23  O   LIG    1        2.514  -0.517  -5.051  0.00  0.00    -0.500 OA
BRANCH  21  24
ATOM     24  C   LIG    1        3.330   0.249  -7.465  0.00  0.00    +0.130 A 
ATOM     25  C   LIG    1        3.700  -1.071  -7.253  0.00  0.00    +0.100 A 
ATOM     26  C   LIG    1        4.819  -1.586  -7.880  0.00  0.00    +0.050 A 
ATOM     27  C   LIG    1        5.571  -0.786  -8.722  0.00  0.00    +0.090 A 
ATOM     28  C   LIG    1        5.205   0.534  -8.938  0.00  0.00    +0.050 A 
ATOM     29  F   LIG    1        5.941   1.314  -9.761  0.00  0.00    -0.110 F 
ATOM     30  F   LIG    1        6.664  -1.292  -9.335  0.00  0.00    -0.120 F 
ATOM     31  C   LIG    1        4.082   1.052  -8.315  0.00  0.00    +0.070 A 
ATOM     32  F   LIG    1        3.721   2.336  -8.529  0.00  0.00    -0.110 F 
ENDBRANCH  21  24
ENDBRANCH  19  20
ENDBRANCH   1  19
TORSDOF 6
