REMARK  Name = ZINCwl0000000isU.0
REMARK                            x       y       z     vdW  Elec       q    Type
REMARK                         _______ _______ _______ _____ _____    ______ ____
ROOT
ATOM      1  O   LIG    1       -5.583   4.161   0.077  0.00  0.00    -0.500 OA
ATOM      2  C   LIG    1       -5.381   2.965   0.069  0.00  0.00    +0.540 C 
ATOM      3  N   LIG    1       -6.420   2.106   0.074  0.00  0.00    -0.720 N 
ATOM      4  H   LIG    1       -6.258   1.150   0.067  0.00  0.00    +0.410 HD
ENDROOT
BRANCH   3   5
ATOM      5  C   LIG    1       -7.793   2.617   0.090  0.00  0.00    +0.260 C 
ATOM      6  C   LIG    1       -8.324   2.739   1.542  0.00  0.00    +0.060 C 
ATOM      7  C   LIG    1       -9.851   2.607   1.366  0.00  0.00    +0.270 C 
ATOM      8  N   LIG    1      -10.085   1.909   0.088  0.00  0.00    -0.390 N 
ATOM      9  H   LIG    1      -10.608   2.507  -0.534  0.00  0.00    +0.430 HD
ATOM     10  C   LIG    1       -8.776   1.586  -0.518  0.00  0.00    +0.270 C 
BRANCH   8  11
ATOM     11  C   LIG    1      -10.837   0.671   0.331  0.00  0.00    +0.330 C 
BRANCH  11  12
ATOM     12  C   LIG    1      -12.216   1.012   0.833  0.00  0.00    -0.160 A 
ATOM     13  C   LIG    1      -12.446   1.138   2.191  0.00  0.00    +0.030 A 
ATOM     14  C   LIG    1      -13.710   1.455   2.651  0.00  0.00    +0.030 A 
ATOM     15  C   LIG    1      -14.747   1.636   1.755  0.00  0.00    +0.060 A 
ATOM     16  C   LIG    1      -14.519   1.505   0.398  0.00  0.00    +0.030 A 
ATOM     17  C   LIG    1      -13.253   1.193  -0.063  0.00  0.00    +0.040 A 
ENDBRANCH  11  12
ENDBRANCH   8  11
ENDBRANCH   3   5
BRANCH   2  18
ATOM     18  C   LIG    1       -3.969   2.439   0.052  0.00  0.00    +0.110 C 
BRANCH  18  19
ATOM     19  S   LIG    1       -2.805   3.831   0.049  0.00  0.00    +0.040 S 
BRANCH  19  20
ATOM     20  C   LIG    1       -1.234   3.034   0.029  0.00  0.00    +0.150 A 
ATOM     21  C   LIG    1       -0.072   3.801   0.022  0.00  0.00    -0.020 A 
ATOM     22  C   LIG    1        1.155   3.162   0.008  0.00  0.00    +0.210 A 
ATOM     23  C   LIG    1        1.179   1.774   0.000  0.00  0.00    -0.740 A 
ATOM     24  C   LIG    1       -0.013   1.076   0.008  0.00  0.00    +0.400 A 
ATOM     25  N   LIG    1       -1.169   1.711   0.017  0.00  0.00    -0.510 NA
BRANCH  23  26
ATOM     26  S   LIG    1        2.715   0.911  -0.018  0.00  0.00    +2.700 S 
ATOM     27  O   LIG    1        2.458  -0.378   0.523  0.00  0.00    -0.940 OA
ATOM     28  O   LIG    1        3.682   1.801   0.522  0.00  0.00    -0.940 OA
BRANCH  26  29
ATOM     29  N   LIG    1        3.128   0.678  -1.605  0.00  0.00    -1.000 NA
ATOM     30  C   LIG    1        2.704  -0.531  -2.328  0.00  0.00    +0.270 C 
ATOM     31  C   LIG    1        2.051  -0.095  -3.649  0.00  0.00    +0.210 C 
ATOM     32  O   LIG    1        2.941   0.782  -4.345  0.00  0.00    -0.370 OA
ATOM     33  C   LIG    1        3.226   1.998  -3.651  0.00  0.00    +0.210 C 
ATOM     34  C   LIG    1        3.935   1.672  -2.331  0.00  0.00    +0.270 C 
ENDBRANCH  26  29
ENDBRANCH  23  26
ENDBRANCH  19  20
ENDBRANCH  18  19
ENDBRANCH   2  18
TORSDOF 8
