REMARK  Name = ZINCwl0000000isU.1
REMARK                            x       y       z     vdW  Elec       q    Type
REMARK                         _______ _______ _______ _____ _____    ______ ____
ROOT
ATOM      1  O   LIG    1       -4.288   2.508   8.467  0.00  0.00    -0.500 OA
ATOM      2  C   LIG    1       -4.571   1.582   7.736  0.00  0.00    +0.540 C 
ATOM      3  N   LIG    1       -5.326   0.566   8.197  0.00  0.00    -0.730 N 
ATOM      4  H   LIG    1       -5.553  -0.174   7.612  0.00  0.00    +0.410 HD
ENDROOT
BRANCH   3   5
ATOM      5  C   LIG    1       -5.804   0.578   9.582  0.00  0.00    +0.270 C 
ATOM      6  C   LIG    1       -4.759  -0.067  10.515  0.00  0.00    +0.060 C 
ATOM      7  C   LIG    1       -5.475  -1.283  11.141  0.00  0.00    +0.280 C 
ATOM      8  N   LIG    1       -6.551  -1.622  10.174  0.00  0.00    -0.400 N 
ATOM      9  H   LIG    1       -6.174  -2.140   9.394  0.00  0.00    +0.430 HD
ATOM     10  C   LIG    1       -7.066  -0.301   9.721  0.00  0.00    +0.280 C 
BRANCH   8  11
ATOM     11  C   LIG    1       -7.614  -2.390  10.835  0.00  0.00    +0.330 C 
BRANCH  11  12
ATOM     12  C   LIG    1       -7.075  -3.733  11.255  0.00  0.00    -0.160 A 
ATOM     13  C   LIG    1       -7.158  -4.811  10.394  0.00  0.00    +0.040 A 
ATOM     14  C   LIG    1       -6.660  -6.043  10.777  0.00  0.00    +0.030 A 
ATOM     15  C   LIG    1       -6.087  -6.198  12.026  0.00  0.00    +0.060 A 
ATOM     16  C   LIG    1       -6.009  -5.121  12.889  0.00  0.00    +0.030 A 
ATOM     17  C   LIG    1       -6.503  -3.889  12.504  0.00  0.00    +0.040 A 
ENDBRANCH  11  12
ENDBRANCH   8  11
ENDBRANCH   3   5
BRANCH   2  18
ATOM     18  C   LIG    1       -4.079   1.570   6.311  0.00  0.00    +0.110 C 
BRANCH  18  19
ATOM     19  S   LIG    1       -3.098   3.063   5.997  0.00  0.00    +0.040 S 
BRANCH  19  20
ATOM     20  C   LIG    1       -2.618   2.874   4.312  0.00  0.00    +0.150 A 
ATOM     21  C   LIG    1       -1.835   3.851   3.705  0.00  0.00    -0.020 A 
ATOM     22  C   LIG    1       -1.465   3.690   2.382  0.00  0.00    +0.210 A 
ATOM     23  C   LIG    1       -1.892   2.554   1.708  0.00  0.00    -0.740 A 
ATOM     24  C   LIG    1       -2.671   1.627   2.371  0.00  0.00    +0.400 A 
ATOM     25  N   LIG    1       -3.005   1.804   3.635  0.00  0.00    -0.510 NA
BRANCH  23  26
ATOM     26  S   LIG    1       -1.449   2.300   0.021  0.00  0.00    +2.700 S 
ATOM     27  O   LIG    1       -2.427   1.425  -0.523  0.00  0.00    -0.940 OA
ATOM     28  O   LIG    1       -1.170   3.585  -0.517  0.00  0.00    -0.940 OA
BRANCH  26  29
ATOM     29  N   LIG    1       -0.018   1.467   0.010  0.00  0.00    -1.000 NA
ATOM     30  C   LIG    1        1.271   2.176   0.002  0.00  0.00    +0.270 C 
ATOM     31  C   LIG    1        2.151   1.593   1.113  0.00  0.00    +0.210 C 
ATOM     32  O   LIG    1        2.208   0.172   0.972  0.00  0.00    -0.370 OA
ATOM     33  C   LIG    1        0.944  -0.481   1.114  0.00  0.00    +0.210 C 
ATOM     34  C   LIG    1        0.002  -0.004   0.002  0.00  0.00    +0.270 C 
ENDBRANCH  26  29
ENDBRANCH  23  26
ENDBRANCH  19  20
ENDBRANCH  18  19
ENDBRANCH   2  18
TORSDOF 8
