REMARK  Name = ZINCc70000001Ey0.0
REMARK                            x       y       z     vdW  Elec       q    Type
REMARK                         _______ _______ _______ _____ _____    ______ ____
ROOT
ATOM      1  N   LIG    1        0.590   3.850   0.016  0.00  0.00    -0.450 N 
ATOM      2  C   LIG    1       -0.759   3.786   0.028  0.00  0.00    +0.400 A 
ATOM      3  N   LIG    1       -1.118   2.531   0.021  0.00  0.00    -0.410 NA
ATOM      4  C   LIG    1       -0.022   1.758   0.012  0.00  0.00    -0.560 A 
ATOM      5  C   LIG    1        1.057   2.564   0.006  0.00  0.00    +0.270 A 
ENDROOT
BRANCH   1   7
ATOM      6  C   LIG    1        1.073   5.900  -1.228  0.00  0.00    +0.050 C 
ATOM      7  C   LIG    1        1.402   5.070   0.015  0.00  0.00    +0.230 C 
ATOM      8  C   LIG    1        1.095   5.888   1.271  0.00  0.00    +0.050 C 
ENDBRANCH   1   7
BRANCH   4   9
ATOM      9  S   LIG    1        0.002  -0.004   0.002  0.00  0.00    +2.740 S 
ATOM     10  O   LIG    1        1.252  -0.385  -0.556  0.00  0.00    -0.960 OA
ATOM     11  O   LIG    1       -1.247  -0.419  -0.533  0.00  0.00    -0.950 OA
BRANCH   9  12
ATOM     12  N   LIG    1        0.024  -0.503   1.581  0.00  0.00    -1.250 NA
ATOM     13  H   LIG    1        0.039  -1.450   1.790  0.00  0.00    +0.420 HD
ATOM     14  H   LIG    1        0.022   0.152   2.296  0.00  0.00    +0.420 HD
ENDBRANCH   9  12
ENDBRANCH   4   9
TORSDOF 3
