REMARK  Name = ZINCAx0000000co3.0
REMARK                            x       y       z     vdW  Elec       q    Type
REMARK                         _______ _______ _______ _____ _____    ______ ____
ROOT
ATOM      1  N   LIG    1        6.472   5.299  -4.251  0.00  0.00    -0.510 N 
ATOM      2  C   LIG    1        6.580   3.970  -4.445  0.00  0.00    +0.560 C 
ATOM      3  O   LIG    1        7.199   3.543  -5.401  0.00  0.00    -0.520 OA
ENDROOT
BRANCH   1   9
ATOM      4  N   LIG    1        3.927   6.021  -1.701  0.00  0.00    -0.540 N 
ATOM      5  C   LIG    1        4.644   6.760  -0.836  0.00  0.00    +0.710 A 
ATOM      6  N   LIG    1        5.941   7.033  -1.059  0.00  0.00    -0.660 N 
ATOM      7  H   LIG    1        6.436   7.568  -0.419  0.00  0.00    +0.440 HD
ATOM      8  C   LIG    1        6.562   6.571  -2.162  0.00  0.00    +0.560 A 
ATOM      9  C   LIG    1        5.843   5.794  -3.090  0.00  0.00    -0.170 A 
ATOM     10  O   LIG    1        7.740   6.823  -2.355  0.00  0.00    -0.510 OA
ATOM     11  O   LIG    1        4.108   7.190   0.168  0.00  0.00    -0.530 OA
ATOM     12  C   LIG    1        4.511   5.530  -2.846  0.00  0.00    +0.500 A 
BRANCH  12  13
ATOM     13  N   LIG    1        3.777   4.780  -3.734  0.00  0.00    -0.820 N 
ATOM     14  H   LIG    1        2.826   4.654  -3.592  0.00  0.00    +0.410 HD
ATOM     15  H   LIG    1        4.211   4.377  -4.502  0.00  0.00    +0.430 HD
ENDBRANCH  12  13
BRANCH   4  16
ATOM     16  C   LIG    1        2.515   5.742  -1.427  0.00  0.00    +0.300 C 
BRANCH  16  17
ATOM     17  C   LIG    1        1.649   6.843  -2.044  0.00  0.00    +0.010 C 
BRANCH  17  19
ATOM     18  C   LIG    1       -0.691   7.652  -2.374  0.00  0.00    +0.020 C 
ATOM     19  C   LIG    1        0.175   6.552  -1.757  0.00  0.00    +0.010 C 
ENDBRANCH  17  19
ENDBRANCH  16  17
ENDBRANCH   4  16
ENDBRANCH   1   9
BRANCH   2  20
ATOM     20  C   LIG    1        5.947   3.033  -3.498  0.00  0.00    -0.160 A 
ATOM     21  C   LIG    1        5.571   1.755  -3.922  0.00  0.00    +0.110 A 
ATOM     22  C   LIG    1        4.980   0.883  -3.036  0.00  0.00    -0.020 A 
ATOM     23  C   LIG    1        4.757   1.273  -1.719  0.00  0.00    +0.200 A 
ATOM     24  C   LIG    1        5.124   2.546  -1.294  0.00  0.00    -0.040 A 
ATOM     25  C   LIG    1        5.721   3.421  -2.174  0.00  0.00    +0.080 A 
BRANCH  23  26
ATOM     26  N   LIG    1        4.159   0.389  -0.826  0.00  0.00    -0.940 N 
ATOM     27  C   LIG    1        3.261  -0.657  -1.321  0.00  0.00    +0.330 C 
BRANCH  26  28
ATOM     28  S   LIG    1        4.463   0.520   0.797  0.00  0.00    +2.680 S 
ATOM     29  O   LIG    1        4.268  -0.775   1.347  0.00  0.00    -0.940 OA
ATOM     30  O   LIG    1        5.681   1.242   0.920  0.00  0.00    -0.940 OA
BRANCH  28  31
ATOM     31  C   LIG    1        3.205   1.547   1.482  0.00  0.00    -0.690 A 
ATOM     32  C   LIG    1        1.985   1.002   1.834  0.00  0.00    +0.130 A 
ATOM     33  C   LIG    1        0.996   1.808   2.366  0.00  0.00    +0.000 A 
ATOM     34  C   LIG    1        1.232   3.157   2.556  0.00  0.00    -0.020 A 
ATOM     35  C   LIG    1        2.452   3.702   2.203  0.00  0.00    +0.000 A 
ATOM     36  C   LIG    1        0.155   4.035   3.140  0.00  0.00    +0.100 C 
ATOM     37  C   LIG    1        3.439   2.897   1.666  0.00  0.00    +0.120 A 
ENDBRANCH  28  31
ENDBRANCH  26  28
ENDBRANCH  23  26
ENDBRANCH   2  20
BRANCH   1  38
ATOM     38  C   LIG    1        7.008   6.230  -5.247  0.00  0.00    +0.290 C 
ATOM     39  C   LIG    1        5.894   6.645  -6.210  0.00  0.00    +0.020 C 
ENDBRANCH   1  38
TORSDOF 10
