REMARK  Name = ZINCnE00000rhmZ0.0
REMARK                            x       y       z     vdW  Elec       q    Type
REMARK                         _______ _______ _______ _____ _____    ______ ____
ROOT
ATOM      1  S   LIG    1        0.034   1.849   0.010  0.00  0.00    +2.680 S 
ATOM      2  O   LIG    1       -0.912   2.220  -0.983  0.00  0.00    -0.960 OA
ATOM      3  O   LIG    1        1.363   2.352   0.043  0.00  0.00    -0.960 OA
ENDROOT
BRANCH   1   5
ATOM      4  C   LIG    1       -0.532  -0.589  -0.956  0.00  0.00    +0.200 C 
ATOM      5  C   LIG    1        0.168   0.094  -0.060  0.00  0.00    -0.580 C 
BRANCH   4  10
ATOM      6  C   LIG    1       -0.095  -6.322  -1.185  0.00  0.00    +0.090 C 
ATOM      7  C   LIG    1       -0.210  -4.820  -1.125  0.00  0.00    -0.070 A 
ATOM      8  C   LIG    1       -1.046  -4.158  -2.005  0.00  0.00    +0.000 A 
ATOM      9  C   LIG    1       -1.155  -2.783  -1.956  0.00  0.00    +0.040 A 
ATOM     10  C   LIG    1       -0.420  -2.062  -1.014  0.00  0.00    -0.090 A 
ATOM     11  C   LIG    1        0.426  -2.736  -0.132  0.00  0.00    +0.050 A 
ATOM     12  C   LIG    1        0.521  -4.111  -0.189  0.00  0.00    +0.000 A 
ENDBRANCH   4  10
ENDBRANCH   1   5
BRANCH   1  13
ATOM     13  N   LIG    1       -0.646   2.232   1.470  0.00  0.00    -1.020 N 
ATOM     14  H   LIG    1       -1.489   2.711   1.502  0.00  0.00    +0.440 HD
BRANCH  13  15
ATOM     15  C   LIG    1       -0.012   1.865   2.648  0.00  0.00    +0.180 A 
ATOM     16  C   LIG    1        1.375   1.881   2.729  0.00  0.00    -0.030 A 
ATOM     17  C   LIG    1        2.004   1.517   3.902  0.00  0.00    +0.020 A 
ATOM     18  C   LIG    1        1.261   1.132   5.007  0.00  0.00    -0.130 A 
ATOM     19  C   LIG    1       -0.115   1.109   4.948  0.00  0.00    +0.070 A 
ATOM     20  C   LIG    1        1.963   0.737   6.281  0.00  0.00    +0.080 C 
ATOM     21  C   LIG    1       -0.769   1.481   3.769  0.00  0.00    -0.150 A 
BRANCH  21  22
ATOM     22  C   LIG    1       -2.237   1.466   3.700  0.00  0.00    +0.530 C 
ATOM     23  O   LIG    1       -2.805   1.788   2.665  0.00  0.00    -0.680 OA
ATOM     24  O   LIG    1       -2.892   1.131   4.678  0.00  0.00    -0.680 OA
ENDBRANCH  21  22
ENDBRANCH  13  15
ENDBRANCH   1  13
TORSDOF 5
