REMARK  Name = ZINCpk000000n9Cj.0
REMARK                            x       y       z     vdW  Elec       q    Type
REMARK                         _______ _______ _______ _____ _____    ______ ____
ROOT
ATOM      1  C   LIG    1        5.040   4.641   2.991  0.00  0.00    +0.470 C 
ATOM      2  N   LIG    1        3.738   4.835   2.981  0.00  0.00    -0.610 N 
ATOM      3  C   LIG    1        3.253   4.569   1.763  0.00  0.00    +0.460 C 
ATOM      4  N   LIG    1        4.242   4.211   0.980  0.00  0.00    -0.340 NA
ATOM      5  N   LIG    1        1.913   4.663   1.385  0.00  0.00    -0.710 N 
ATOM      6  H   LIG    1        1.245   4.938   2.032  0.00  0.00    +0.400 HD
ATOM      7  H   LIG    1        3.210   5.125   3.741  0.00  0.00    +0.410 HD
ATOM      8  N   LIG    1        5.413   4.250   1.755  0.00  0.00    -0.360 NA
ENDROOT
BRANCH   1  13
ATOM      9  C   LIG    1        8.021   4.146   7.376  0.00  0.00    +0.650 C 
ATOM     10  N   LIG    1        7.203   3.979   6.318  0.00  0.00    -0.600 N 
ATOM     11  C   LIG    1        7.739   3.547   5.019  0.00  0.00    +0.300 C 
ATOM     12  C   LIG    1        7.322   4.568   3.953  0.00  0.00    +0.310 C 
ATOM     13  N   LIG    1        5.879   4.813   4.077  0.00  0.00    -0.600 NA
ATOM     14  C   LIG    1        5.343   5.250   5.374  0.00  0.00    +0.270 C 
ATOM     15  C   LIG    1        5.759   4.224   6.442  0.00  0.00    +0.290 C 
ATOM     16  O   LIG    1        9.213   3.940   7.262  0.00  0.00    -0.560 OA
BRANCH   9  17
ATOM     17  O   LIG    1        7.517   4.543   8.560  0.00  0.00    -0.360 OA
BRANCH  17  19
ATOM     18  C   LIG    1        9.502   5.755   9.282  0.00  0.00    +0.040 C 
ATOM     19  C   LIG    1        8.456   4.702   9.656  0.00  0.00    +0.140 C 
ATOM     20  C   LIG    1        9.151   3.368   9.931  0.00  0.00    +0.040 C 
ATOM     21  C   LIG    1        7.704   5.154  10.910  0.00  0.00    +0.080 C 
ENDBRANCH  17  19
ENDBRANCH   9  17
ENDBRANCH   1  13
BRANCH   5  22
ATOM     22  C   LIG    1        1.516   4.347   0.011  0.00  0.00    +0.420 C 
BRANCH  22  23
ATOM     23  C   LIG    1        0.627   3.130   0.012  0.00  0.00    -0.040 A 
ATOM     24  C   LIG    1       -0.716   3.129   0.024  0.00  0.00    +0.160 A 
ATOM     25  O   LIG    1       -1.112   1.841   0.017  0.00  0.00    -0.210 OA
ATOM     26  C   LIG    1       -0.013   1.076   0.008  0.00  0.00    +0.420 A 
ATOM     27  N   LIG    1        1.036   1.849   0.002  0.00  0.00    -0.470 NA
ENDBRANCH  22  23
ENDBRANCH   5  22
TORSDOF 5
