REMARK  Name = ZINCpk000000n9Cj.1
REMARK                            x       y       z     vdW  Elec       q    Type
REMARK                         _______ _______ _______ _____ _____    ______ ____
ROOT
ATOM      1  C   LIG    1        6.123   0.632  -2.769  0.00  0.00    +0.480 A 
ATOM      2  N   LIG    1        4.868   1.012  -2.877  0.00  0.00    -0.590 NA
ATOM      3  C   LIG    1        4.309   1.071  -1.663  0.00  0.00    +0.490 A 
ATOM      4  N   LIG    1        5.199   0.720  -0.767  0.00  0.00    -0.360 NA
ATOM      5  N   LIG    1        6.386   0.430  -1.461  0.00  0.00    -0.490 N 
ATOM      6  H   LIG    1        7.228   0.142  -1.075  0.00  0.00    +0.440 HD
ENDROOT
BRANCH   1  11
ATOM      7  C   LIG    1        9.215   1.807  -6.968  0.00  0.00    +0.660 C 
ATOM      8  N   LIG    1        8.628   1.074  -6.001  0.00  0.00    -0.600 N 
ATOM      9  C   LIG    1        7.340   0.405  -6.239  0.00  0.00    +0.330 C 
ATOM     10  C   LIG    1        6.382   0.775  -5.101  0.00  0.00    +0.230 C 
ATOM     11  N   LIG    1        7.015   0.464  -3.812  0.00  0.00    -0.460 N 
ATOM     12  C   LIG    1        8.226   1.270  -3.605  0.00  0.00    +0.200 C 
ATOM     13  C   LIG    1        9.259   0.920  -4.681  0.00  0.00    +0.320 C 
ATOM     14  O   LIG    1        8.680   1.922  -8.053  0.00  0.00    -0.560 OA
BRANCH   7  15
ATOM     15  O   LIG    1       10.395   2.411  -6.731  0.00  0.00    -0.360 OA
BRANCH  15  17
ATOM     16  C   LIG    1       10.004   4.305  -8.211  0.00  0.00    +0.040 C 
ATOM     17  C   LIG    1       10.969   3.185  -7.818  0.00  0.00    +0.140 C 
ATOM     18  C   LIG    1       11.209   2.272  -9.022  0.00  0.00    +0.040 C 
ATOM     19  C   LIG    1       12.298   3.792  -7.365  0.00  0.00    +0.080 C 
ENDBRANCH  15  17
ENDBRANCH   7  15
ENDBRANCH   1  11
BRANCH   3  20
ATOM     20  N   LIG    1        2.990   1.441  -1.395  0.00  0.00    -0.700 N 
ATOM     21  H   LIG    1        2.398   1.687  -2.122  0.00  0.00    +0.420 HD
BRANCH  20  22
ATOM     22  C   LIG    1        2.501   1.458  -0.014  0.00  0.00    +0.390 C 
BRANCH  22  23
ATOM     23  C   LIG    1        1.057   1.888   0.002  0.00  0.00    -0.040 A 
ATOM     24  C   LIG    1       -0.013   1.076   0.008  0.00  0.00    +0.180 A 
ATOM     25  O   LIG    1       -1.107   1.861   0.017  0.00  0.00    -0.200 OA
ATOM     26  C   LIG    1       -0.695   3.136   0.026  0.00  0.00    +0.430 A 
ATOM     27  N   LIG    1        0.607   3.156   0.013  0.00  0.00    -0.480 NA
ENDBRANCH  22  23
ENDBRANCH  20  22
ENDBRANCH   3  20
TORSDOF 6
