REMARK  Name = ZINCrD000000BxW1.0
REMARK                            x       y       z     vdW  Elec       q    Type
REMARK                         _______ _______ _______ _____ _____    ______ ____
ROOT
ATOM      1  O   LIG    1        1.209   1.919   2.754  0.00  0.00    -0.570 OA
ATOM      2  C   LIG    1        0.012   1.951   2.546  0.00  0.00    +0.710 C 
ATOM      3  N   LIG    1       -0.853   1.667   3.540  0.00  0.00    -0.680 N 
ATOM      4  H   LIG    1       -1.807   1.767   3.397  0.00  0.00    +0.410 HD
ATOM      5  N   LIG    1       -0.451   2.271   1.321  0.00  0.00    -0.740 N 
ATOM      6  H   LIG    1       -1.406   2.297   1.155  0.00  0.00    +0.400 HD
ENDROOT
BRANCH   3   7
ATOM      7  C   LIG    1       -0.374   1.227   4.779  0.00  0.00    +0.160 A 
ATOM      8  C   LIG    1        0.770   0.444   4.845  0.00  0.00    +0.030 A 
ATOM      9  C   LIG    1        1.243   0.015   6.070  0.00  0.00    +0.030 A 
ATOM     10  C   LIG    1        0.572   0.357   7.229  0.00  0.00    +0.010 A 
ATOM     11  C   LIG    1       -0.571   1.133   7.167  0.00  0.00    -0.070 A 
ATOM     12  C   LIG    1       -1.046   1.569   5.946  0.00  0.00    +0.000 A 
BRANCH  11  13
ATOM     13  C   LIG    1       -1.300   1.503   8.434  0.00  0.00    +0.220 C 
BRANCH  13  14
ATOM     14  O   LIG    1       -2.280   0.506   8.728  0.00  0.00    -0.380 OA
BRANCH  14  15
ATOM     15  C   LIG    1       -3.031   0.762   9.916  0.00  0.00    +0.150 C 
ATOM     16  C   LIG    1       -2.325   0.124  11.114  0.00  0.00    -0.010 C 
ATOM     17  C   LIG    1       -3.130   0.399  12.386  0.00  0.00    +0.010 C 
ATOM     18  C   LIG    1       -4.531  -0.199  12.242  0.00  0.00    +0.000 C 
ATOM     19  C   LIG    1       -5.237   0.439  11.044  0.00  0.00    +0.010 C 
ATOM     20  C   LIG    1       -4.433   0.165   9.772  0.00  0.00    +0.020 C 
ENDBRANCH  14  15
ENDBRANCH  13  14
ENDBRANCH  11  13
ENDBRANCH   3   7
BRANCH   5  21
ATOM     21  C   LIG    1        0.489   2.580   0.241  0.00  0.00    +0.430 C 
BRANCH  21  22
ATOM     22  C   LIG    1       -0.279   2.902  -1.016  0.00  0.00    +0.170 A 
ATOM     23  N   LIG    1       -0.692   4.083  -1.388  0.00  0.00    -0.260 NA
ATOM     24  N   LIG    1       -1.314   3.989  -2.510  0.00  0.00    -0.280 NA
ATOM     25  C   LIG    1       -1.325   2.743  -2.903  0.00  0.00    +0.170 A 
ATOM     26  C   LIG    1       -1.806   1.835  -4.014  0.00  0.00    +0.180 C 
ATOM     27  C   LIG    1       -1.714   0.414  -3.412  0.00  0.00    +0.070 C 
ATOM     28  C   LIG    1       -0.625   0.599  -2.333  0.00  0.00    +0.300 C 
ATOM     29  N   LIG    1       -0.663   2.021  -1.972  0.00  0.00    -0.490 N 
ENDBRANCH  21  22
ENDBRANCH   5  21
TORSDOF 6
