REMARK  Name = ZINCpk00000e1zrm.0
REMARK                            x       y       z     vdW  Elec       q    Type
REMARK                         _______ _______ _______ _____ _____    ______ ____
ROOT
ATOM      1  N   LIG    1        8.872   1.119  -4.683  0.00  0.00    -0.550 N 
ATOM      2  C   LIG    1        8.107  -0.132  -4.620  0.00  0.00    +0.310 C 
ATOM      3  C   LIG    1        6.624   0.295  -4.557  0.00  0.00    +0.000 C 
ATOM      4  C   LIG    1        6.666   1.683  -5.238  0.00  0.00    +0.100 C 
ATOM      5  C   LIG    1        8.089   2.154  -5.033  0.00  0.00    +0.510 C 
ATOM      6  O   LIG    1        8.468   3.298  -5.167  0.00  0.00    -0.500 OA
ENDROOT
BRANCH   1  11
ATOM      7  C   LIG    1       12.258   2.523  -4.346  0.00  0.00    +0.160 A 
ATOM      8  C   LIG    1       12.952   1.417  -3.876  0.00  0.00    -0.100 A 
ATOM      9  C   LIG    1       12.293   0.219  -3.676  0.00  0.00    +0.080 A 
ATOM     10  C   LIG    1       10.942   0.118  -3.942  0.00  0.00    -0.060 A 
ATOM     11  C   LIG    1       10.241   1.221  -4.412  0.00  0.00    +0.210 A 
ATOM     12  C   LIG    1       10.902   2.424  -4.619  0.00  0.00    -0.030 A 
BRANCH   7  14
ATOM     13  C   LIG    1       14.304   3.728  -4.245  0.00  0.00    +0.250 C 
ATOM     14  O   LIG    1       12.907   3.700  -4.542  0.00  0.00    -0.310 OA
ENDBRANCH   7  14
ENDBRANCH   1  11
BRANCH   3  15
ATOM     15  C   LIG    1        6.156   0.409  -3.129  0.00  0.00    +0.520 C 
ATOM     16  N   LIG    1        4.885   0.772  -2.863  0.00  0.00    -0.730 N 
ATOM     17  H   LIG    1        4.272   0.960  -3.591  0.00  0.00    +0.400 HD
ATOM     18  O   LIG    1        6.923   0.175  -2.219  0.00  0.00    -0.520 OA
BRANCH  16  19
ATOM     19  C   LIG    1        4.430   0.883  -1.475  0.00  0.00    +0.270 C 
BRANCH  19  20
ATOM     20  C   LIG    1        2.961   1.307  -1.453  0.00  0.00    +0.010 C 
BRANCH  20  21
ATOM     21  C   LIG    1        2.485   1.423  -0.003  0.00  0.00    +0.310 C 
BRANCH  21  22
ATOM     22  N   LIG    1        1.078   1.829   0.019  0.00  0.00    -0.460 N 
ATOM     23  C   LIG    1       -0.008   0.996   0.015  0.00  0.00    +0.110 A 
ATOM     24  C   LIG    1       -1.102   1.781   0.035  0.00  0.00    +0.140 A 
ATOM     25  N   LIG    1       -0.695   3.058   0.058  0.00  0.00    -0.490 NA
ATOM     26  C   LIG    1        0.609   3.095   0.046  0.00  0.00    +0.380 A 
ENDBRANCH  21  22
ENDBRANCH  20  21
ENDBRANCH  19  20
ENDBRANCH  16  19
ENDBRANCH   3  15
TORSDOF 7
