REMARK  Name = ZINCvU0000000FdL.0
REMARK                            x       y       z     vdW  Elec       q    Type
REMARK                         _______ _______ _______ _____ _____    ______ ____
ROOT
ATOM      1  C   LIG    1       -2.401   0.838   0.126  0.00  0.00    -0.330 A 
ATOM      2  C   LIG    1       -3.153   0.316  -0.921  0.00  0.00    +0.490 A 
ATOM      3  N   LIG    1       -4.239  -0.353  -0.439  0.00  0.00    -0.440 N 
ATOM      4  C   LIG    1       -4.265  -0.310   0.942  0.00  0.00    +0.290 A 
ATOM      5  N   LIG    1       -5.087  -0.793   1.848  0.00  0.00    -0.430 NA
ATOM      6  C   LIG    1       -4.836  -0.596   3.149  0.00  0.00    +0.100 A 
ATOM      7  C   LIG    1       -5.707  -1.113   4.125  0.00  0.00    +0.060 A 
ATOM      8  C   LIG    1       -5.449  -0.902   5.444  0.00  0.00    +0.040 A 
ATOM      9  C   LIG    1       -4.330  -0.177   5.848  0.00  0.00    +0.040 A 
ATOM     10  C   LIG    1       -3.464   0.339   4.933  0.00  0.00    +0.060 A 
ATOM     11  C   LIG    1       -3.698   0.141   3.560  0.00  0.00    +0.090 A 
ATOM     12  N   LIG    1       -2.853   0.643   2.651  0.00  0.00    -0.420 NA
ATOM     13  C   LIG    1       -3.086   0.449   1.369  0.00  0.00    +0.180 A 
ENDROOT
BRANCH   3  14
ATOM     14  C   LIG    1       -5.197  -0.994  -1.235  0.00  0.00    +0.100 A 
ATOM     15  C   LIG    1       -6.508  -0.539  -1.247  0.00  0.00    +0.040 A 
ATOM     16  C   LIG    1       -7.450  -1.170  -2.037  0.00  0.00    +0.040 A 
ATOM     17  C   LIG    1       -7.089  -2.262  -2.806  0.00  0.00    +0.030 A 
ATOM     18  C   LIG    1       -5.785  -2.721  -2.791  0.00  0.00    +0.030 A 
ATOM     19  C   LIG    1       -4.838  -2.090  -2.008  0.00  0.00    +0.020 A 
ENDBRANCH   3  14
BRANCH   1  22
ATOM     20  N   LIG    1       -0.011   0.966   0.007  0.00  0.00    -0.670 N 
ATOM     21  H   LIG    1        0.028  -0.003   0.007  0.00  0.00    +0.410 HD
ATOM     22  C   LIG    1       -1.204   1.592   0.017  0.00  0.00    +0.620 C 
ATOM     23  O   LIG    1       -1.256   2.806  -0.067  0.00  0.00    -0.510 OA
BRANCH  20  28
ATOM     24  C   LIG    1        4.784   3.996  -0.056  0.00  0.00    +0.080 C 
ATOM     25  C   LIG    1        3.510   3.191  -0.039  0.00  0.00    -0.100 A 
ATOM     26  C   LIG    1        2.396   3.649  -0.718  0.00  0.00    +0.020 A 
ATOM     27  C   LIG    1        1.228   2.911  -0.709  0.00  0.00    +0.020 A 
ATOM     28  C   LIG    1        1.171   1.713  -0.008  0.00  0.00    +0.140 A 
ATOM     29  C   LIG    1        2.292   1.256   0.673  0.00  0.00    -0.020 A 
ATOM     30  C   LIG    1        3.458   1.996   0.656  0.00  0.00    -0.070 A 
ATOM     31  C   LIG    1        4.675   1.501   1.394  0.00  0.00    +0.090 C 
ENDBRANCH  20  28
ENDBRANCH   1  22
BRANCH   2  32
ATOM     32  N   LIG    1       -2.845   0.453  -2.249  0.00  0.00    -0.820 N 
ATOM     33  H   LIG    1       -3.420   0.059  -2.924  0.00  0.00    +0.410 HD
ATOM     34  H   LIG    1       -2.052   0.945  -2.515  0.00  0.00    +0.430 HD
ENDBRANCH   2  32
TORSDOF 4
