REMARK  Name = ZINCqH0000002N41.0
REMARK                            x       y       z     vdW  Elec       q    Type
REMARK                         _______ _______ _______ _____ _____    ______ ____
ROOT
ATOM      1  C   LIG    1       -6.667   4.154   1.754  0.00  0.00    +0.520 C 
ATOM      2  N   LIG    1       -5.736   3.324   1.244  0.00  0.00    -0.720 N 
ATOM      3  H   LIG    1       -5.574   2.462   1.659  0.00  0.00    +0.400 HD
ATOM      4  O   LIG    1       -6.868   5.232   1.235  0.00  0.00    -0.530 OA
ENDROOT
BRANCH   2   5
ATOM      5  C   LIG    1       -4.967   3.723   0.062  0.00  0.00    +0.290 C 
ATOM      6  C   LIG    1       -5.757   3.377  -1.201  0.00  0.00    +0.040 C 
BRANCH   5   7
ATOM      7  C   LIG    1       -3.651   2.990   0.048  0.00  0.00    -0.110 A 
ATOM      8  C   LIG    1       -3.598   1.660   0.420  0.00  0.00    +0.050 A 
ATOM      9  C   LIG    1       -2.393   0.984   0.408  0.00  0.00    -0.020 A 
ATOM     10  C   LIG    1       -1.234   1.644   0.017  0.00  0.00    +0.160 A 
ATOM     11  N   LIG    1       -0.011   0.966   0.007  0.00  0.00    -0.660 N 
ATOM     12  H   LIG    1        0.002  -0.004   0.002  0.00  0.00    +0.410 HD
ATOM     13  C   LIG    1        1.148   1.650   0.000  0.00  0.00    +0.520 C 
ATOM     14  C   LIG    1        1.154   3.155   0.028  0.00  0.00    +0.080 C 
ATOM     15  C   LIG    1       -0.032   3.695  -0.772  0.00  0.00    +0.100 C 
ATOM     16  O   LIG    1        2.200   1.047  -0.029  0.00  0.00    -0.520 OA
ATOM     17  C   LIG    1       -1.290   2.980  -0.352  0.00  0.00    -0.120 A 
ATOM     18  C   LIG    1       -2.498   3.650  -0.338  0.00  0.00    +0.060 A 
ENDBRANCH   5   7
ENDBRANCH   2   5
BRANCH   1  19
ATOM     19  C   LIG    1       -7.457   3.744   2.970  0.00  0.00    +0.060 C 
BRANCH  19  20
ATOM     20  C   LIG    1       -8.423   4.841   3.335  0.00  0.00    +0.130 A 
ATOM     21  C   LIG    1       -8.059   6.161   3.149  0.00  0.00    +0.020 A 
ATOM     22  C   LIG    1       -8.956   7.163   3.488  0.00  0.00    +0.050 A 
ATOM     23  C   LIG    1      -10.190   6.798   4.003  0.00  0.00    -0.040 A 
ATOM     24  C   LIG    1      -10.484   5.456   4.160  0.00  0.00    +0.250 A 
ATOM     25  N   LIG    1       -9.609   4.530   3.822  0.00  0.00    -0.480 NA
ENDBRANCH  19  20
BRANCH  19  26
ATOM     26  C   LIG    1       -6.502   3.495   4.139  0.00  0.00    +0.040 C 
BRANCH  26  28
ATOM     27  C   LIG    1       -6.336   2.710   6.505  0.00  0.00    +0.010 C 
ATOM     28  C   LIG    1       -7.290   2.959   5.336  0.00  0.00    +0.020 C 
ENDBRANCH  26  28
ENDBRANCH  19  26
ENDBRANCH   1  19
TORSDOF 6
