REMARK  Name = ZINCb800000003oL.0
REMARK                            x       y       z     vdW  Elec       q    Type
REMARK                         _______ _______ _______ _____ _____    ______ ____
ROOT
ATOM      1  C   LIG    1       -1.344   1.804   0.108  0.00  0.00    +0.100 C 
ATOM      2  C   LIG    1       -1.593   2.383   1.502  0.00  0.00    +0.040 C 
ATOM      3  C   LIG    1       -2.662   1.517   0.830  0.00  0.00    +0.040 C 
ENDROOT
BRANCH   1   5
ATOM      4  C   LIG    1       -0.542  -0.235  -0.959  0.00  0.00    +0.550 C 
ATOM      5  N   LIG    1       -0.382   0.705  -0.006  0.00  0.00    -0.700 N 
ATOM      6  H   LIG    1        0.368   0.651   0.607  0.00  0.00    +0.400 HD
ATOM      7  O   LIG    1       -1.530  -0.219  -1.668  0.00  0.00    -0.530 OA
BRANCH   4   9
ATOM      8  C   LIG    1        0.321  -2.205  -2.082  0.00  0.00    +0.150 C 
ATOM      9  C   LIG    1        0.478  -1.279  -1.141  0.00  0.00    -0.090 C 
ENDBRANCH   4   9
ENDBRANCH   1   5
BRANCH   1  10
ATOM     10  C   LIG    1       -1.383   2.772  -1.076  0.00  0.00    +0.080 C 
BRANCH  10  11
ATOM     11  C   LIG    1        0.020   3.328  -1.327  0.00  0.00    +0.170 C 
BRANCH  11  12
ATOM     12  O   LIG    1       -0.037   4.319  -2.356  0.00  0.00    -0.570 OA
ATOM     13  H   LIG    1        0.819   4.715  -2.568  0.00  0.00    +0.380 HD
ENDBRANCH  11  12
ENDBRANCH  10  11
ENDBRANCH   1  10
TORSDOF 5
