REMARK  Name = ZINCvU0000000JAH.0
REMARK                            x       y       z     vdW  Elec       q    Type
REMARK                         _______ _______ _______ _____ _____    ______ ____
ROOT
ATOM      1  C   LIG    1       -3.767  -5.232  -0.445  0.00  0.00    +0.360 A 
ATOM      2  N   LIG    1       -4.778  -4.398  -0.411  0.00  0.00    -0.510 NA
ATOM      3  C   LIG    1       -6.053  -4.829  -0.489  0.00  0.00    +0.090 A 
ATOM      4  C   LIG    1       -6.312  -6.191  -0.609  0.00  0.00    -0.230 A 
ATOM      5  C   LIG    1       -7.741  -6.474  -0.679  0.00  0.00    +0.010 A 
ATOM      6  C   LIG    1       -8.519  -5.395  -0.616  0.00  0.00    -0.040 A 
ATOM      7  C   LIG    1       -5.202  -7.084  -0.645  0.00  0.00    +0.560 A 
ATOM      8  O   LIG    1       -5.377  -8.286  -0.749  0.00  0.00    -0.500 OA
ATOM      9  S   LIG    1       -7.566  -3.932  -0.465  0.00  0.00    +0.210 S 
ATOM     10  N   LIG    1       -3.956  -6.578  -0.567  0.00  0.00    -0.520 N 
ATOM     11  C   LIG    1       -2.800  -7.477  -0.608  0.00  0.00    +0.330 C 
ENDROOT
BRANCH   5  12
ATOM     12  C   LIG    1       -8.281  -7.848  -0.809  0.00  0.00    -0.040 A 
ATOM     13  C   LIG    1       -7.789  -8.703  -1.795  0.00  0.00    +0.060 A 
ATOM     14  C   LIG    1       -8.292  -9.983  -1.907  0.00  0.00    +0.000 A 
ATOM     15  C   LIG    1       -9.291 -10.415  -1.053  0.00  0.00    +0.010 A 
ATOM     16  C   LIG    1       -9.788  -9.569  -0.078  0.00  0.00    -0.010 A 
ATOM     17  C   LIG    1       -9.288  -8.288   0.049  0.00  0.00    +0.020 A 
ENDBRANCH   5  12
BRANCH   1  18
ATOM     18  S   LIG    1       -2.126  -4.600  -0.338  0.00  0.00    +0.100 S 
BRANCH  18  19
ATOM     19  C   LIG    1       -2.478  -2.830  -0.206  0.00  0.00    +0.120 C 
BRANCH  19  22
ATOM     20  N   LIG    1       -1.201  -0.723   0.009  0.00  0.00    -0.650 N 
ATOM     21  H   LIG    1       -2.045  -0.254   0.100  0.00  0.00    +0.420 HD
ATOM     22  C   LIG    1       -1.184  -2.066  -0.100  0.00  0.00    +0.530 C 
ATOM     23  O   LIG    1       -0.126  -2.660  -0.113  0.00  0.00    -0.500 OA
BRANCH  20  30
ATOM     24  C   LIG    1        0.074   1.250   0.595  0.00  0.00    +0.110 A 
ATOM     25  C   LIG    1        1.265   1.958   0.574  0.00  0.00    -0.040 A 
ATOM     26  C   LIG    1        2.378   1.421  -0.046  0.00  0.00    +0.060 A 
ATOM     27  C   LIG    1        2.307   0.176  -0.646  0.00  0.00    -0.050 A 
ATOM     28  C   LIG    1        1.121  -0.536  -0.629  0.00  0.00    +0.070 A 
ATOM     29 CL   LIG    1        3.708  -0.492  -1.423  0.00  0.00    -0.060 Cl
ATOM     30  C   LIG    1        0.001  -0.003  -0.009  0.00  0.00    +0.130 A 
BRANCH  24  32
ATOM     31  C   LIG    1       -0.874   3.069   1.798  0.00  0.00    +0.250 C 
ATOM     32  O   LIG    1       -1.022   1.780   1.200  0.00  0.00    -0.320 OA
ENDBRANCH  24  32
ENDBRANCH  20  30
ENDBRANCH  19  22
ENDBRANCH  18  19
ENDBRANCH   1  18
TORSDOF 6
