REMARK  Name = ZINCvU0000000B8Q.0
REMARK                            x       y       z     vdW  Elec       q    Type
REMARK                         _______ _______ _______ _____ _____    ______ ____
ROOT
ATOM      1  C   LIG    1        5.057   4.381  -0.714  0.00  0.00    +0.110 C 
ENDROOT
BRANCH   1   2
ATOM      2  C   LIG    1        6.345   5.128  -0.477  0.00  0.00    +0.540 C 
ATOM      3  N   LIG    1        6.314   6.429  -0.125  0.00  0.00    -0.560 N 
ATOM      4  O   LIG    1        7.408   4.559  -0.604  0.00  0.00    -0.500 OA
BRANCH   3   5
ATOM      5  C   LIG    1        5.096   7.055   0.122  0.00  0.00    +0.080 C 
ATOM      6  C   LIG    1        4.407   6.668   1.159  0.00  0.00    -0.030 C 
ATOM      7  C   LIG    1        3.078   7.247   1.547  0.00  0.00    +0.080 C 
ATOM      8  C   LIG    1        2.856   8.583   0.835  0.00  0.00    +0.020 C 
ATOM      9  C   LIG    1        3.153   8.393  -0.658  0.00  0.00    +0.020 C 
ATOM     10  C   LIG    1        4.651   8.131  -0.825  0.00  0.00    +0.070 C 
ENDBRANCH   3   5
BRANCH   3  11
ATOM     11  C   LIG    1        7.564   7.184  -0.003  0.00  0.00    +0.430 C 
BRANCH  11  12
ATOM     12  C   LIG    1        7.975   7.699  -1.358  0.00  0.00    -0.040 A 
ATOM     13  C   LIG    1        7.615   8.879  -1.893  0.00  0.00    -0.040 A 
ATOM     14  C   LIG    1        8.223   8.954  -3.167  0.00  0.00    -0.070 A 
ATOM     15  C   LIG    1        8.911   7.810  -3.338  0.00  0.00    +0.170 A 
ATOM     16  O   LIG    1        8.757   7.054  -2.239  0.00  0.00    -0.160 OA
ENDBRANCH  11  12
ENDBRANCH   3  11
ENDBRANCH   1   2
BRANCH   1  17
ATOM     17  S   LIG    1        5.428   2.712  -1.308  0.00  0.00    +0.070 S 
BRANCH  17  28
ATOM     18  N   LIG    1        3.635   0.803  -1.942  0.00  0.00    -0.520 N 
ATOM     19  C   LIG    1        2.397   0.278  -2.101  0.00  0.00    +0.560 A 
ATOM     20  C   LIG    1        1.248   1.135  -1.778  0.00  0.00    -0.200 A 
ATOM     21  C   LIG    1       -0.064   0.685  -1.909  0.00  0.00    +0.100 A 
ATOM     22  C   LIG    1       -1.106   1.528  -1.593  0.00  0.00    -0.010 A 
ATOM     23  C   LIG    1       -0.860   2.819  -1.145  0.00  0.00    +0.060 A 
ATOM     24  C   LIG    1        0.428   3.284  -1.007  0.00  0.00    +0.030 A 
ATOM     25  C   LIG    1        1.503   2.449  -1.322  0.00  0.00    +0.170 A 
ATOM     26  N   LIG    1        2.785   2.868  -1.200  0.00  0.00    -0.530 NA
ATOM     27  O   LIG    1        2.242  -0.862  -2.498  0.00  0.00    -0.500 OA
ATOM     28  C   LIG    1        3.792   2.084  -1.496  0.00  0.00    +0.360 A 
BRANCH  18  30
ATOM     29  C   LIG    1        4.821  -1.256  -1.365  0.00  0.00    +0.050 C 
ATOM     30  C   LIG    1        4.814  -0.009  -2.252  0.00  0.00    +0.220 C 
ATOM     31  C   LIG    1        4.772  -0.429  -3.722  0.00  0.00    +0.050 C 
ENDBRANCH  18  30
ENDBRANCH  17  28
ENDBRANCH   1  17
TORSDOF 7
