REMARK  Name = ZINCrD00000760UZ.0
REMARK                            x       y       z     vdW  Elec       q    Type
REMARK                         _______ _______ _______ _____ _____    ______ ____
ROOT
ATOM      1  C   LIG    1       -1.262   5.906  -0.061  0.00  0.00    +0.370 A 
ATOM      2  N   LIG    1       -1.355   7.213  -0.061  0.00  0.00    -0.530 NA
ATOM      3  C   LIG    1       -0.257   8.000   0.029  0.00  0.00    +0.160 A 
ATOM      4  C   LIG    1       -0.356   9.395   0.029  0.00  0.00    +0.030 A 
ATOM      5  C   LIG    1        0.784  10.159   0.123  0.00  0.00    +0.070 A 
ATOM      6  C   LIG    1        2.035   9.563   0.217  0.00  0.00    +0.000 A 
ATOM      7  C   LIG    1        2.160   8.191   0.218  0.00  0.00    +0.100 A 
ATOM      8  C   LIG    1        1.018   7.397   0.124  0.00  0.00    -0.200 A 
ATOM      9  C   LIG    1        1.093   5.930   0.128  0.00  0.00    +0.560 A 
ATOM     10  O   LIG    1        2.161   5.353   0.213  0.00  0.00    -0.490 OA
ATOM     11  N   LIG    1       -0.069   5.243   0.028  0.00  0.00    -0.490 N 
ENDROOT
BRANCH  11  12
ATOM     12  C   LIG    1       -0.050   3.842   0.022  0.00  0.00    +0.090 A 
ATOM     13  C   LIG    1        0.054   3.153  -1.179  0.00  0.00    +0.040 A 
ATOM     14  C   LIG    1        0.072   1.772  -1.182  0.00  0.00    +0.030 A 
ATOM     15  C   LIG    1       -0.014   1.076   0.009  0.00  0.00    +0.030 A 
ATOM     16  C   LIG    1       -0.123   1.759   1.206  0.00  0.00    +0.030 A 
ATOM     17  C   LIG    1       -0.136   3.140   1.216  0.00  0.00    +0.040 A 
ENDBRANCH  11  12
BRANCH   1  18
ATOM     18  S   LIG    1       -2.743   4.959  -0.182  0.00  0.00    +0.040 S 
BRANCH  18  19
ATOM     19  C   LIG    1       -3.963   6.293  -0.269  0.00  0.00    +0.200 C 
BRANCH  19  23
ATOM     20  O   LIG    1       -8.225   5.149   1.529  0.00  0.00    -0.460 OA
ATOM     21  C   LIG    1       -7.458   5.157   0.579  0.00  0.00    +0.400 A 
ATOM     22  C   LIG    1       -6.159   5.710   0.695  0.00  0.00    -0.100 A 
ATOM     23  C   LIG    1       -5.345   5.702  -0.380  0.00  0.00    +0.140 A 
ATOM     24  O   LIG    1       -5.744   5.174  -1.543  0.00  0.00    -0.200 OA
ATOM     25  C   LIG    1       -6.961   4.635  -1.699  0.00  0.00    +0.190 A 
ATOM     26  C   LIG    1       -7.842   4.605  -0.675  0.00  0.00    -0.030 A 
BRANCH  26  27
ATOM     27  O   LIG    1       -9.076   4.056  -0.840  0.00  0.00    -0.440 OA
ATOM     28  H   LIG    1       -9.237   3.709  -1.729  0.00  0.00    +0.400 HD
ENDBRANCH  26  27
ENDBRANCH  19  23
ENDBRANCH  18  19
ENDBRANCH   1  18
TORSDOF 5
