REMARK  Name = ZINCrD00000F5LAD.0
REMARK                            x       y       z     vdW  Elec       q    Type
REMARK                         _______ _______ _______ _____ _____    ______ ____
ROOT
ATOM      1  C   LIG    1       -2.407   5.192  -0.119  0.00  0.00    +0.550 C 
ATOM      2  N   LIG    1       -2.365   3.845  -0.074  0.00  0.00    -0.560 N 
ATOM      3  O   LIG    1       -1.373   5.832  -0.149  0.00  0.00    -0.530 OA
ENDROOT
BRANCH   2   4
ATOM      4  C   LIG    1       -1.133   3.187   0.023  0.00  0.00    +0.120 A 
ATOM      5  C   LIG    1       -0.689   2.388  -1.022  0.00  0.00    +0.030 A 
ATOM      6  C   LIG    1        0.523   1.734  -0.925  0.00  0.00    -0.020 A 
ATOM      7  C   LIG    1        1.303   1.884   0.214  0.00  0.00    +0.150 A 
ATOM      8  C   LIG    1        0.862   2.688   1.258  0.00  0.00    +0.020 A 
ATOM      9  C   LIG    1       -0.353   3.337   1.162  0.00  0.00    +0.040 A 
BRANCH   7  10
ATOM     10  N   LIG    1        2.535   1.226   0.311  0.00  0.00    -0.560 N 
ATOM     11  C   LIG    1        3.359   1.485   1.346  0.00  0.00    +0.510 C 
ATOM     12  O   LIG    1        2.994   2.215   2.243  0.00  0.00    -0.520 OA
ATOM     13  C   LIG    1        4.733   0.867   1.389  0.00  0.00    +0.100 C 
ATOM     14  C   LIG    1        2.930   0.255  -0.713  0.00  0.00    +0.300 C 
ENDBRANCH   7  10
ENDBRANCH   2   4
BRANCH   1  16
ATOM     15  C   LIG    1       -3.745   7.215  -0.177  0.00  0.00    +0.150 C 
ATOM     16  C   LIG    1       -3.703   5.886  -0.133  0.00  0.00    -0.090 C 
ENDBRANCH   1  16
BRANCH   2  17
ATOM     17  C   LIG    1       -3.607   3.071  -0.126  0.00  0.00    +0.340 C 
BRANCH  17  18
ATOM     18  C   LIG    1       -4.121   2.851   1.274  0.00  0.00    -0.130 A 
ATOM     19  C   LIG    1       -3.730   1.730   1.984  0.00  0.00    +0.050 A 
ATOM     20  C   LIG    1       -4.195   1.528   3.269  0.00  0.00    -0.010 A 
ATOM     21  C   LIG    1       -5.064   2.446   3.844  0.00  0.00    +0.150 A 
ATOM     22  C   LIG    1       -5.459   3.567   3.126  0.00  0.00    +0.010 A 
ATOM     23  C   LIG    1       -4.986   3.767   1.844  0.00  0.00    +0.040 A 
BRANCH  21  24
ATOM     24  N   LIG    1       -5.541   2.240   5.143  0.00  0.00    -0.680 N 
ATOM     25  H   LIG    1       -4.972   1.824   5.809  0.00  0.00    +0.410 HD
ATOM     26  C   LIG    1       -6.792   2.621   5.469  0.00  0.00    +0.510 C 
ATOM     27  O   LIG    1       -7.537   3.054   4.615  0.00  0.00    -0.520 OA
ATOM     28  C   LIG    1       -7.266   2.509   6.895  0.00  0.00    +0.110 C 
ENDBRANCH  21  24
ENDBRANCH  17  18
ENDBRANCH   2  17
TORSDOF 6
