REMARK  Name = ZINCrH00000tj1e0.0
REMARK                            x       y       z     vdW  Elec       q    Type
REMARK                         _______ _______ _______ _____ _____    ______ ____
ROOT
ATOM      1  C   LIG    1        2.389   5.494   0.229  0.00  0.00    -0.260 C 
ATOM      2  C   LIG    1        2.349   4.148   0.112  0.00  0.00    +0.250 C 
ATOM      3  N   LIG    1        1.170   3.494  -0.101  0.00  0.00    -0.450 N 
ATOM      4  C   LIG    1       -0.014   4.111  -0.199  0.00  0.00    +0.540 C 
ATOM      5  N   LIG    1       -0.137   5.449  -0.099  0.00  0.00    -0.650 N 
ATOM      6  H   LIG    1       -1.005   5.875  -0.172  0.00  0.00    +0.450 HD
ATOM      7  S   LIG    1       -1.420   3.168  -0.460  0.00  0.00    -0.560 S 
ATOM      8  C   LIG    1        3.628   3.358   0.212  0.00  0.00    +0.180 C 
ATOM      9  C   LIG    1        1.079   6.249   0.126  0.00  0.00    +0.330 C 
ENDROOT
BRANCH   9  10
ATOM     10  C   LIG    1        0.892   7.030   1.402  0.00  0.00    -0.090 A 
ATOM     11  C   LIG    1        0.277   6.440   2.489  0.00  0.00    +0.010 A 
ATOM     12  C   LIG    1        0.109   7.153   3.662  0.00  0.00    +0.050 A 
ATOM     13  C   LIG    1        0.547   8.461   3.744  0.00  0.00    +0.000 A 
ATOM     14  C   LIG    1        1.159   9.055   2.653  0.00  0.00    +0.100 A 
ATOM     15  F   LIG    1        1.588  10.334   2.732  0.00  0.00    -0.140 F 
ATOM     16  C   LIG    1        1.331   8.338   1.481  0.00  0.00    +0.040 A 
ENDBRANCH   9  10
BRANCH   3  17
ATOM     17  C   LIG    1        1.200   2.097  -0.218  0.00  0.00    +0.070 A 
ATOM     18  C   LIG    1        1.377   1.508  -1.462  0.00  0.00    +0.090 A 
ATOM     19  C   LIG    1        1.407   0.132  -1.577  0.00  0.00    +0.000 A 
ATOM     20  C   LIG    1        1.260  -0.661  -0.448  0.00  0.00    +0.150 A 
ATOM     21  C   LIG    1        1.083  -0.073   0.796  0.00  0.00    -0.060 A 
ATOM     22  C   LIG    1        1.052   1.302   0.911  0.00  0.00    +0.090 A 
BRANCH  20  23
ATOM     23  O   LIG    1        1.290  -2.016  -0.562  0.00  0.00    -0.310 OA
ATOM     24  C   LIG    1        1.132  -2.771   0.641  0.00  0.00    +0.240 C 
ENDBRANCH  20  23
ENDBRANCH   3  17
BRANCH   1  25
ATOM     25  C   LIG    1        3.610   6.174   0.444  0.00  0.00    +0.530 C 
ATOM     26  O   LIG    1        4.650   5.547   0.523  0.00  0.00    -0.510 OA
BRANCH  25  28
ATOM     27  C   LIG    1        4.891   8.139   0.778  0.00  0.00    +0.250 C 
ATOM     28  O   LIG    1        3.622   7.518   0.561  0.00  0.00    -0.350 OA
ENDBRANCH  25  28
ENDBRANCH   1  25
TORSDOF 5
