REMARK  Name = ZINCpe00000gN3pm.0
REMARK                            x       y       z     vdW  Elec       q    Type
REMARK                         _______ _______ _______ _____ _____    ______ ____
ROOT
ATOM      1  C   LIG    1        5.559   1.909  -0.601  0.00  0.00    +0.310 C 
ATOM      2  N   LIG    1        6.855   1.368  -0.210  0.00  0.00    -0.720 N 
ATOM      3  H   LIG    1        7.647   1.734  -0.634  0.00  0.00    +0.410 HD
ATOM      4  C   LIG    1        7.020   0.401   0.694  0.00  0.00    +0.520 C 
ATOM      5  C   LIG    1        5.880  -0.286   1.390  0.00  0.00    +0.080 C 
ATOM      6  C   LIG    1        4.606   0.550   1.254  0.00  0.00    +0.030 C 
ATOM      7  O   LIG    1        8.150   0.059   0.969  0.00  0.00    -0.540 OA
ATOM      8  C   LIG    1        4.438   0.941  -0.220  0.00  0.00    +0.230 C 
ENDROOT
BRANCH   1  14
ATOM      9  C   LIG    1        5.876  -0.252  -2.800  0.00  0.00    +0.350 C 
ATOM     10  N   LIG    1        5.681   1.180  -3.039  0.00  0.00    -0.350 N 
ATOM     11  N   LIG    1        5.602   1.804  -4.290  0.00  0.00    -0.280 NA
ATOM     12  C   LIG    1        5.429   3.087  -4.098  0.00  0.00    +0.240 A 
ATOM     13  C   LIG    1        5.387   3.319  -2.719  0.00  0.00    -0.100 A 
ATOM     14  C   LIG    1        5.541   2.131  -2.091  0.00  0.00    +0.050 A 
ENDBRANCH   1  14
BRANCH   8  15
ATOM     15  N   LIG    1        3.140   1.593  -0.411  0.00  0.00    -0.710 N 
ATOM     16  H   LIG    1        3.075   2.560  -0.388  0.00  0.00    +0.400 HD
ATOM     17  C   LIG    1        2.036   0.848  -0.618  0.00  0.00    +0.570 C 
ATOM     18  O   LIG    1        2.117  -0.365  -0.647  0.00  0.00    -0.520 OA
BRANCH  17  19
ATOM     19  C   LIG    1        0.726   1.505  -0.811  0.00  0.00    -0.110 A 
ATOM     20  C   LIG    1        0.629   2.897  -0.779  0.00  0.00    +0.040 A 
ATOM     21  C   LIG    1       -0.596   3.506  -0.960  0.00  0.00    +0.080 A 
ATOM     22  C   LIG    1       -1.728   2.741  -1.173  0.00  0.00    -0.100 A 
ATOM     23  C   LIG    1       -1.639   1.358  -1.211  0.00  0.00    +0.100 A 
ATOM     24  F   LIG    1       -2.748   0.617  -1.424  0.00  0.00    -0.130 F 
ATOM     25  C   LIG    1       -0.419   0.737  -1.026  0.00  0.00    +0.060 A 
BRANCH  22  26
ATOM     26  C   LIG    1       -3.062   3.413  -1.370  0.00  0.00    +0.250 C 
BRANCH  26  27
ATOM     27  O   LIG    1       -2.897   4.830  -1.294  0.00  0.00    -0.570 OA
ATOM     28  H   LIG    1       -3.717   5.329  -1.412  0.00  0.00    +0.390 HD
ENDBRANCH  26  27
ENDBRANCH  22  26
ENDBRANCH  17  19
ENDBRANCH   8  15
TORSDOF 5
