REMARK  Name = ZINCqH00000335RO.0
REMARK                            x       y       z     vdW  Elec       q    Type
REMARK                         _______ _______ _______ _____ _____    ______ ____
ROOT
ATOM      1  C   LIG    1        3.426   2.699  -1.179  0.00  0.00    +0.270 C 
ENDROOT
BRANCH   1   2
ATOM      2  N   LIG    1        3.913   2.762  -2.559  0.00  0.00    -0.730 N 
ATOM      3  H   LIG    1        3.528   2.183  -3.236  0.00  0.00    +0.410 HD
ATOM      4  C   LIG    1        4.894   3.625  -2.889  0.00  0.00    +0.710 C 
ATOM      5  N   LIG    1        5.342   3.683  -4.159  0.00  0.00    -0.740 N 
ATOM      6  H   LIG    1        4.958   3.104  -4.835  0.00  0.00    +0.400 HD
ATOM      7  O   LIG    1        5.376   4.350  -2.040  0.00  0.00    -0.580 OA
BRANCH   5   8
ATOM      8  C   LIG    1        6.409   4.621  -4.517  0.00  0.00    +0.340 C 
BRANCH   8   9
ATOM      9  C   LIG    1        6.723   4.488  -5.985  0.00  0.00    -0.120 A 
ATOM     10  C   LIG    1        7.689   3.595  -6.407  0.00  0.00    +0.070 A 
ATOM     11  C   LIG    1        7.974   3.468  -7.753  0.00  0.00    -0.020 A 
ATOM     12  C   LIG    1        7.298   4.245  -8.679  0.00  0.00    +0.110 A 
ATOM     13  C   LIG    1        6.334   5.144  -8.255  0.00  0.00    -0.020 A 
ATOM     14  F   LIG    1        7.580   4.128  -9.995  0.00  0.00    -0.140 F 
ATOM     15  C   LIG    1        6.047   5.264  -6.908  0.00  0.00    +0.070 A 
ENDBRANCH   8   9
ENDBRANCH   5   8
ENDBRANCH   1   2
BRANCH   1  16
ATOM     16  C   LIG    1        2.012   2.177  -1.168  0.00  0.00    +0.510 C 
ATOM     17  N   LIG    1        1.356   2.033   0.000  0.00  0.00    -0.720 N 
ATOM     18  H   LIG    1        1.793   2.265   0.834  0.00  0.00    +0.400 HD
ATOM     19  O   LIG    1        1.465   1.887  -2.211  0.00  0.00    -0.530 OA
BRANCH  17  20
ATOM     20  C   LIG    1       -0.019   1.526   0.010  0.00  0.00    +0.230 C 
ATOM     21  C   LIG    1        0.002  -0.004   0.002  0.00  0.00    +0.030 C 
BRANCH  20  22
ATOM     22  C   LIG    1       -0.735   2.019   1.269  0.00  0.00    +0.020 C 
BRANCH  22  23
ATOM     23  C   LIG    1       -0.866   3.543   1.217  0.00  0.00    +0.000 C 
BRANCH  23  24
ATOM     24  C   LIG    1       -1.582   4.036   2.476  0.00  0.00    -0.030 C 
ATOM     25  C   LIG    1       -1.824   5.543   2.368  0.00  0.00    +0.000 C 
ATOM     26  C   LIG    1       -0.715   3.746   3.703  0.00  0.00    +0.010 C 
ENDBRANCH  23  24
ENDBRANCH  22  23
ENDBRANCH  20  22
ENDBRANCH  17  20
ENDBRANCH   1  16
BRANCH   1  27
ATOM     27  C   LIG    1        4.321   1.762  -0.365  0.00  0.00    +0.010 C 
BRANCH  27  29
ATOM     28  C   LIG    1        6.623   1.419   0.542  0.00  0.00    +0.000 C 
ATOM     29  C   LIG    1        5.728   2.356  -0.271  0.00  0.00    +0.030 C 
ENDBRANCH  27  29
ENDBRANCH   1  27
TORSDOF 10
