REMARK  Name = ZINCvU0000000Fhm.0
REMARK                            x       y       z     vdW  Elec       q    Type
REMARK                         _______ _______ _______ _____ _____    ______ ____
ROOT
ATOM      1  N   LIG    1        4.603   4.279  -0.019  0.00  0.00    -0.480 N 
ATOM      2  C   LIG    1        3.603   3.330  -0.014  0.00  0.00    +0.290 A 
ATOM      3  N   LIG    1        3.590   2.016  -0.021  0.00  0.00    -0.440 NA
ATOM      4  C   LIG    1        2.421   1.361  -0.013  0.00  0.00    +0.100 A 
ATOM      5  C   LIG    1        2.398  -0.045  -0.020  0.00  0.00    +0.060 A 
ATOM      6  C   LIG    1        1.207  -0.704  -0.013  0.00  0.00    +0.030 A 
ATOM      7  C   LIG    1        0.002  -0.004   0.002  0.00  0.00    +0.040 A 
ATOM      8  C   LIG    1       -0.016   1.356   0.009  0.00  0.00    +0.060 A 
ATOM      9  C   LIG    1        1.195   2.073   0.002  0.00  0.00    +0.090 A 
ATOM     10  N   LIG    1        1.188   3.410   0.008  0.00  0.00    -0.410 NA
ATOM     11  C   LIG    1        2.335   4.070   0.001  0.00  0.00    +0.210 A 
ATOM     12  C   LIG    1        2.686   5.441   0.005  0.00  0.00    -0.820 A 
ATOM     13  C   LIG    1        4.036   5.529  -0.007  0.00  0.00    +0.560 A 
ENDROOT
BRANCH  12  14
ATOM     14  S   LIG    1        1.561   6.797   0.023  0.00  0.00    +2.620 S 
ATOM     15  O   LIG    1        0.337   6.311  -0.512  0.00  0.00    -0.900 OA
ATOM     16  O   LIG    1        2.261   7.907  -0.522  0.00  0.00    -0.950 OA
BRANCH  14  17
ATOM     17  C   LIG    1        1.244   7.190   1.711  0.00  0.00    -0.650 A 
ATOM     18  C   LIG    1        1.645   8.408   2.224  0.00  0.00    +0.150 A 
ATOM     19  C   LIG    1        1.396   8.716   3.550  0.00  0.00    -0.060 A 
ATOM     20  C   LIG    1        0.747   7.804   4.362  0.00  0.00    +0.110 A 
ATOM     21  C   LIG    1        0.345   6.585   3.849  0.00  0.00    +0.030 A 
ATOM     22 CL   LIG    1        1.901  10.247   4.195  0.00  0.00    -0.050 Cl
ATOM     23  C   LIG    1        0.589   6.279   2.522  0.00  0.00    +0.040 A 
ATOM     24 CL   LIG    1        0.079   4.751   1.876  0.00  0.00    +0.010 Cl
ENDBRANCH  14  17
ENDBRANCH  12  14
BRANCH  13  25
ATOM     25  N   LIG    1        4.748   6.715  -0.008  0.00  0.00    -0.820 N 
ATOM     26  H   LIG    1        5.718   6.699  -0.017  0.00  0.00    +0.410 HD
ATOM     27  H   LIG    1        4.277   7.563   0.000  0.00  0.00    +0.440 HD
ENDBRANCH  13  25
BRANCH   1  28
ATOM     28  C   LIG    1        6.041   3.998  -0.034  0.00  0.00    +0.300 C 
BRANCH  28  29
ATOM     29  C   LIG    1        6.528   3.908  -1.481  0.00  0.00    +0.010 C 
BRANCH  29  30
ATOM     30  C   LIG    1        8.030   3.615  -1.497  0.00  0.00    +0.020 C 
BRANCH  30  31
ATOM     31  C   LIG    1        8.517   3.525  -2.945  0.00  0.00    +0.000 C 
BRANCH  31  33
ATOM     32  C   LIG    1       10.505   3.141  -4.408  0.00  0.00    -0.010 C 
ATOM     33  C   LIG    1       10.018   3.231  -2.960  0.00  0.00    -0.010 C 
ENDBRANCH  31  33
ENDBRANCH  30  31
ENDBRANCH  29  30
ENDBRANCH  28  29
ENDBRANCH   1  28
TORSDOF 8
