REMARK  Name = ZINCqH0000037Ue6.0
REMARK                            x       y       z     vdW  Elec       q    Type
REMARK                         _______ _______ _______ _____ _____    ______ ____
ROOT
ATOM      1  C   LIG    1       -1.138   2.026   0.109  0.00  0.00    +0.620 C 
ATOM      2  N   LIG    1       -0.634   1.479  -1.015  0.00  0.00    -0.610 N 
ATOM      3  C   LIG    1       -0.657   0.023  -1.236  0.00  0.00    +0.290 C 
ATOM      4  C   LIG    1       -1.502  -0.258  -2.479  0.00  0.00    +0.270 C 
ATOM      5  N   LIG    1       -1.132   0.635  -3.569  0.00  0.00    -0.710 N 
ATOM      6  H   LIG    1       -1.347   0.357  -4.473  0.00  0.00    +0.410 HD
ATOM      7  C   LIG    1       -0.517   1.808  -3.410  0.00  0.00    +0.520 C 
ATOM      8  O   LIG    1       -0.331   2.500  -4.388  0.00  0.00    -0.530 OA
ATOM      9  C   LIG    1       -0.045   2.312  -2.074  0.00  0.00    +0.300 C 
ATOM     10  O   LIG    1       -1.655   1.317   0.953  0.00  0.00    -0.510 OA
ENDROOT
BRANCH   9  11
ATOM     11  C   LIG    1        1.458   2.227  -2.005  0.00  0.00    -0.080 A 
ATOM     12  C   LIG    1        2.090   1.011  -2.185  0.00  0.00    +0.040 A 
ATOM     13  C   LIG    1        3.469   0.933  -2.127  0.00  0.00    +0.060 A 
ATOM     14  C   LIG    1        4.216   2.071  -1.879  0.00  0.00    -0.080 A 
ATOM     15  C   LIG    1        3.583   3.286  -1.694  0.00  0.00    +0.060 A 
ATOM     16 BR   LIG    1        6.102   1.964  -1.793  0.00  0.00    -0.040 Br
ATOM     17  C   LIG    1        2.204   3.364  -1.757  0.00  0.00    +0.050 A 
ENDBRANCH   9  11
BRANCH   1  22
ATOM     18  C   LIG    1        0.164   7.183   0.747  0.00  0.00    +0.170 C 
ATOM     19  C   LIG    1       -0.463   5.820   0.605  0.00  0.00    -0.170 A 
ATOM     20  C   LIG    1       -1.774   5.578   0.693  0.00  0.00    -0.050 A 
ATOM     21  C   LIG    1       -2.137   4.256   0.532  0.00  0.00    +0.170 A 
ATOM     22  C   LIG    1       -1.066   3.428   0.309  0.00  0.00    -0.320 A 
ATOM     23  S   LIG    1        0.410   4.383   0.318  0.00  0.00    +0.260 S 
BRANCH  21  24
ATOM     24  O   LIG    1       -3.422   3.821   0.589  0.00  0.00    -0.300 OA
BRANCH  24  25
ATOM     25  C   LIG    1       -4.431   4.804   0.829  0.00  0.00    +0.600 C 
ATOM     26  F   LIG    1       -4.402   5.760  -0.193  0.00  0.00    -0.200 F 
ATOM     27  F   LIG    1       -4.191   5.428   2.058  0.00  0.00    -0.190 F 
ENDBRANCH  24  25
ENDBRANCH  21  24
ENDBRANCH   1  22
TORSDOF 4
