REMARK  Name = ZINCpe00000bFnwG.0
REMARK                            x       y       z     vdW  Elec       q    Type
REMARK                         _______ _______ _______ _____ _____    ______ ____
ROOT
ATOM      1  C   LIG    1        1.504   1.912  -0.349  0.00  0.00    +0.210 C 
ATOM      2  C   LIG    1        1.546   3.455  -0.348  0.00  0.00    +0.060 C 
ATOM      3  C   LIG    1        2.522   3.774  -1.515  0.00  0.00    +0.040 C 
ATOM      4  C   LIG    1        2.185   2.646  -2.522  0.00  0.00    +0.250 C 
ATOM      5  N   LIG    1        1.916   1.462  -1.686  0.00  0.00    -0.610 N 
ATOM      6  C   LIG    1        2.028   0.178  -2.083  0.00  0.00    +0.600 C 
ATOM      7  O   LIG    1        1.693  -0.721  -1.335  0.00  0.00    -0.520 OA
ENDROOT
BRANCH   6   8
ATOM      8  C   LIG    1        2.556  -0.135  -3.419  0.00  0.00    -0.210 A 
ATOM      9  C   LIG    1        1.760  -0.025  -4.519  0.00  0.00    +0.320 A 
ATOM     10  N   LIG    1        2.211  -0.300  -5.767  0.00  0.00    -0.620 N 
ATOM     11  H   LIG    1        1.602  -0.201  -6.515  0.00  0.00    +0.420 HD
ATOM     12  C   LIG    1        3.471  -0.710  -6.009  0.00  0.00    +0.550 A 
ATOM     13  C   LIG    1        4.409  -0.866  -4.890  0.00  0.00    -0.150 A 
ATOM     14  C   LIG    1        5.724  -1.287  -5.084  0.00  0.00    +0.100 A 
ATOM     15  C   LIG    1        6.563  -1.417  -3.998  0.00  0.00    +0.000 A 
ATOM     16  C   LIG    1        6.112  -1.133  -2.717  0.00  0.00    +0.060 A 
ATOM     17  C   LIG    1        4.816  -0.715  -2.503  0.00  0.00    +0.010 A 
ATOM     18  O   LIG    1        3.829  -0.950  -7.147  0.00  0.00    -0.510 OA
ATOM     19  C   LIG    1        3.952  -0.578  -3.586  0.00  0.00    +0.030 A 
ENDBRANCH   6   8
BRANCH   1  20
ATOM     20  C   LIG    1        0.082   1.431  -0.053  0.00  0.00    +0.260 C 
BRANCH  20  22
ATOM     21  C   LIG    1       -1.048  -0.675   0.424  0.00  0.00    +0.510 C 
ATOM     22  N   LIG    1        0.107   0.003   0.272  0.00  0.00    -0.710 N 
ATOM     23  H   LIG    1        0.956  -0.456   0.378  0.00  0.00    +0.410 HD
ATOM     24  O   LIG    1       -2.109  -0.102   0.292  0.00  0.00    -0.530 OA
BRANCH  21  25
ATOM     25  C   LIG    1       -1.022  -2.144   0.758  0.00  0.00    +0.200 C 
BRANCH  25  27
ATOM     26  C   LIG    1       -2.448  -4.022   1.183  0.00  0.00    +0.200 C 
ATOM     27  O   LIG    1       -2.360  -2.632   0.867  0.00  0.00    -0.370 OA
ENDBRANCH  25  27
ENDBRANCH  21  25
ENDBRANCH  20  22
ENDBRANCH   1  20
TORSDOF 5
