REMARK  Name = ZINCqH0000051jiZ.0
REMARK                            x       y       z     vdW  Elec       q    Type
REMARK                         _______ _______ _______ _____ _____    ______ ____
ROOT
ATOM      1  O   LIG    1       -1.077   1.937   0.018  0.00  0.00    -0.520 OA
ATOM      2  C   LIG    1       -0.016   1.344   0.009  0.00  0.00    +0.570 C 
ATOM      3  N   LIG    1        0.002  -0.004   0.002  0.00  0.00    -0.720 N 
ATOM      4  H   LIG    1        0.849  -0.478  -0.009  0.00  0.00    +0.400 HD
ENDROOT
BRANCH   2   5
ATOM      5  C   LIG    1        1.254   2.100   0.001  0.00  0.00    -0.190 A 
ATOM      6  C   LIG    1        2.478   1.431  -0.008  0.00  0.00    +0.340 A 
ATOM      7  N   LIG    1        3.610   2.105  -0.021  0.00  0.00    -0.480 NA
ATOM      8  C   LIG    1        3.635   3.424  -0.014  0.00  0.00    +0.360 A 
ATOM      9  C   LIG    1        2.464   4.161   0.001  0.00  0.00    -0.240 A 
ATOM     10  C   LIG    1        1.249   3.500   0.009  0.00  0.00    +0.200 A 
BRANCH   9  11
ATOM     11  C   LIG    1        2.513   5.667   0.008  0.00  0.00    +0.520 C 
ATOM     12  F   LIG    1        1.380   6.173  -0.638  0.00  0.00    -0.170 F 
ATOM     13  F   LIG    1        3.663   6.100  -0.660  0.00  0.00    -0.170 F 
ATOM     14  F   LIG    1        2.540   6.126   1.329  0.00  0.00    -0.170 F 
ENDBRANCH   9  11
ENDBRANCH   2   5
BRANCH   3  15
ATOM     15  C   LIG    1       -1.256  -0.754   0.010  0.00  0.00    +0.280 C 
BRANCH  15  16
ATOM     16  C   LIG    1       -0.957  -2.254  -0.001  0.00  0.00    +0.130 C 
BRANCH  16  17
ATOM     17  C   LIG    1       -2.251  -3.025   0.007  0.00  0.00    -0.010 A 
ATOM     18  C   LIG    1       -2.621  -3.962  -0.885  0.00  0.00    +0.160 A 
ATOM     19  O   LIG    1       -3.842  -4.402  -0.520  0.00  0.00    -0.190 OA
ATOM     20  C   LIG    1       -4.203  -3.733   0.588  0.00  0.00    +0.240 A 
ATOM     21  N   LIG    1       -3.237  -2.904   0.909  0.00  0.00    -0.470 NA
BRANCH  20  22
ATOM     22  C   LIG    1       -5.473  -3.905   1.325  0.00  0.00    -0.020 A 
ATOM     23  C   LIG    1       -5.727  -3.148   2.470  0.00  0.00    +0.070 A 
ATOM     24  C   LIG    1       -6.917  -3.309   3.150  0.00  0.00    +0.010 A 
ATOM     25  C   LIG    1       -7.852  -4.227   2.705  0.00  0.00    +0.030 A 
ATOM     26  C   LIG    1       -7.604  -4.984   1.574  0.00  0.00    +0.010 A 
ATOM     27  C   LIG    1       -6.421  -4.828   0.882  0.00  0.00    +0.040 A 
ENDBRANCH  20  22
ENDBRANCH  16  17
ENDBRANCH  15  16
ENDBRANCH   3  15
TORSDOF 6
