REMARK  Name = ZINCpk00000xIkRc.0
REMARK                            x       y       z     vdW  Elec       q    Type
REMARK                         _______ _______ _______ _____ _____    ______ ____
ROOT
ATOM      1  O   LIG    1        2.903   3.939  -3.092  0.00  0.00    -0.530 OA
ATOM      2  C   LIG    1        2.832   3.133  -2.189  0.00  0.00    +0.570 C 
ATOM      3  N   LIG    1        1.640   2.599  -1.854  0.00  0.00    -0.600 N 
ATOM      4  C   LIG    1        1.424   1.548  -0.850  0.00  0.00    +0.260 C 
ATOM      5  C   LIG    1       -0.088   1.240  -0.827  0.00  0.00    +0.020 C 
ATOM      6  C   LIG    1       -0.564   1.733  -2.219  0.00  0.00    +0.110 C 
ATOM      7  C   LIG    1        0.337   2.978  -2.431  0.00  0.00    +0.320 C 
ENDROOT
BRANCH   2   8
ATOM      8  C   LIG    1        4.076   2.727  -1.440  0.00  0.00    -0.150 C 
ATOM      9  C   LIG    1        5.165   3.786  -1.255  0.00  0.00    +0.070 C 
ATOM     10  C   LIG    1        4.307   3.353  -0.063  0.00  0.00    +0.050 C 
BRANCH   8  11
ATOM     11  C   LIG    1        4.525   1.279  -1.643  0.00  0.00    +0.130 C 
BRANCH  11  12
ATOM     12  C   LIG    1        4.958   1.083  -3.073  0.00  0.00    -0.120 A 
ATOM     13  C   LIG    1        6.286   1.238  -3.421  0.00  0.00    +0.050 A 
ATOM     14  C   LIG    1        6.683   1.058  -4.733  0.00  0.00    +0.000 A 
ATOM     15  C   LIG    1        5.752   0.722  -5.698  0.00  0.00    +0.040 A 
ATOM     16  C   LIG    1        4.423   0.565  -5.352  0.00  0.00    -0.020 A 
ATOM     17  C   LIG    1        4.024   0.745  -4.039  0.00  0.00    +0.110 A 
ATOM     18  F   LIG    1        2.726   0.592  -3.700  0.00  0.00    -0.120 F 
ENDBRANCH  11  12
ENDBRANCH   8  11
ENDBRANCH   2   8
BRANCH   6  19
ATOM     19  O   LIG    1       -0.323   0.744  -3.223  0.00  0.00    -0.530 OA
ATOM     20  H   LIG    1       -0.792  -0.088  -3.075  0.00  0.00    +0.390 HD
ENDBRANCH   6  19
BRANCH   6  21
ATOM     21  C   LIG    1       -2.041   2.128  -2.186  0.00  0.00    +0.330 C 
BRANCH  21  22
ATOM     22  N   LIG    1       -2.840   0.993  -1.716  0.00  0.00    -0.290 N 
ATOM     23  C   LIG    1       -3.696   1.005  -0.668  0.00  0.00    +0.140 A 
ATOM     24  C   LIG    1       -4.215  -0.242  -0.591  0.00  0.00    +0.140 A 
ATOM     25  N   LIG    1       -3.653  -0.950  -1.577  0.00  0.00    -0.260 NA
ATOM     26  N   LIG    1       -2.843  -0.189  -2.225  0.00  0.00    -0.090 NA
ENDBRANCH  21  22
ENDBRANCH   6  21
TORSDOF 6
