REMARK  Name = ZINCpk000000nxWJ.0
REMARK                            x       y       z     vdW  Elec       q    Type
REMARK                         _______ _______ _______ _____ _____    ______ ____
ROOT
ATOM      1  N   LIG    1       -0.011   0.966   0.007  0.00  0.00    -0.640 N 
ATOM      2  H   LIG    1        0.002  -0.004   0.002  0.00  0.00    +0.410 HD
ATOM      3  C   LIG    1        1.147   1.655   0.000  0.00  0.00    +0.570 C 
ATOM      4  O   LIG    1        1.130   2.871   0.007  0.00  0.00    -0.490 OA
ENDROOT
BRANCH   3   5
ATOM      5  C   LIG    1        2.435   0.935  -0.016  0.00  0.00    -0.120 A 
ATOM      6  C   LIG    1        2.455  -0.463  -0.024  0.00  0.00    +0.070 A 
ATOM      7  C   LIG    1        3.655  -1.136  -0.039  0.00  0.00    +0.030 A 
ATOM      8  C   LIG    1        4.855  -0.430  -0.046  0.00  0.00    +0.150 A 
ATOM      9  N   LIG    1        6.058  -1.124  -0.062  0.00  0.00    -0.630 N 
ATOM     10  H   LIG    1        6.056  -2.094  -0.068  0.00  0.00    +0.430 HD
ATOM     11  C   LIG    1        7.228  -0.455  -0.069  0.00  0.00    +0.510 A 
ATOM     12  C   LIG    1        7.217   1.037  -0.060  0.00  0.00    +0.510 A 
ATOM     13  N   LIG    1        6.036   1.688  -0.045  0.00  0.00    -0.630 N 
ATOM     14  H   LIG    1        6.017   2.658  -0.040  0.00  0.00    +0.430 HD
ATOM     15  O   LIG    1        8.260   1.659  -0.067  0.00  0.00    -0.460 OA
ATOM     16  O   LIG    1        8.280  -1.060  -0.083  0.00  0.00    -0.460 OA
ATOM     17  C   LIG    1        4.843   0.969  -0.039  0.00  0.00    +0.110 A 
ATOM     18  C   LIG    1        3.634   1.648  -0.030  0.00  0.00    +0.110 A 
ENDBRANCH   3   5
BRANCH   1  22
ATOM     19  C   LIG    1       -2.767   3.260   0.034  0.00  0.00    +0.090 A 
ATOM     20  N   LIG    1       -3.406   2.118   0.030  0.00  0.00    -0.280 NA
ATOM     21  N   LIG    1       -2.463   1.083   0.020  0.00  0.00    -0.390 N 
ATOM     22  C   LIG    1       -1.228   1.646   0.017  0.00  0.00    +0.300 A 
ATOM     23  C   LIG    1       -2.757  -0.352   0.012  0.00  0.00    +0.360 C 
ATOM     24  C   LIG    1       -1.394   2.997   0.031  0.00  0.00    -0.100 A 
BRANCH  19  25
ATOM     25  C   LIG    1       -3.403   4.626   0.045  0.00  0.00    +0.120 C 
BRANCH  25  27
ATOM     26  C   LIG    1       -5.111   6.084  -1.049  0.00  0.00    +0.030 C 
ATOM     27  C   LIG    1       -4.374   4.746  -1.131  0.00  0.00    -0.010 C 
ATOM     28  C   LIG    1       -3.594   4.674  -2.446  0.00  0.00    +0.020 C 
ENDBRANCH  25  27
ENDBRANCH  19  25
ENDBRANCH   1  22
TORSDOF 4
