REMARK  Name = ZINCqH0000008xpc.0
REMARK                            x       y       z     vdW  Elec       q    Type
REMARK                         _______ _______ _______ _____ _____    ______ ____
ROOT
ATOM      1  N   LIG    1        1.575   5.828  -5.356  0.00  0.00    -0.530 NA
ATOM      2  C   LIG    1        0.333   5.299  -5.937  0.00  0.00    +0.200 C 
ENDROOT
BRANCH   1   4
ATOM      3  C   LIG    1        3.856   6.620  -5.762  0.00  0.00    +0.060 C 
ATOM      4  C   LIG    1        2.545   6.166  -6.406  0.00  0.00    +0.200 C 
BRANCH   4   5
ATOM      5  C   LIG    1        2.799   4.954  -7.264  0.00  0.00    -0.080 A 
ATOM      6  C   LIG    1        2.910   3.706  -6.682  0.00  0.00    +0.110 A 
ATOM      7  C   LIG    1        3.139   2.593  -7.470  0.00  0.00    +0.030 A 
ATOM      8  C   LIG    1        3.267   2.731  -8.839  0.00  0.00    +0.100 A 
ATOM      9  C   LIG    1        3.161   3.980  -9.421  0.00  0.00    -0.040 A 
ATOM     10  C   LIG    1        2.927   5.092  -8.634  0.00  0.00    +0.100 A 
BRANCH   9  11
ATOM     11  N   LIG    1        3.299   4.127 -10.888  0.00  0.00    +0.030 N 
ATOM     12  O   LIG    1        3.505   3.148 -11.582  0.00  0.00    -0.160 OA
ATOM     13  O   LIG    1        3.206   5.228 -11.401  0.00  0.00    -0.160 OA
ENDBRANCH   9  11
ENDBRANCH   4   5
ENDBRANCH   1   4
BRANCH   1  14
ATOM     14  C   LIG    1        1.301   6.988  -4.498  0.00  0.00    +0.350 C 
BRANCH  14  15
ATOM     15  C   LIG    1        0.503   6.549  -3.298  0.00  0.00    +0.180 A 
ATOM     16  N   LIG    1        0.982   6.145  -2.146  0.00  0.00    -0.460 NA
ATOM     17  C   LIG    1       -0.091   5.856  -1.389  0.00  0.00    +0.180 A 
ATOM     18  N   LIG    1       -1.149   6.102  -2.102  0.00  0.00    -0.380 NA
ATOM     19  O   LIG    1       -0.829   6.501  -3.203  0.00  0.00    +0.080 OA
BRANCH  17  20
ATOM     20  C   LIG    1       -0.070   5.347   0.030  0.00  0.00    +0.220 C 
BRANCH  20  21
ATOM     21  C   LIG    1       -0.050   3.840   0.022  0.00  0.00    -0.090 A 
ATOM     22  C   LIG    1        1.156   3.165   0.008  0.00  0.00    +0.030 A 
ATOM     23  C   LIG    1        1.175   1.783   0.000  0.00  0.00    +0.000 A 
ATOM     24  C   LIG    1       -0.013   1.076   0.008  0.00  0.00    +0.000 A 
ATOM     25  C   LIG    1       -1.219   1.751   0.017  0.00  0.00    +0.000 A 
ATOM     26  C   LIG    1       -1.238   3.133   0.030  0.00  0.00    +0.010 A 
ENDBRANCH  20  21
ENDBRANCH  17  20
ENDBRANCH  14  15
ENDBRANCH   1  14
TORSDOF 7
