REMARK  Name = ZINCqH0000004Xfq.0
REMARK                            x       y       z     vdW  Elec       q    Type
REMARK                         _______ _______ _______ _____ _____    ______ ____
ROOT
ATOM      1  N   LIG    1        3.155   7.545  -0.309  0.00  0.00    -0.470 N 
ATOM      2  C   LIG    1        2.801   8.233  -1.452  0.00  0.00    +0.060 A 
ATOM      3  C   LIG    1        2.694   7.887  -2.792  0.00  0.00    +0.010 A 
ATOM      4  C   LIG    1        2.295   8.832  -3.713  0.00  0.00    +0.030 A 
ATOM      5  C   LIG    1        1.993  10.125  -3.309  0.00  0.00    +0.000 A 
ATOM      6  C   LIG    1        2.086  10.484  -1.994  0.00  0.00    +0.070 A 
ATOM      7  C   LIG    1        2.490   9.542  -1.042  0.00  0.00    +0.050 A 
ATOM      8  N   LIG    1        2.673   9.595   0.300  0.00  0.00    -0.470 NA
ATOM      9  C   LIG    1        3.065   8.423   0.737  0.00  0.00    +0.330 A 
ENDROOT
BRANCH   9  10
ATOM     10  C   LIG    1        3.363   8.099   2.149  0.00  0.00    -0.030 A 
ATOM     11  C   LIG    1        3.309   6.776   2.590  0.00  0.00    +0.010 A 
ATOM     12  C   LIG    1        3.594   6.479   3.907  0.00  0.00    +0.010 A 
ATOM     13  C   LIG    1        3.922   7.491   4.792  0.00  0.00    +0.030 A 
ATOM     14  C   LIG    1        3.972   8.805   4.362  0.00  0.00    +0.010 A 
ATOM     15  C   LIG    1        3.695   9.114   3.046  0.00  0.00    +0.070 A 
ENDBRANCH   9  10
BRANCH   1  16
ATOM     16  C   LIG    1        3.559   6.139  -0.231  0.00  0.00    +0.350 C 
BRANCH  16  19
ATOM     17  C   LIG    1        3.797   3.329   0.074  0.00  0.00    +0.310 C 
ATOM     18  N   LIG    1        2.465   3.933   0.003  0.00  0.00    -0.570 N 
ATOM     19  C   LIG    1        2.335   5.272  -0.088  0.00  0.00    +0.490 C 
ATOM     20  O   LIG    1        1.234   5.778  -0.055  0.00  0.00    -0.490 OA
BRANCH  18  21
ATOM     21  C   LIG    1        1.326   3.120   0.028  0.00  0.00    +0.080 A 
ATOM     22  C   LIG    1        0.437   3.183   1.097  0.00  0.00    +0.070 A 
ATOM     23  C   LIG    1       -0.676   2.358   1.077  0.00  0.00    -0.020 A 
ATOM     24  C   LIG    1       -0.864   1.503   0.008  0.00  0.00    +0.260 A 
ATOM     25  N   LIG    1       -0.005   1.471  -0.993  0.00  0.00    -0.470 NA
ATOM     26  C   LIG    1        1.066   2.239  -1.013  0.00  0.00    +0.270 A 
ENDBRANCH  18  21
ENDBRANCH  16  19
ENDBRANCH   1  16
TORSDOF 4
