REMARK  Name = ZINCrD000000AiyX.0
REMARK                            x       y       z     vdW  Elec       q    Type
REMARK                         _______ _______ _______ _____ _____    ______ ____
ROOT
ATOM      1  C   LIG    1       -3.232   2.486   0.918  0.00  0.00    +0.230 C 
ATOM      2  C   LIG    1       -3.035   0.971   0.827  0.00  0.00    +0.010 C 
ATOM      3  C   LIG    1       -1.645   0.674   0.255  0.00  0.00    +0.270 C 
ATOM      4  N   LIG    1       -1.495   1.384  -1.023  0.00  0.00    -0.610 N 
ATOM      5  C   LIG    1       -1.749   2.830  -1.062  0.00  0.00    +0.300 C 
ATOM      6  C   LIG    1       -1.132   0.720  -2.138  0.00  0.00    +0.570 C 
ATOM      7  O   LIG    1       -1.110   1.296  -3.209  0.00  0.00    -0.520 OA
ATOM      8  C   LIG    1       -3.139   3.103  -0.479  0.00  0.00    +0.030 C 
ENDROOT
BRANCH   6   9
ATOM      9  C   LIG    1       -0.759  -0.709  -2.060  0.00  0.00    -0.070 A 
ATOM     10  C   LIG    1       -0.075  -1.194  -0.944  0.00  0.00    +0.020 A 
ATOM     11  C   LIG    1        0.267  -2.531  -0.874  0.00  0.00    +0.130 A 
ATOM     12  C   LIG    1       -0.059  -3.387  -1.913  0.00  0.00    -0.010 A 
ATOM     13  C   LIG    1       -0.733  -2.910  -3.025  0.00  0.00    +0.130 A 
ATOM     14  F   LIG    1       -1.048  -3.751  -4.035  0.00  0.00    -0.120 F 
ATOM     15  F   LIG    1        0.925  -3.003   0.207  0.00  0.00    -0.120 F 
ATOM     16  C   LIG    1       -1.085  -1.576  -3.103  0.00  0.00    +0.040 A 
ENDBRANCH   6   9
BRANCH   1  19
ATOM     17  O   LIG    1       -3.764   2.581   3.559  0.00  0.00    -0.540 OA
ATOM     18  C   LIG    1       -4.710   2.797   2.831  0.00  0.00    +0.510 C 
ATOM     19  N   LIG    1       -4.548   2.773   1.493  0.00  0.00    -0.730 N 
ATOM     20  H   LIG    1       -5.304   2.946   0.910  0.00  0.00    +0.400 HD
BRANCH  18  21
ATOM     21  C   LIG    1       -6.064   3.092   3.421  0.00  0.00    +0.060 C 
BRANCH  21  22
ATOM     22  C   LIG    1       -5.973   3.058   4.948  0.00  0.00    +0.100 C 
BRANCH  22  23
ATOM     23  C   LIG    1       -7.328   3.353   5.539  0.00  0.00    -0.090 A 
ATOM     24  C   LIG    1       -7.688   4.657   5.825  0.00  0.00    +0.000 A 
ATOM     25  C   LIG    1       -8.932   4.928   6.363  0.00  0.00    +0.000 A 
ATOM     26  C   LIG    1       -9.813   3.895   6.623  0.00  0.00    +0.000 A 
ATOM     27  C   LIG    1       -9.451   2.591   6.341  0.00  0.00    +0.000 A 
ATOM     28  C   LIG    1       -8.209   2.320   5.799  0.00  0.00    +0.000 A 
ENDBRANCH  22  23
ENDBRANCH  21  22
ENDBRANCH  18  21
ENDBRANCH   1  19
TORSDOF 5
