REMARK  Name = ZINCrH000004tRmQ.0
REMARK                            x       y       z     vdW  Elec       q    Type
REMARK                         _______ _______ _______ _____ _____    ______ ____
ROOT
ATOM      1  C   LIG    1        6.818   0.347  -0.063  0.00  0.00    +0.200 A 
ATOM      2  N   LIG    1        6.083  -0.741  -0.062  0.00  0.00    -0.320 NA
ATOM      3  N   LIG    1        4.742  -0.324  -0.041  0.00  0.00    -0.460 N 
ATOM      4  H   LIG    1        3.957  -0.893  -0.032  0.00  0.00    +0.450 HD
ATOM      5  C   LIG    1        4.761   1.020  -0.039  0.00  0.00    +0.300 A 
ATOM      6  N   LIG    1        6.010   1.411  -0.049  0.00  0.00    -0.500 NA
ENDROOT
BRANCH   1   7
ATOM      7  S   LIG    1        8.579   0.395  -0.079  0.00  0.00    +0.120 S 
BRANCH   7   8
ATOM      8  C   LIG    1        9.036  -1.360  -0.094  0.00  0.00    +0.080 C 
BRANCH   8  10
ATOM      9  O   LIG    1       11.231  -0.494  -0.109  0.00  0.00    -0.520 OA
ATOM     10  C   LIG    1       10.537  -1.489  -0.108  0.00  0.00    +0.540 C 
ATOM     11  N   LIG    1       11.109  -2.709  -0.121  0.00  0.00    -0.610 N 
ATOM     12  C   LIG    1       12.572  -2.857  -0.142  0.00  0.00    +0.310 C 
ATOM     13  C   LIG    1       13.008  -3.527   1.171  0.00  0.00    +0.110 C 
ATOM     14  C   LIG    1       12.096  -4.701   1.453  0.00  0.00    -0.170 A 
ATOM     15  C   LIG    1       10.885  -4.893   0.895  0.00  0.00    -0.130 A 
ATOM     16  C   LIG    1       10.242  -6.047   1.331  0.00  0.00    +0.020 A 
ATOM     17  C   LIG    1       10.911  -6.779   2.217  0.00  0.00    -0.040 A 
ATOM     18  S   LIG    1       12.456  -6.016   2.564  0.00  0.00    +0.110 S 
ATOM     19  C   LIG    1       10.287  -3.927  -0.122  0.00  0.00    +0.360 C 
ENDBRANCH   8  10
ENDBRANCH   7   8
ENDBRANCH   1   7
BRANCH   5  20
ATOM     20  C   LIG    1        3.553   1.920  -0.022  0.00  0.00    +0.360 C 
BRANCH  20  21
ATOM     21  O   LIG    1        2.366   1.124  -0.015  0.00  0.00    -0.320 OA
BRANCH  21  22
ATOM     22  C   LIG    1        1.179   1.786   0.000  0.00  0.00    +0.130 A 
ATOM     23  C   LIG    1       -0.013   1.076   0.008  0.00  0.00    +0.010 A 
ATOM     24  C   LIG    1       -1.218   1.751   0.017  0.00  0.00    +0.070 A 
ATOM     25  C   LIG    1       -1.237   3.134   0.030  0.00  0.00    -0.070 A 
ATOM     26  C   LIG    1       -0.050   3.844   0.023  0.00  0.00    +0.070 A 
ATOM     27 CL   LIG    1       -2.753   3.980   0.049  0.00  0.00    -0.060 Cl
ATOM     28  C   LIG    1        1.158   3.173   0.008  0.00  0.00    -0.050 A 
ENDBRANCH  21  22
ENDBRANCH  20  21
ENDBRANCH   5  20
TORSDOF 6
