REMARK  Name = ZINCtV00000tRR9t.0
REMARK                            x       y       z     vdW  Elec       q    Type
REMARK                         _______ _______ _______ _____ _____    ______ ____
ROOT
ATOM      1  C   LIG    1        0.089   2.322   4.914  0.00  0.00    +0.290 C 
ATOM      2  C   LIG    1        1.323   1.420   4.929  0.00  0.00    +0.030 C 
ATOM      3  C   LIG    1        2.172   1.721   3.687  0.00  0.00    +0.240 C 
ATOM      4  N   LIG    1        1.374   1.375   2.503  0.00  0.00    -0.600 N 
ATOM      5  C   LIG    1        0.032   1.772   2.451  0.00  0.00    +0.200 A 
ATOM      6  C   LIG    1       -0.649   1.702   1.242  0.00  0.00    -0.130 A 
ATOM      7  C   LIG    1       -1.973   2.087   1.170  0.00  0.00    +0.040 A 
ATOM      8  C   LIG    1       -2.623   2.533   2.306  0.00  0.00    -0.030 A 
ATOM      9  C   LIG    1       -1.948   2.605   3.509  0.00  0.00    +0.060 A 
ATOM     10  C   LIG    1        0.059   1.210   0.006  0.00  0.00    +0.090 C 
ATOM     11  C   LIG    1        1.924   0.685   1.484  0.00  0.00    +0.590 C 
ATOM     12  O   LIG    1        1.440  -0.374   1.135  0.00  0.00    -0.470 OA
ATOM     13  C   LIG    1        3.450   0.880   3.716  0.00  0.00    +0.040 C 
ATOM     14  C   LIG    1       -0.619   2.226   3.588  0.00  0.00    -0.150 A 
ENDROOT
BRANCH  11  15
ATOM     15  C   LIG    1        3.116   1.216   0.790  0.00  0.00    -0.120 A 
ATOM     16  C   LIG    1        3.594   2.492   1.096  0.00  0.00    +0.050 A 
ATOM     17  C   LIG    1        4.711   2.981   0.449  0.00  0.00    +0.040 A 
ATOM     18  C   LIG    1        5.350   2.216  -0.510  0.00  0.00    +0.020 A 
ATOM     19  C   LIG    1        4.879   0.951  -0.822  0.00  0.00    +0.100 A 
ATOM     20  F   LIG    1        5.509   0.208  -1.759  0.00  0.00    -0.130 F 
ATOM     21  C   LIG    1        3.765   0.447  -0.177  0.00  0.00    +0.050 A 
ENDBRANCH  11  15
BRANCH   1  22
ATOM     22  N   LIG    1       -0.825   1.908   5.981  0.00  0.00    -0.740 N 
ATOM     23  H   LIG    1       -0.814   0.992   6.301  0.00  0.00    +0.400 HD
BRANCH  22  30
ATOM     24  C   LIG    1       -2.574   1.015   8.040  0.00  0.00    +0.090 C 
ATOM     25  C   LIG    1       -2.586   2.438   7.545  0.00  0.00    -0.160 A 
ATOM     26  C   LIG    1       -3.459   3.355   8.096  0.00  0.00    +0.050 A 
ATOM     27  C   LIG    1       -3.474   4.660   7.639  0.00  0.00    -0.050 A 
ATOM     28  C   LIG    1       -2.612   5.053   6.632  0.00  0.00    +0.040 A 
ATOM     29  C   LIG    1       -1.732   4.142   6.080  0.00  0.00    -0.080 A 
ATOM     30  C   LIG    1       -1.714   2.831   6.537  0.00  0.00    +0.220 A 
ENDBRANCH  22  30
ENDBRANCH   1  22
TORSDOF 3
