REMARK  Name = ZINCpk000000op6B.0
REMARK                            x       y       z     vdW  Elec       q    Type
REMARK                         _______ _______ _______ _____ _____    ______ ____
ROOT
ATOM      1  C   LIG    1        2.741   8.325  -1.623  0.00  0.00    +0.520 C 
ATOM      2  N   LIG    1        1.688   7.519  -1.378  0.00  0.00    -0.710 N 
ATOM      3  H   LIG    1        1.108   7.246  -2.105  0.00  0.00    +0.400 HD
ATOM      4  O   LIG    1        3.467   8.667  -0.714  0.00  0.00    -0.540 OA
ENDROOT
BRANCH   1   9
ATOM      5  N   LIG    1        3.772  10.066  -3.000  0.00  0.00    -1.000 NA
ATOM      6  C   LIG    1        4.739  10.057  -4.109  0.00  0.00    +0.270 C 
ATOM      7  C   LIG    1        4.585   8.708  -4.843  0.00  0.00    +0.040 C 
ATOM      8  C   LIG    1        3.937   7.799  -3.765  0.00  0.00    +0.050 C 
ATOM      9  C   LIG    1        3.015   8.801  -3.026  0.00  0.00    +0.240 C 
BRANCH   5  10
ATOM     10  S   LIG    1        3.568  11.291  -1.904  0.00  0.00    +2.620 S 
ATOM     11  O   LIG    1        2.325  10.999  -1.280  0.00  0.00    -0.940 OA
ATOM     12  O   LIG    1        3.745  12.476  -2.667  0.00  0.00    -0.960 OA
BRANCH  10  13
ATOM     13  C   LIG    1        4.934  11.080  -0.730  0.00  0.00    -0.340 C 
BRANCH  13  15
ATOM     14  C   LIG    1        5.913  11.877   1.427  0.00  0.00    +0.040 C 
ATOM     15  C   LIG    1        4.760  12.055   0.436  0.00  0.00    +0.040 C 
ENDBRANCH  13  15
ENDBRANCH  10  13
ENDBRANCH   5  10
ENDBRANCH   1   9
BRANCH   2  16
ATOM     16  C   LIG    1        1.422   7.056  -0.014  0.00  0.00    +0.380 C 
BRANCH  16  17
ATOM     17  C   LIG    1        0.199   6.176  -0.012  0.00  0.00    +0.040 A 
ATOM     18  C   LIG    1        0.199   4.827  -0.091  0.00  0.00    +0.120 A 
ATOM     19  N   LIG    1       -1.107   4.420  -0.058  0.00  0.00    -0.360 N 
ATOM     20  C   LIG    1       -1.692   3.188  -0.103  0.00  0.00    +0.200 A 
ATOM     21  C   LIG    1       -3.034   3.062  -0.051  0.00  0.00    +0.020 A 
ATOM     22  C   LIG    1       -3.850   4.202   0.045  0.00  0.00    +0.030 A 
ATOM     23  C   LIG    1       -3.280   5.436   0.096  0.00  0.00    -0.040 A 
ATOM     24  C   LIG    1       -4.141   6.668   0.205  0.00  0.00    +0.120 C 
ATOM     25  C   LIG    1       -1.877   5.551   0.042  0.00  0.00    +0.230 A 
ATOM     26  N   LIG    1       -1.065   6.598   0.068  0.00  0.00    -0.470 NA
ENDBRANCH  16  17
ENDBRANCH   2  16
TORSDOF 6
