REMARK  Name = ZINCvU00000005fr.0
REMARK                            x       y       z     vdW  Elec       q    Type
REMARK                         _______ _______ _______ _____ _____    ______ ____
ROOT
ATOM      1  C   LIG    1        5.218  -3.208  -0.349  0.00  0.00    +0.150 A 
ATOM      2  N   LIG    1        6.253  -2.507   0.053  0.00  0.00    -0.290 NA
ATOM      3  N   LIG    1        7.318  -3.223  -0.013  0.00  0.00    -0.270 NA
ATOM      4  C   LIG    1        7.035  -4.411  -0.466  0.00  0.00    +0.200 A 
ATOM      5  N   LIG    1        5.685  -4.446  -0.698  0.00  0.00    -0.400 N 
ENDROOT
BRANCH   5   6
ATOM      6  C   LIG    1        4.938  -5.526  -1.190  0.00  0.00    +0.110 A 
ATOM      7  C   LIG    1        4.829  -6.693  -0.446  0.00  0.00    +0.030 A 
ATOM      8  C   LIG    1        4.088  -7.753  -0.931  0.00  0.00    +0.040 A 
ATOM      9  C   LIG    1        3.465  -7.657  -2.161  0.00  0.00    +0.030 A 
ATOM     10  C   LIG    1        3.576  -6.498  -2.907  0.00  0.00    +0.040 A 
ATOM     11  C   LIG    1        4.310  -5.433  -2.425  0.00  0.00    +0.040 A 
ENDBRANCH   5   6
BRANCH   1  12
ATOM     12  S   LIG    1        3.547  -2.657  -0.432  0.00  0.00    +0.090 S 
BRANCH  12  14
ATOM     13  C   LIG    1        4.199  -1.000   1.639  0.00  0.00    +0.080 C 
ATOM     14  C   LIG    1        3.743  -0.965   0.179  0.00  0.00    +0.020 C 
BRANCH  14  15
ATOM     15  C   LIG    1        2.426  -0.239   0.081  0.00  0.00    +0.540 C 
ATOM     16  N   LIG    1        2.403   1.105  -0.014  0.00  0.00    -0.660 N 
ATOM     17  H   LIG    1        3.233   1.599  -0.100  0.00  0.00    +0.420 HD
ATOM     18  O   LIG    1        1.387  -0.865   0.088  0.00  0.00    -0.490 OA
BRANCH  16  19
ATOM     19  C   LIG    1        1.180   1.787   0.011  0.00  0.00    +0.170 A 
ATOM     20  C   LIG    1        0.076   1.214   0.627  0.00  0.00    +0.050 A 
ATOM     21  C   LIG    1       -1.130   1.887   0.646  0.00  0.00    +0.070 A 
ATOM     22  C   LIG    1       -1.236   3.137   0.063  0.00  0.00    -0.040 A 
ATOM     23  C   LIG    1       -0.137   3.712  -0.552  0.00  0.00    +0.070 A 
ATOM     24 CL   LIG    1       -2.752   3.983   0.096  0.00  0.00    -0.050 Cl
ATOM     25  C   LIG    1        1.070   3.041  -0.579  0.00  0.00    -0.060 A 
ATOM     26 CL   LIG    1        2.448   3.762  -1.350  0.00  0.00    -0.050 Cl
ENDBRANCH  16  19
ENDBRANCH  14  15
ENDBRANCH  12  14
ENDBRANCH   1  12
BRANCH   4  27
ATOM     27  C   LIG    1        8.010  -5.537  -0.694  0.00  0.00    +0.310 C 
BRANCH  27  28
ATOM     28  N   LIG    1        8.537  -5.458  -2.062  0.00  0.00    -0.510 NA
ATOM     29  C   LIG    1        9.080  -4.105  -2.347  0.00  0.00    +0.170 C 
ATOM     30  C   LIG    1       10.025  -4.348  -3.550  0.00  0.00    +0.020 C 
ATOM     31  C   LIG    1       10.652  -5.723  -3.226  0.00  0.00    +0.010 C 
ATOM     32  C   LIG    1        9.668  -6.393  -2.249  0.00  0.00    +0.170 C 
ENDBRANCH  27  28
ENDBRANCH   4  27
TORSDOF 7
