REMARK  Name = ZINCtj00000mhT7i.1
REMARK                            x       y       z     vdW  Elec       q    Type
REMARK                         _______ _______ _______ _____ _____    ______ ____
ROOT
ATOM      1  N   LIG    1       -0.629   1.509   4.874  0.00  0.00    -0.520 NA
ATOM      2  C   LIG    1       -0.722   0.056   5.071  0.00  0.00    +0.220 C 
ATOM      3  C   LIG    1       -0.048  -0.321   6.392  0.00  0.00    +0.270 C 
ATOM      4  N   LIG    1       -0.709   0.384   7.498  0.00  0.00    -0.380 N 
ATOM      5  C   LIG    1       -0.586   1.834   7.300  0.00  0.00    +0.280 C 
ATOM      6  H   LIG    1       -1.685   0.129   7.523  0.00  0.00    +0.420 HD
ATOM      7  C   LIG    1       -1.265   2.229   5.987  0.00  0.00    +0.220 C 
ENDROOT
BRANCH   1   8
ATOM      8  C   LIG    1       -1.216   1.905   3.587  0.00  0.00    +0.250 C 
BRANCH   8  10
ATOM      9  O   LIG    1        0.597   0.677   2.708  0.00  0.00    -0.510 OA
ATOM     10  C   LIG    1       -0.387   1.342   2.462  0.00  0.00    +0.530 C 
ATOM     11  N   LIG    1       -0.738   1.578   1.182  0.00  0.00    -0.550 N 
ATOM     12  C   LIG    1       -0.013   1.086   0.008  0.00  0.00    +0.290 C 
ATOM     13  C   LIG    1       -0.797   1.615  -1.204  0.00  0.00    +0.110 C 
ATOM     14  C   LIG    1       -1.947   2.393  -0.603  0.00  0.00    -0.120 A 
ATOM     15  C   LIG    1       -2.979   3.090  -1.201  0.00  0.00    +0.060 A 
ATOM     16  C   LIG    1       -3.926   3.729  -0.423  0.00  0.00    +0.000 A 
ATOM     17  C   LIG    1       -3.838   3.670   0.955  0.00  0.00    +0.040 A 
ATOM     18  C   LIG    1       -2.809   2.976   1.556  0.00  0.00    -0.030 A 
ATOM     19  C   LIG    1       -1.849   2.327   0.778  0.00  0.00    +0.130 A 
ENDBRANCH   8  10
ENDBRANCH   1   8
BRANCH   4  20
ATOM     20  C   LIG    1       -0.073   0.007   8.768  0.00  0.00    +0.240 C 
BRANCH  20  21
ATOM     21  C   LIG    1       -0.090  -1.515   8.915  0.00  0.00    +0.210 C 
BRANCH  21  22
ATOM     22  O   LIG    1       -1.442  -1.980   8.904  0.00  0.00    -0.540 OA
ATOM     23  H   LIG    1       -1.988  -1.618   9.615  0.00  0.00    +0.390 HD
ENDBRANCH  21  22
BRANCH  21  24
ATOM     24  C   LIG    1        0.572  -1.907  10.238  0.00  0.00    +0.170 C 
BRANCH  24  25
ATOM     25  O   LIG    1        0.661  -3.331  10.323  0.00  0.00    -0.370 OA
BRANCH  25  26
ATOM     26  C   LIG    1        1.268  -3.804  11.527  0.00  0.00    +0.310 C 
BRANCH  26  27
ATOM     27  C   LIG    1        1.309  -5.311  11.509  0.00  0.00    -0.040 A 
ATOM     28  C   LIG    1        2.309  -6.065  11.020  0.00  0.00    -0.020 A 
ATOM     29  C   LIG    1        1.934  -7.415  11.206  0.00  0.00    -0.070 A 
ATOM     30  C   LIG    1        0.727  -7.405  11.799  0.00  0.00    +0.190 A 
ATOM     31  O   LIG    1        0.356  -6.128  11.986  0.00  0.00    -0.170 OA
ENDBRANCH  26  27
ENDBRANCH  25  26
ENDBRANCH  24  25
ENDBRANCH  21  24
ENDBRANCH  20  21
ENDBRANCH   4  20
TORSDOF 9
