REMARK  Name = ZINCrD00000l0WkM.0
REMARK                            x       y       z     vdW  Elec       q    Type
REMARK                         _______ _______ _______ _____ _____    ______ ____
ROOT
ATOM      1  N   LIG    1        3.360   0.757   5.274  0.00  0.00    -0.710 N 
ATOM      2  H   LIG    1        3.560  -0.185   5.162  0.00  0.00    +0.410 HD
ENDROOT
BRANCH   1  13
ATOM      3  C   LIG    1        2.509   4.602   8.207  0.00  0.00    +0.130 C 
ATOM      4  C   LIG    1        2.819   3.139   8.021  0.00  0.00    +0.200 A 
ATOM      5  N   LIG    1        2.965   2.379   9.080  0.00  0.00    -0.510 NA
ATOM      6  C   LIG    1        3.242   1.074   8.976  0.00  0.00    +0.140 A 
ATOM      7  C   LIG    1        3.396   0.272  10.122  0.00  0.00    +0.120 A 
ATOM      8  C   LIG    1        3.679  -1.055   9.985  0.00  0.00    +0.010 A 
ATOM      9  C   LIG    1        3.818  -1.633   8.726  0.00  0.00    +0.030 A 
ATOM     10  C   LIG    1        3.676  -0.885   7.595  0.00  0.00    +0.030 A 
ATOM     11  F   LIG    1        3.264   0.814  11.352  0.00  0.00    -0.120 F 
ATOM     12  C   LIG    1        3.385   0.482   7.699  0.00  0.00    -0.130 A 
ATOM     13  C   LIG    1        3.229   1.291   6.548  0.00  0.00    +0.280 A 
ATOM     14  C   LIG    1        2.949   2.635   6.733  0.00  0.00    -0.110 A 
ENDBRANCH   1  13
BRANCH   1  15
ATOM     15  C   LIG    1        3.194   1.616   4.099  0.00  0.00    +0.270 C 
ATOM     16  C   LIG    1        3.969   1.019   2.922  0.00  0.00    +0.040 C 
ATOM     17  C   LIG    1        3.565   1.767   1.646  0.00  0.00    +0.050 C 
ATOM     18  C   LIG    1        2.104   1.437   1.331  0.00  0.00    +0.270 C 
ATOM     19  N   LIG    1        1.269   1.655   2.506  0.00  0.00    -0.540 N 
ATOM     20  C   LIG    1        1.736   1.713   3.754  0.00  0.00    +0.500 C 
ATOM     21  O   LIG    1        0.940   1.853   4.658  0.00  0.00    -0.500 OA
BRANCH  19  22
ATOM     22  C   LIG    1       -0.104   1.805   2.314  0.00  0.00    +0.300 A 
ATOM     23  C   LIG    1       -1.035   0.813   2.355  0.00  0.00    -0.090 A 
ATOM     24  C   LIG    1       -2.285   1.389   2.111  0.00  0.00    +0.080 A 
ATOM     25  N   LIG    1       -2.118   2.675   1.935  0.00  0.00    -0.280 NA
ATOM     26  C   LIG    1       -3.600   0.655   2.064  0.00  0.00    +0.170 C 
ATOM     27  N   LIG    1       -0.752   2.963   2.053  0.00  0.00    -0.370 N 
ATOM     28  C   LIG    1       -0.136   4.285   1.922  0.00  0.00    +0.360 C 
ENDBRANCH  19  22
ENDBRANCH   1  15
TORSDOF 3
