REMARK  Name = ZINCvU0000000Cwu.0
REMARK                            x       y       z     vdW  Elec       q    Type
REMARK                         _______ _______ _______ _____ _____    ______ ____
ROOT
ATOM      1  N   LIG    1       -3.919   6.233  -5.849  0.00  0.00    -0.560 N 
ATOM      2  C   LIG    1       -3.056   7.072  -6.434  0.00  0.00    +0.710 C 
ATOM      3  N   LIG    1       -3.378   8.364  -6.231  0.00  0.00    -0.710 N 
ATOM      4  H   LIG    1       -2.898   9.141  -6.559  0.00  0.00    +0.440 HD
ATOM      5  C   LIG    1       -4.598   8.364  -5.415  0.00  0.00    +0.130 C 
ATOM      6  C   LIG    1       -5.742   9.037  -6.166  0.00  0.00    +0.050 C 
ATOM      7  C   LIG    1       -5.403  10.511  -6.402  0.00  0.00    +0.030 C 
ATOM      8  C   LIG    1       -5.176  11.203  -5.056  0.00  0.00    +0.000 C 
ATOM      9  C   LIG    1       -4.013  10.531  -4.324  0.00  0.00    +0.030 C 
ATOM     10  C   LIG    1       -4.348   9.057  -4.080  0.00  0.00    +0.060 C 
ATOM     11  O   LIG    1       -2.090   6.709  -7.077  0.00  0.00    -0.540 OA
ATOM     12  C   LIG    1       -4.901   6.899  -5.206  0.00  0.00    +0.540 C 
ATOM     13  O   LIG    1       -5.828   6.421  -4.588  0.00  0.00    -0.460 OA
ENDROOT
BRANCH   8  14
ATOM     14  C   LIG    1       -4.847  12.678  -5.291  0.00  0.00    -0.060 C 
ATOM     15  C   LIG    1       -3.579  12.789  -6.139  0.00  0.00    +0.030 C 
ATOM     16  C   LIG    1       -4.623  13.371  -3.946  0.00  0.00    +0.020 C 
BRANCH  14  17
ATOM     17  C   LIG    1       -6.011  13.350  -6.023  0.00  0.00    +0.000 C 
ATOM     18  C   LIG    1       -5.681  14.826  -6.258  0.00  0.00    +0.010 C 
ENDBRANCH  14  17
ENDBRANCH   8  14
BRANCH   1  19
ATOM     19  C   LIG    1       -3.814   4.773  -5.904  0.00  0.00    +0.360 C 
BRANCH  19  22
ATOM     20  N   LIG    1       -2.756   2.965  -4.588  0.00  0.00    -0.670 N 
ATOM     21  H   LIG    1       -3.055   2.338  -5.265  0.00  0.00    +0.410 HD
ATOM     22  C   LIG    1       -2.988   4.284  -4.742  0.00  0.00    +0.500 C 
ATOM     23  O   LIG    1       -2.533   5.077  -3.946  0.00  0.00    -0.500 OA
BRANCH  20  27
ATOM     24  C   LIG    1       -0.759   1.583  -1.204  0.00  0.00    -0.090 A 
ATOM     25  C   LIG    1       -0.589   0.939  -2.416  0.00  0.00    +0.040 A 
ATOM     26  C   LIG    1       -1.254   1.392  -3.539  0.00  0.00    -0.010 A 
ATOM     27  C   LIG    1       -2.085   2.501  -3.451  0.00  0.00    +0.140 A 
ATOM     28  C   LIG    1       -2.249   3.148  -2.234  0.00  0.00    +0.010 A 
ATOM     29  C   LIG    1       -1.586   2.687  -1.114  0.00  0.00    +0.020 A 
BRANCH  24  30
ATOM     30  C   LIG    1       -0.036   1.082   0.021  0.00  0.00    +0.030 C 
ATOM     31  C   LIG    1       -0.460  -0.359   0.310  0.00  0.00    +0.030 C 
BRANCH  30  33
ATOM     32  C   LIG    1        2.210   0.742   1.061  0.00  0.00    +0.000 C 
ATOM     33  C   LIG    1        1.473   1.131  -0.223  0.00  0.00    +0.000 C 
ENDBRANCH  30  33
ENDBRANCH  24  30
ENDBRANCH  20  27
ENDBRANCH  19  22
ENDBRANCH   1  19
TORSDOF 7
