REMARK  Name = ZINCpk00000jbVXp.0
REMARK                            x       y       z     vdW  Elec       q    Type
REMARK                         _______ _______ _______ _____ _____    ______ ____
ROOT
ATOM      1  N   LIG    1        0.002  -0.004   0.002  0.00  0.00    -0.370 N 
ATOM      2  N   LIG    1        1.338  -0.425  -0.013  0.00  0.00    -0.240 NA
ATOM      3  C   LIG    1        2.125   0.613  -0.015  0.00  0.00    +0.300 A 
ATOM      4  C   LIG    1        1.328   1.779  -0.001  0.00  0.00    -0.300 A 
ATOM      5  C   LIG    1        1.595   3.161   0.004  0.00  0.00    +0.450 A 
ATOM      6  N   LIG    1        0.568   4.003   0.019  0.00  0.00    -0.590 NA
ATOM      7  C   LIG    1       -0.678   3.562   0.028  0.00  0.00    +0.580 A 
ATOM      8  N   LIG    1       -0.977   2.281   0.029  0.00  0.00    -0.550 NA
ATOM      9  C   LIG    1       -0.016   1.359   0.009  0.00  0.00    +0.360 A 
ENDROOT
BRANCH   5  10
ATOM     10  N   LIG    1        2.894   3.631  -0.005  0.00  0.00    -0.470 N 
ATOM     11  C   LIG    1        3.658   3.051  -1.126  0.00  0.00    +0.320 C 
ATOM     12  C   LIG    1        5.123   3.076  -0.726  0.00  0.00    +0.080 A 
ATOM     13  C   LIG    1        5.932   2.020  -0.516  0.00  0.00    -0.100 A 
ATOM     14  C   LIG    1        7.196   2.517  -0.168  0.00  0.00    +0.230 A 
ATOM     15  N   LIG    1        7.136   3.828  -0.171  0.00  0.00    -0.280 NA
ATOM     16  N   LIG    1        5.837   4.196  -0.520  0.00  0.00    -0.360 N 
ATOM     17  C   LIG    1        5.296   5.564  -0.653  0.00  0.00    +0.350 C 
ATOM     18  C   LIG    1        4.217   5.726   0.430  0.00  0.00    +0.000 C 
ATOM     19  C   LIG    1        2.923   5.078   0.003  0.00  0.00    +0.230 C 
BRANCH  18  20
ATOM     20  C   LIG    1        3.976   7.217   0.678  0.00  0.00    +0.200 C 
BRANCH  20  21
ATOM     21  O   LIG    1        5.167   7.813   1.194  0.00  0.00    -0.570 OA
ATOM     22  H   LIG    1        5.087   8.760   1.375  0.00  0.00    +0.390 HD
ENDBRANCH  20  21
ENDBRANCH  18  20
ENDBRANCH   5  10
BRANCH   1  24
ATOM     23  C   LIG    1       -2.024  -0.598  -1.232  0.00  0.00    +0.060 C 
ATOM     24  C   LIG    1       -1.173  -0.879   0.008  0.00  0.00    +0.190 C 
ATOM     25  C   LIG    1       -2.002  -0.611   1.266  0.00  0.00    +0.060 C 
ATOM     26  C   LIG    1       -0.721  -2.340  -0.004  0.00  0.00    +0.080 C 
ENDBRANCH   1  24
TORSDOF 4
