REMARK  Name = ZINCpk00000KfLQB.0
REMARK                            x       y       z     vdW  Elec       q    Type
REMARK                         _______ _______ _______ _____ _____    ______ ____
ROOT
ATOM      1  O   LIG    1       -2.046   1.209   3.592  0.00  0.00    -0.510 OA
ATOM      2  C   LIG    1       -0.907   0.781   3.562  0.00  0.00    +0.610 C 
ATOM      3  N   LIG    1       -0.166   0.918   2.444  0.00  0.00    -0.710 N 
ATOM      4  H   LIG    1        0.742   0.578   2.420  0.00  0.00    +0.410 HD
ENDROOT
BRANCH   3   5
ATOM      5  C   LIG    1       -0.732   1.581   1.267  0.00  0.00    +0.250 C 
ATOM      6  C   LIG    1       -0.013   1.086   0.008  0.00  0.00    +0.040 C 
ATOM      7  C   LIG    1       -0.756   1.595  -1.233  0.00  0.00    +0.170 C 
ATOM      8  C   LIG    1       -1.005   3.075  -1.061  0.00  0.00    +0.200 A 
ATOM      9  N   LIG    1       -1.339   3.932  -1.980  0.00  0.00    -0.480 NA
ATOM     10  C   LIG    1       -1.464   5.149  -1.426  0.00  0.00    +0.140 A 
ATOM     11  C   LIG    1       -1.196   5.038  -0.109  0.00  0.00    +0.130 A 
ATOM     12  N   LIG    1       -0.906   3.726   0.122  0.00  0.00    -0.450 N 
ATOM     13  C   LIG    1       -0.551   3.097   1.396  0.00  0.00    +0.280 C 
ENDBRANCH   3   5
BRANCH   2  14
ATOM     14  C   LIG    1       -0.340   0.118   4.741  0.00  0.00    -0.070 A 
ATOM     15  C   LIG    1       -0.978  -0.086   5.931  0.00  0.00    +0.060 A 
ATOM     16  C   LIG    1       -0.069  -0.752   6.767  0.00  0.00    -0.010 A 
ATOM     17  C   LIG    1        1.069  -0.924   6.060  0.00  0.00    -0.010 A 
ATOM     18  O   LIG    1        0.900  -0.403   4.838  0.00  0.00    -0.160 OA
BRANCH  17  19
ATOM     19  C   LIG    1        2.321  -1.597   6.561  0.00  0.00    +0.420 C 
BRANCH  19  20
ATOM     20  N   LIG    1        2.257  -3.030   6.264  0.00  0.00    -0.500 N 
ATOM     21  C   LIG    1        2.749  -3.494   5.087  0.00  0.00    +0.290 A 
ATOM     22  C   LIG    1        2.702  -4.814   4.790  0.00  0.00    -0.070 A 
ATOM     23  C   LIG    1        2.141  -5.717   5.704  0.00  0.00    +0.120 A 
ATOM     24  C   LIG    1        1.646  -5.249   6.886  0.00  0.00    -0.090 A 
ATOM     25  C   LIG    1        1.717  -3.873   7.164  0.00  0.00    +0.520 A 
ATOM     26  O   LIG    1        1.283  -3.442   8.221  0.00  0.00    -0.540 OA
ENDBRANCH  19  20
ENDBRANCH  17  19
ENDBRANCH   2  14
TORSDOF 4
