REMARK  Name = ZINCpk00000KfLgI.0
REMARK                            x       y       z     vdW  Elec       q    Type
REMARK                         _______ _______ _______ _____ _____    ______ ____
ROOT
ATOM      1  C   LIG    1       -2.756   0.538  -2.103  0.00  0.00    +0.610 C 
ATOM      2  N   LIG    1       -2.184   1.188  -1.070  0.00  0.00    -0.590 N 
ATOM      3  C   LIG    1       -2.953   1.482   0.147  0.00  0.00    +0.300 C 
ATOM      4  C   LIG    1       -2.186   0.940   1.357  0.00  0.00    -0.020 C 
ATOM      5  C   LIG    1       -0.766   1.514   1.356  0.00  0.00    +0.060 C 
ATOM      6  C   LIG    1       -0.038   1.073   0.085  0.00  0.00    +0.020 C 
ATOM      7  C   LIG    1       -0.780   1.617  -1.140  0.00  0.00    +0.240 C 
ATOM      8  C   LIG    1       -0.707   3.145  -1.148  0.00  0.00    +0.030 C 
ATOM      9  O   LIG    1       -2.138   0.380  -3.139  0.00  0.00    -0.530 OA
ENDROOT
BRANCH   1  12
ATOM     10  C   LIG    1       -4.230  -1.230  -4.219  0.00  0.00    +0.190 C 
ATOM     11  C   LIG    1       -4.779  -0.754  -2.899  0.00  0.00    +0.140 A 
ATOM     12  C   LIG    1       -4.130   0.019  -1.978  0.00  0.00    -0.100 A 
ATOM     13  N   LIG    1       -4.955   0.221  -0.936  0.00  0.00    -0.200 NA
ATOM     14  N   LIG    1       -6.078  -0.369  -1.153  0.00  0.00    -0.050 NA
ATOM     15  N   LIG    1       -6.008  -1.009  -2.399  0.00  0.00    -0.310 N 
BRANCH  15  16
ATOM     16  C   LIG    1       -7.018  -1.768  -3.008  0.00  0.00    +0.110 A 
ATOM     17  C   LIG    1       -8.349  -1.407  -2.851  0.00  0.00    +0.080 A 
ATOM     18  C   LIG    1       -9.342  -2.152  -3.455  0.00  0.00    +0.020 A 
ATOM     19  C   LIG    1       -9.011  -3.266  -4.208  0.00  0.00    +0.120 A 
ATOM     20  C   LIG    1       -7.684  -3.632  -4.362  0.00  0.00    +0.020 A 
ATOM     21  F   LIG    1       -9.984  -3.998  -4.794  0.00  0.00    -0.130 F 
ATOM     22  C   LIG    1       -6.688  -2.885  -3.763  0.00  0.00    +0.060 A 
ENDBRANCH  15  16
ENDBRANCH   1  12
BRANCH   4  23
ATOM     23  C   LIG    1       -2.893   1.347   2.624  0.00  0.00    +0.530 C 
ATOM     24  O   LIG    1       -2.318   2.028   3.447  0.00  0.00    -0.540 OA
ATOM     25  N   LIG    1       -4.164   0.956   2.842  0.00  0.00    -0.850 N 
ATOM     26  H   LIG    1       -4.619   1.218   3.658  0.00  0.00    +0.400 HD
ATOM     27  H   LIG    1       -4.623   0.411   2.184  0.00  0.00    +0.400 HD
ENDBRANCH   4  23
TORSDOF 3
