REMARK  Name = ZINCtV000002EBjW.0
REMARK                            x       y       z     vdW  Elec       q    Type
REMARK                         _______ _______ _______ _____ _____    ______ ____
ROOT
ATOM      1  C   LIG    1        0.549  -0.818  -0.950  0.00  0.00    +0.160 A 
ATOM      2  N   LIG    1        0.346  -2.058  -0.568  0.00  0.00    -0.280 NA
ATOM      3  N   LIG    1       -0.287  -2.078   0.551  0.00  0.00    -0.250 NA
ATOM      4  C   LIG    1       -0.521  -0.849   0.956  0.00  0.00    +0.270 A 
ATOM      5  N   LIG    1        0.002  -0.004   0.002  0.00  0.00    -0.450 N 
ENDROOT
BRANCH   5   6
ATOM      6  C   LIG    1       -0.018   1.461   0.010  0.00  0.00    +0.250 C 
ATOM      7  C   LIG    1       -0.758   1.968  -1.230  0.00  0.00    +0.020 C 
ATOM      8  C   LIG    1       -0.778   3.497  -1.221  0.00  0.00    +0.040 C 
ATOM      9  C   LIG    1        0.657   4.027  -1.232  0.00  0.00    +0.010 C 
ATOM     10  C   LIG    1        1.397   3.520   0.008  0.00  0.00    +0.040 C 
ATOM     11  C   LIG    1        1.418   1.990  -0.001  0.00  0.00    +0.020 C 
ENDBRANCH   5   6
BRANCH   4  12
ATOM     12  C   LIG    1       -1.215  -0.452   2.191  0.00  0.00    +0.030 A 
ATOM     13  C   LIG    1       -1.973  -1.265   2.979  0.00  0.00    +0.030 A 
ATOM     14  C   LIG    1       -2.440  -0.473   4.047  0.00  0.00    -0.050 A 
ATOM     15  C   LIG    1       -1.950   0.769   3.862  0.00  0.00    +0.200 A 
ATOM     16  O   LIG    1       -1.206   0.777   2.743  0.00  0.00    -0.180 OA
ENDBRANCH   4  12
BRANCH   1  17
ATOM     17  S   LIG    1        1.373  -0.299  -2.419  0.00  0.00    +0.060 S 
BRANCH  17  19
ATOM     18  C   LIG    1        0.507  -2.655  -3.499  0.00  0.00    +0.110 C 
ATOM     19  C   LIG    1        1.792  -1.911  -3.130  0.00  0.00    +0.150 C 
BRANCH  19  20
ATOM     20  C   LIG    1        2.631  -1.712  -4.366  0.00  0.00    +0.200 A 
ATOM     21  N   LIG    1        3.720  -2.366  -4.679  0.00  0.00    -0.450 NA
ATOM     22  C   LIG    1        4.122  -1.855  -5.867  0.00  0.00    +0.250 A 
ATOM     23  N   LIG    1        3.263  -0.922  -6.196  0.00  0.00    -0.360 NA
ATOM     24  O   LIG    1        2.404  -0.830  -5.345  0.00  0.00    +0.100 OA
BRANCH  22  25
ATOM     25  C   LIG    1        5.310  -2.268  -6.643  0.00  0.00    -0.140 A 
ATOM     26  C   LIG    1        5.688  -1.742  -7.826  0.00  0.00    +0.070 A 
ATOM     27  C   LIG    1        6.837  -2.288  -8.358  0.00  0.00    +0.010 A 
ATOM     28  C   LIG    1        7.393  -3.261  -7.628  0.00  0.00    -0.030 A 
ATOM     29  S   LIG    1        6.444  -3.527  -6.172  0.00  0.00    +0.190 S 
ENDBRANCH  22  25
ENDBRANCH  19  20
ENDBRANCH  17  19
ENDBRANCH   1  17
TORSDOF 6
