REMARK  Name = ZINC670000002HRB.0
REMARK                            x       y       z     vdW  Elec       q    Type
REMARK                         _______ _______ _______ _____ _____    ______ ____
ROOT
ATOM      1  O   LIG    1        3.350   0.812  -0.026  0.00  0.00    -0.450 OA
ATOM      2  C   LIG    1        2.136   0.795  -0.014  0.00  0.00    +0.590 C 
ATOM      3  O   LIG    1        1.391   1.906  -0.001  0.00  0.00    -0.320 OA
ATOM      4  C   LIG    1       -0.019   1.537   0.011  0.00  0.00    +0.260 C 
ATOM      5  C   LIG    1        0.002  -0.004   0.002  0.00  0.00    +0.260 C 
ATOM      6  O   LIG    1        1.421  -0.335  -0.013  0.00  0.00    -0.330 OA
ENDROOT
TORSDOF 0
