REMARK  Name = ZINCvU0000000Isl.0
REMARK                            x       y       z     vdW  Elec       q    Type
REMARK                         _______ _______ _______ _____ _____    ______ ____
ROOT
ATOM      1  C   LIG    1        3.202  -0.060  -3.422  0.00  0.00    +0.150 A 
ATOM      2  N   LIG    1        3.818   1.097  -3.341  0.00  0.00    -0.290 NA
ATOM      3  N   LIG    1        3.645   1.604  -2.173  0.00  0.00    -0.270 NA
ATOM      4  C   LIG    1        2.915   0.810  -1.442  0.00  0.00    +0.210 A 
ATOM      5  N   LIG    1        2.610  -0.283  -2.209  0.00  0.00    -0.410 N 
ENDROOT
BRANCH   5   6
ATOM      6  C   LIG    1        1.847  -1.398  -1.830  0.00  0.00    +0.090 A 
ATOM      7  C   LIG    1        2.307  -2.249  -0.835  0.00  0.00    +0.070 A 
ATOM      8  C   LIG    1        1.552  -3.343  -0.459  0.00  0.00    +0.010 A 
ATOM      9  C   LIG    1        0.342  -3.598  -1.083  0.00  0.00    +0.120 A 
ATOM     10  C   LIG    1       -0.116  -2.753  -2.080  0.00  0.00    +0.010 A 
ATOM     11  F   LIG    1       -0.392  -4.672  -0.719  0.00  0.00    -0.130 F 
ATOM     12  C   LIG    1        0.634  -1.655  -2.454  0.00  0.00    +0.070 A 
ENDBRANCH   5   6
BRANCH   1  13
ATOM     13  S   LIG    1        3.153  -1.126  -4.824  0.00  0.00    +0.090 S 
BRANCH  13  14
ATOM     14  C   LIG    1        4.149  -0.162  -5.987  0.00  0.00    +0.110 C 
BRANCH  14  17
ATOM     15  N   LIG    1        4.946  -0.369  -8.319  0.00  0.00    -0.720 N 
ATOM     16  H   LIG    1        5.385   0.489  -8.213  0.00  0.00    +0.400 HD
ATOM     17  C   LIG    1        4.248  -0.900  -7.297  0.00  0.00    +0.540 C 
ATOM     18  O   LIG    1        3.699  -1.974  -7.431  0.00  0.00    -0.520 OA
BRANCH  15  20
ATOM     19  C   LIG    1        3.819  -0.765 -10.453  0.00  0.00    +0.040 C 
ATOM     20  C   LIG    1        5.042  -1.087  -9.593  0.00  0.00    +0.330 C 
BRANCH  20  21
ATOM     21  C   LIG    1        6.292  -0.660 -10.318  0.00  0.00    -0.200 A 
ATOM     22  C   LIG    1        7.102  -1.472 -10.999  0.00  0.00    +0.020 A 
ATOM     23  C   LIG    1        8.193  -0.853 -11.584  0.00  0.00    +0.010 A 
ATOM     24  C   LIG    1        8.269   0.463 -11.377  0.00  0.00    -0.030 A 
ATOM     25  S   LIG    1        6.904   0.987 -10.400  0.00  0.00    +0.100 S 
ENDBRANCH  20  21
ENDBRANCH  15  20
ENDBRANCH  14  17
ENDBRANCH  13  14
ENDBRANCH   1  13
BRANCH   4  26
ATOM     26  C   LIG    1        2.490   1.048  -0.016  0.00  0.00    +0.210 C 
BRANCH  26  27
ATOM     27  C   LIG    1        1.175   1.783   0.000  0.00  0.00    -0.090 A 
ATOM     28  C   LIG    1       -0.013   1.076   0.008  0.00  0.00    +0.010 A 
ATOM     29  C   LIG    1       -1.219   1.751   0.017  0.00  0.00    +0.000 A 
ATOM     30  C   LIG    1       -1.238   3.133   0.030  0.00  0.00    +0.010 A 
ATOM     31  C   LIG    1       -0.050   3.840   0.022  0.00  0.00    +0.010 A 
ATOM     32  C   LIG    1        1.156   3.165   0.008  0.00  0.00    +0.030 A 
ENDBRANCH  26  27
ENDBRANCH   4  26
TORSDOF 8
