REMARK  Name = ZINC9l0000002i7b.0
REMARK                            x       y       z     vdW  Elec       q    Type
REMARK                         _______ _______ _______ _____ _____    ______ ____
ROOT
ATOM      1  C   LIG    1        2.116   1.439  -1.412  0.00  0.00    +0.040 C 
ATOM      2  C   LIG    1        1.518   1.476  -0.004  0.00  0.00    -0.070 C 
ATOM      3  C   LIG    1       -0.019   1.534   0.011  0.00  0.00    -0.010 C 
ATOM      4  C   LIG    1        0.002  -0.004   0.002  0.00  0.00    +0.010 C 
ATOM      5  C   LIG    1        2.179   2.521   0.896  0.00  0.00    +0.020 C 
ATOM      6  C   LIG    1        1.394   0.090   0.649  0.00  0.00    -0.090 C 
ENDROOT
BRANCH   6   7
ATOM      7  C   LIG    1        2.377  -0.921   0.116  0.00  0.00    +0.500 C 
ATOM      8  O   LIG    1        3.574  -0.743   0.262  0.00  0.00    -0.700 OA
ATOM      9  O   LIG    1        1.974  -1.916  -0.462  0.00  0.00    -0.700 OA
ENDBRANCH   6   7
TORSDOF 1
