REMARK  Name = ZINCrH000004mdMI.0
REMARK                            x       y       z     vdW  Elec       q    Type
REMARK                         _______ _______ _______ _____ _____    ______ ____
ROOT
ATOM      1  C   LIG    1       -2.915  -1.597  -2.048  0.00  0.00    +0.240 C 
ATOM      2  C   LIG    1       -2.076  -2.598  -2.845  0.00  0.00    +0.010 C 
ATOM      3  C   LIG    1       -1.600  -3.716  -1.913  0.00  0.00    +0.290 C 
ATOM      4  N   LIG    1       -2.770  -4.306  -1.246  0.00  0.00    -0.610 N 
ATOM      5  C   LIG    1       -3.694  -3.419  -0.527  0.00  0.00    +0.270 C 
ATOM      6  C   LIG    1       -2.990  -5.635  -1.294  0.00  0.00    +0.600 C 
ATOM      7  O   LIG    1       -2.277  -6.345  -1.977  0.00  0.00    -0.510 OA
ATOM      8  C   LIG    1       -4.146  -2.304  -1.475  0.00  0.00    +0.030 C 
ENDROOT
BRANCH   6   9
ATOM      9  C   LIG    1       -4.090  -6.224  -0.523  0.00  0.00    -0.290 A 
ATOM     10  C   LIG    1       -4.926  -7.207  -0.944  0.00  0.00    +0.170 A 
ATOM     11  N   LIG    1       -5.828  -7.558  -0.062  0.00  0.00    -0.470 NA
ATOM     12  C   LIG    1       -5.818  -6.943   1.077  0.00  0.00    +0.240 A 
ATOM     13  S   LIG    1       -4.558  -5.787   1.119  0.00  0.00    +0.180 S 
BRANCH  10  14
ATOM     14  C   LIG    1       -4.824  -7.839  -2.308  0.00  0.00    +0.020 C 
ATOM     15  C   LIG    1       -5.948  -8.786  -2.733  0.00  0.00    +0.050 C 
ATOM     16  C   LIG    1       -4.570  -9.346  -2.371  0.00  0.00    +0.050 C 
ENDBRANCH  10  14
ENDBRANCH   6   9
BRANCH   1  17
ATOM     17  N   LIG    1       -3.344  -0.508  -2.929  0.00  0.00    -0.730 N 
ATOM     18  H   LIG    1       -4.214  -0.544  -3.356  0.00  0.00    +0.400 HD
BRANCH  17  21
ATOM     19  C   LIG    1       -2.068   2.695  -4.213  0.00  0.00    +0.210 A 
ATOM     20  C   LIG    1       -2.906   1.613  -3.990  0.00  0.00    -0.130 A 
ATOM     21  C   LIG    1       -2.500   0.581  -3.154  0.00  0.00    +0.290 A 
ATOM     22  C   LIG    1       -1.254   0.633  -2.543  0.00  0.00    -0.140 A 
ATOM     23  C   LIG    1       -0.417   1.715  -2.767  0.00  0.00    +0.210 A 
ATOM     24  C   LIG    1       -0.823   2.746  -3.602  0.00  0.00    -0.220 A 
BRANCH  19  26
ATOM     25  C   LIG    1       -1.550   4.788  -5.215  0.00  0.00    +0.250 C 
ATOM     26  O   LIG    1       -2.465   3.705  -5.030  0.00  0.00    -0.310 OA
ENDBRANCH  19  26
BRANCH  23  27
ATOM     27  O   LIG    1        0.802   1.766  -2.168  0.00  0.00    -0.310 OA
ATOM     28  C   LIG    1        1.612   2.911  -2.443  0.00  0.00    +0.250 C 
ENDBRANCH  23  27
ENDBRANCH  17  21
ENDBRANCH   1  17
TORSDOF 6
