REMARK  Name = ZINCqH0000037ziq.0
REMARK                            x       y       z     vdW  Elec       q    Type
REMARK                         _______ _______ _______ _____ _____    ______ ____
ROOT
ATOM      1  C   LIG    1        1.306  -2.160   0.412  0.00  0.00    +0.570 C 
ATOM      2  N   LIG    1        2.477  -2.815   0.285  0.00  0.00    -0.640 N 
ATOM      3  H   LIG    1        3.313  -2.325   0.321  0.00  0.00    +0.410 HD
ATOM      4  O   LIG    1        0.258  -2.775   0.366  0.00  0.00    -0.530 OA
ENDROOT
BRANCH   1  13
ATOM      5  C   LIG    1       -2.444   2.103   1.087  0.00  0.00    +0.180 C 
ATOM      6  C   LIG    1       -0.960   2.364   1.079  0.00  0.00    +0.120 A 
ATOM      7  N   LIG    1       -0.383   3.522   1.218  0.00  0.00    -0.250 NA
ATOM      8  N   LIG    1        1.006   3.380   1.152  0.00  0.00    -0.500 N 
ATOM      9  H   LIG    1        1.650   4.102   1.225  0.00  0.00    +0.440 HD
ATOM     10  C   LIG    1        1.314   2.059   0.968  0.00  0.00    +0.160 A 
ATOM     11  C   LIG    1        2.515   1.362   0.835  0.00  0.00    -0.010 A 
ATOM     12  C   LIG    1        2.506   0.011   0.657  0.00  0.00    +0.090 A 
ATOM     13  C   LIG    1        1.296  -0.696   0.605  0.00  0.00    -0.180 A 
ATOM     14  C   LIG    1        0.087  -0.022   0.735  0.00  0.00    +0.190 A 
ATOM     15  C   LIG    1        0.090   1.361   0.917  0.00  0.00    -0.190 A 
ENDBRANCH   1  13
BRANCH   2  16
ATOM     16  C   LIG    1        2.487  -4.210   0.101  0.00  0.00    +0.020 A 
ATOM     17  C   LIG    1        3.578  -4.975  -0.159  0.00  0.00    +0.080 A 
ATOM     18  N   LIG    1        3.160  -6.263  -0.263  0.00  0.00    -0.380 N 
ATOM     19  N   LIG    1        1.773  -6.282  -0.070  0.00  0.00    -0.270 NA
ATOM     20  C   LIG    1        1.370  -5.057   0.148  0.00  0.00    +0.280 A 
BRANCH  17  21
ATOM     21  C   LIG    1        4.995  -4.484  -0.303  0.00  0.00    +0.020 C 
ATOM     22  C   LIG    1        6.081  -5.217   0.488  0.00  0.00    +0.040 C 
ATOM     23  C   LIG    1        5.638  -3.815   0.913  0.00  0.00    +0.050 C 
ENDBRANCH  17  21
BRANCH  18  24
ATOM     24  C   LIG    1        4.010  -7.425  -0.535  0.00  0.00    +0.380 C 
BRANCH  24  25
ATOM     25  C   LIG    1        4.105  -7.645  -2.046  0.00  0.00    +0.440 C 
ATOM     26  F   LIG    1        2.826  -7.870  -2.566  0.00  0.00    -0.170 F 
ATOM     27  F   LIG    1        4.916  -8.755  -2.306  0.00  0.00    -0.170 F 
ATOM     28  F   LIG    1        4.660  -6.511  -2.648  0.00  0.00    -0.180 F 
ENDBRANCH  24  25
ENDBRANCH  18  24
ENDBRANCH   2  16
TORSDOF 5
