REMARK  Name = ZINCrD00000e0Kvi.0
REMARK                            x       y       z     vdW  Elec       q    Type
REMARK                         _______ _______ _______ _____ _____    ______ ____
ROOT
ATOM      1  N   LIG    1        1.320  -2.603   1.165  0.00  0.00    -0.600 NA
ATOM      2  C   LIG    1        1.905  -2.009  -0.029  0.00  0.00    +0.350 C 
ATOM      3  C   LIG    1        1.354  -0.602  -0.179  0.00  0.00    -0.280 A 
ATOM      4  C   LIG    1        0.050  -0.340  -0.426  0.00  0.00    +0.110 A 
ATOM      5  N   LIG    1       -0.095   0.990  -0.519  0.00  0.00    -0.320 N 
ATOM      6  N   LIG    1        1.167   1.571  -0.300  0.00  0.00    -0.280 NA
ATOM      7  C   LIG    1       -0.989  -1.436  -0.566  0.00  0.00    +0.120 C 
ATOM      8  C   LIG    1       -1.164  -2.088   0.814  0.00  0.00    -0.080 C 
ATOM      9  C   LIG    1       -2.472  -2.898   0.796  0.00  0.00    +0.040 C 
ATOM     10  C   LIG    1       -1.294  -1.005   1.885  0.00  0.00    +0.030 C 
ATOM     11  C   LIG    1        2.035   0.607  -0.098  0.00  0.00    +0.260 A 
ATOM     12  C   LIG    1       -0.036  -3.026   1.148  0.00  0.00    +0.230 C 
ENDROOT
BRANCH   5  13
ATOM     13  C   LIG    1       -1.278   1.693  -0.789  0.00  0.00    +0.160 A 
ATOM     14  C   LIG    1       -2.078   1.323  -1.861  0.00  0.00    +0.030 A 
ATOM     15  C   LIG    1       -3.245   2.014  -2.122  0.00  0.00    +0.040 A 
ATOM     16  C   LIG    1       -3.612   3.081  -1.323  0.00  0.00    +0.040 A 
ATOM     17  C   LIG    1       -2.815   3.457  -0.258  0.00  0.00    +0.040 A 
ATOM     18  C   LIG    1       -1.649   2.766   0.012  0.00  0.00    -0.030 A 
ATOM     19 CL   LIG    1       -0.648   3.239   1.350  0.00  0.00    -0.040 Cl
ENDBRANCH   5  13
BRANCH   1  20
ATOM     20  C   LIG    1        1.828  -2.093   2.425  0.00  0.00    +0.240 C 
BRANCH  20  24
ATOM     21  C   LIG    1        4.437  -3.351   6.247  0.00  0.00    +0.340 C 
ATOM     22  N   LIG    1        3.575  -3.473   5.069  0.00  0.00    -0.640 N 
ATOM     23  C   LIG    1        2.352  -2.695   4.818  0.00  0.00    +0.250 C 
ATOM     24  C   LIG    1        1.855  -3.221   3.458  0.00  0.00    +0.180 C 
ATOM     25  O   LIG    1        2.837  -4.231   3.086  0.00  0.00    -0.300 OA
ATOM     26  C   LIG    1        3.773  -4.312   4.042  0.00  0.00    +0.640 C 
ATOM     27  O   LIG    1        4.715  -5.078   3.984  0.00  0.00    -0.520 OA
ENDBRANCH  20  24
ENDBRANCH   1  20
TORSDOF 3
