REMARK  Name = ZINCpe000000YwoB.0
REMARK                            x       y       z     vdW  Elec       q    Type
REMARK                         _______ _______ _______ _____ _____    ______ ____
ROOT
ATOM      1  N   LIG    1       -0.097   6.460  -1.543  0.00  0.00    -1.110 NA
ATOM      2  H   LIG    1        0.655   6.954  -1.905  0.00  0.00    +0.420 HD
ENDROOT
BRANCH   1   3
ATOM      3  C   LIG    1       -1.251   6.156  -2.392  0.00  0.00    +0.270 C 
ATOM      4  C   LIG    1       -0.979   4.876  -3.192  0.00  0.00    +0.020 C 
ATOM      5  C   LIG    1        0.365   5.030  -3.908  0.00  0.00    +0.080 C 
ATOM      6  C   LIG    1        0.414   6.350  -4.624  0.00  0.00    +0.520 C 
ATOM      7  N   LIG    1       -0.409   7.364  -4.355  0.00  0.00    -0.720 N 
ATOM      8  H   LIG    1       -0.285   8.192  -4.844  0.00  0.00    +0.400 HD
ATOM      9  O   LIG    1        1.246   6.501  -5.493  0.00  0.00    -0.550 OA
ATOM     10  C   LIG    1       -1.487   7.308  -3.370  0.00  0.00    +0.240 C 
BRANCH  10  11
ATOM     11  C   LIG    1       -1.540   8.626  -2.595  0.00  0.00    +0.150 C 
ATOM     12  C   LIG    1       -1.813   9.806  -3.560  0.00  0.00    +0.010 C 
ATOM     13  C   LIG    1       -2.454  10.838  -2.590  0.00  0.00    +0.010 C 
ATOM     14  C   LIG    1       -3.228   9.930  -1.610  0.00  0.00    +0.190 C 
ATOM     15  O   LIG    1       -2.648   8.622  -1.681  0.00  0.00    -0.360 OA
ENDBRANCH  10  11
ENDBRANCH   1   3
BRANCH   1  16
ATOM     16  S   LIG    1       -0.075   5.961   0.036  0.00  0.00    +2.690 S 
ATOM     17  O   LIG    1        1.175   6.374   0.571  0.00  0.00    -0.940 OA
ATOM     18  O   LIG    1       -1.324   6.344   0.595  0.00  0.00    -0.930 OA
BRANCH  16  22
ATOM     19  C   LIG    1       -0.017   1.428   0.010  0.00  0.00    +0.000 A 
ATOM     20  C   LIG    1        1.180   2.146   0.002  0.00  0.00    +0.100 A 
ATOM     21  C   LIG    1        1.154   3.525   0.010  0.00  0.00    +0.130 A 
ATOM     22  C   LIG    1       -0.054   4.199   0.026  0.00  0.00    -0.630 A 
ATOM     23  C   LIG    1       -1.246   3.497   0.033  0.00  0.00    +0.120 A 
ATOM     24  C   LIG    1       -1.236   2.114   0.019  0.00  0.00    +0.130 A 
ATOM     25  F   LIG    1       -2.400   1.429   0.021  0.00  0.00    -0.120 F 
BRANCH  19  27
ATOM     26  N   LIG    1        0.018  -1.140  -0.004  0.00  0.00    -0.370 NA
ATOM     27  C   LIG    1        0.002  -0.004   0.002  0.00  0.00    +0.240 C 
ENDBRANCH  19  27
ENDBRANCH  16  22
ENDBRANCH   1  16
TORSDOF 5
