REMARK  Name = ZINCrH00000osQb2.0
REMARK                            x       y       z     vdW  Elec       q    Type
REMARK                         _______ _______ _______ _____ _____    ______ ____
ROOT
ATOM      1  C   LIG    1        4.585  -5.961   0.212  0.00  0.00    +0.090 C 
ATOM      2  C   LIG    1        3.108  -5.662   0.235  0.00  0.00    -0.080 A 
ATOM      3  C   LIG    1        2.204  -6.677   0.502  0.00  0.00    +0.010 A 
ATOM      4  C   LIG    1        0.849  -6.418   0.525  0.00  0.00    +0.050 A 
ATOM      5  C   LIG    1        0.383  -5.130   0.287  0.00  0.00    -0.130 A 
ATOM      6  C   LIG    1        1.297  -4.101   0.011  0.00  0.00    -0.040 A 
ATOM      7  C   LIG    1        2.664  -4.380  -0.009  0.00  0.00    +0.070 A 
ENDROOT
BRANCH   6   8
ATOM      8  C   LIG    1        0.814  -2.729  -0.250  0.00  0.00    +0.510 C 
ATOM      9  O   LIG    1       -0.381  -2.490  -0.231  0.00  0.00    -0.580 OA
BRANCH   8  10
ATOM     10  N   LIG    1        1.690  -1.749  -0.508  0.00  0.00    -0.680 NA
ATOM     11  C   LIG    1        1.266  -0.499  -0.646  0.00  0.00    +0.340 A 
ATOM     12  C   LIG    1       -0.084  -0.071  -0.662  0.00  0.00    +0.210 A 
ATOM     13  N   LIG    1       -0.122   1.221  -0.815  0.00  0.00    -0.290 NA
ATOM     14  N   LIG    1        1.187   1.711  -0.907  0.00  0.00    -0.360 N 
ATOM     15  N   LIG    1        2.056   0.615  -0.799  0.00  0.00    -0.350 NA
BRANCH  14  16
ATOM     16  C   LIG    1        1.577   3.112  -1.085  0.00  0.00    +0.340 C 
ATOM     17  C   LIG    1        0.676   4.106  -0.330  0.00  0.00    +0.290 C 
ATOM     18  N   LIG    1        0.747   4.942  -1.549  0.00  0.00    -0.530 N 
ATOM     19  H   LIG    1       -0.133   5.380  -1.778  0.00  0.00    +0.430 HD
ATOM     20  H   LIG    1        1.512   5.600  -1.531  0.00  0.00    +0.440 HD
ATOM     21  C   LIG    1        1.032   3.749  -2.376  0.00  0.00    +0.270 C 
ENDBRANCH  14  16
ENDBRANCH   8  10
ENDBRANCH   6   8
BRANCH   5  22
ATOM     22  S   LIG    1       -1.346  -4.793   0.325  0.00  0.00    +0.050 S 
BRANCH  22  23
ATOM     23  C   LIG    1       -1.565  -4.016   1.891  0.00  0.00    -0.060 A 
ATOM     24  C   LIG    1       -0.502  -3.935   2.782  0.00  0.00    +0.010 A 
ATOM     25  C   LIG    1       -0.675  -3.321   4.007  0.00  0.00    +0.040 A 
ATOM     26  C   LIG    1       -1.908  -2.797   4.352  0.00  0.00    -0.050 A 
ATOM     27  C   LIG    1       -2.970  -2.881   3.468  0.00  0.00    +0.040 A 
ATOM     28 CL   LIG    1       -2.124  -2.033   5.896  0.00  0.00    -0.080 Cl
ATOM     29  C   LIG    1       -2.802  -3.489   2.240  0.00  0.00    +0.030 A 
ENDBRANCH  22  23
ENDBRANCH   5  22
TORSDOF 5
