REMARK  Name = ZINCpe00000ziFrx.0
REMARK                            x       y       z     vdW  Elec       q    Type
REMARK                         _______ _______ _______ _____ _____    ______ ____
ROOT
ATOM      1  C   LIG    1        7.505   4.258   1.046  0.00  0.00    -0.000 A 
ATOM      2  C   LIG    1        7.997   5.202   0.143  0.00  0.00    +0.080 A 
ATOM      3  C   LIG    1        7.142   5.793  -0.764  0.00  0.00    +0.030 A 
ATOM      4  C   LIG    1        5.802   5.452  -0.779  0.00  0.00    +0.080 A 
ATOM      5  C   LIG    1        5.306   4.516   0.115  0.00  0.00    -0.110 A 
ATOM      6  C   LIG    1        3.914   3.967   0.306  0.00  0.00    +0.320 C 
ATOM      7  N   LIG    1        3.964   2.998   1.406  0.00  0.00    -0.610 N 
ATOM      8  C   LIG    1        2.931   2.284   1.895  0.00  0.00    +0.560 C 
ATOM      9  O   LIG    1        3.109   1.508   2.809  0.00  0.00    -0.510 OA
ATOM     10  C   LIG    1        5.355   2.951   1.867  0.00  0.00    +0.330 C 
ATOM     11  C   LIG    1        6.149   3.918   1.026  0.00  0.00    -0.060 A 
ENDROOT
BRANCH   8  12
ATOM     12  C   LIG    1        1.554   2.451   1.306  0.00  0.00    +0.170 C 
ATOM     13  C   LIG    1        1.426   1.641  -0.003  0.00  0.00    +0.080 C 
ATOM     14  C   LIG    1       -0.013   1.086   0.008  0.00  0.00    +0.180 C 
ATOM     15  C   LIG    1       -0.634   1.606   1.322  0.00  0.00    +0.180 C 
ATOM     16  N   LIG    1        0.529   1.866   2.209  0.00  0.00    -0.430 N 
BRANCH  16  17
ATOM     17  C   LIG    1        0.195   2.752   3.220  0.00  0.00    +0.350 A 
ATOM     18  C   LIG    1       -0.757   2.405   4.181  0.00  0.00    -0.080 A 
ATOM     19  C   LIG    1       -1.053   3.322   5.171  0.00  0.00    +0.330 A 
ATOM     20  N   LIG    1       -0.435   4.495   5.172  0.00  0.00    -0.540 NA
ATOM     21  C   LIG    1        0.456   4.794   4.248  0.00  0.00    +0.520 A 
ATOM     22  N   LIG    1        0.772   3.948   3.288  0.00  0.00    -0.560 NA
ENDBRANCH  16  17
BRANCH  14  23
ATOM     23  O   LIG    1       -0.743   1.578  -1.117  0.00  0.00    -0.560 OA
ATOM     24  H   LIG    1       -1.662   1.279  -1.151  0.00  0.00    +0.390 HD
ENDBRANCH  14  23
ENDBRANCH   8  12
BRANCH   1  26
ATOM     25  N   LIG    1        9.086   3.151   2.740  0.00  0.00    -0.400 NA
ATOM     26  C   LIG    1        8.387   3.641   1.991  0.00  0.00    +0.240 C 
ENDBRANCH   1  26
TORSDOF 4
