REMARK  Name = ZINCvU0000000CuB.0
REMARK                            x       y       z     vdW  Elec       q    Type
REMARK                         _______ _______ _______ _____ _____    ______ ____
ROOT
ATOM      1  S   LIG    1        2.251   5.585   0.731  0.00  0.00    +0.020 S 
ENDROOT
BRANCH   1   2
ATOM      2  C   LIG    1        3.927   6.130   0.733  0.00  0.00    +0.170 A 
ATOM      3  N   LIG    1        4.967   5.453   0.300  0.00  0.00    -0.260 NA
ATOM      4  N   LIG    1        6.039   6.145   0.448  0.00  0.00    -0.240 NA
ATOM      5  C   LIG    1        5.752   7.311   0.987  0.00  0.00    +0.280 A 
ATOM      6  N   LIG    1        4.387   7.339   1.181  0.00  0.00    -0.410 N 
BRANCH   6   7
ATOM      7  C   LIG    1        3.630   8.385   1.726  0.00  0.00    +0.100 A 
ATOM      8  C   LIG    1        3.546   9.602   1.062  0.00  0.00    +0.040 A 
ATOM      9  C   LIG    1        2.796  10.630   1.600  0.00  0.00    +0.040 A 
ATOM     10  C   LIG    1        2.136  10.451   2.802  0.00  0.00    +0.040 A 
ATOM     11  C   LIG    1        2.222   9.242   3.467  0.00  0.00    +0.040 A 
ATOM     12  C   LIG    1        2.967   8.209   2.933  0.00  0.00    +0.030 A 
ENDBRANCH   6   7
BRANCH   5  13
ATOM     13  C   LIG    1        6.705   8.382   1.313  0.00  0.00    +0.030 A 
ATOM     14  C   LIG    1        7.990   8.474   0.867  0.00  0.00    +0.030 A 
ATOM     15  C   LIG    1        8.528   9.651   1.422  0.00  0.00    -0.050 A 
ATOM     16  C   LIG    1        7.562  10.211   2.177  0.00  0.00    +0.200 A 
ATOM     17  O   LIG    1        6.462   9.442   2.109  0.00  0.00    -0.170 OA
ENDBRANCH   5  13
ENDBRANCH   1   2
BRANCH   1  18
ATOM     18  C   LIG    1        2.456   3.942  -0.001  0.00  0.00    +0.120 C 
ATOM     19  C   LIG    1        2.950   4.083  -1.442  0.00  0.00    +0.110 C 
BRANCH  18  27
ATOM     20  C   LIG    1       -5.068   2.147   0.060  0.00  0.00    +0.150 C 
ATOM     21  C   LIG    1       -3.584   2.407   0.047  0.00  0.00    -0.200 A 
ATOM     22  C   LIG    1       -2.660   1.464   0.034  0.00  0.00    -0.030 A 
ATOM     23  C   LIG    1       -1.295   1.951   0.019  0.00  0.00    -0.210 A 
ATOM     24  C   LIG    1       -1.232   3.335   0.031  0.00  0.00    +0.050 A 
ATOM     25  N   LIG    1        0.004   3.945   0.023  0.00  0.00    -0.580 N 
ATOM     26  H   LIG    1        0.058   4.913   0.028  0.00  0.00    +0.420 HD
ATOM     27  C   LIG    1        1.133   3.220   0.008  0.00  0.00    +0.460 A 
ATOM     28  N   LIG    1        1.132   1.916   0.002  0.00  0.00    -0.560 NA
ATOM     29  C   LIG    1       -0.015   1.216   0.009  0.00  0.00    +0.550 A 
ATOM     30  O   LIG    1        0.002  -0.004   0.002  0.00  0.00    -0.470 OA
ATOM     31  C   LIG    1       -2.999  -0.004   0.029  0.00  0.00    +0.130 C 
ATOM     32  S   LIG    1       -2.857   4.004   0.049  0.00  0.00    +0.180 S 
ENDBRANCH  18  27
ENDBRANCH   1  18
TORSDOF 5
