REMARK  Name = ZINCpe000000Z4A5.0
REMARK                            x       y       z     vdW  Elec       q    Type
REMARK                         _______ _______ _______ _____ _____    ______ ____
ROOT
ATOM      1  O   LIG    1        3.265  -6.204   1.360  0.00  0.00    -0.580 OA
ATOM      2  C   LIG    1        2.178  -5.702   1.573  0.00  0.00    +0.710 C 
ATOM      3  N   LIG    1        1.742  -4.685   0.804  0.00  0.00    -0.630 N 
ATOM      4  C   LIG    1        2.607  -4.094  -0.227  0.00  0.00    +0.310 C 
ATOM      5  C   LIG    1        2.625  -2.574  -0.035  0.00  0.00    +0.210 C 
ATOM      6  N   LIG    1        1.246  -2.069  -0.018  0.00  0.00    -0.470 N 
ATOM      7  C   LIG    1        0.492  -2.615   1.119  0.00  0.00    +0.200 C 
ATOM      8  C   LIG    1        0.387  -4.137   0.974  0.00  0.00    +0.300 C 
ATOM      9  N   LIG    1        1.409  -6.164   2.579  0.00  0.00    -0.750 N 
ATOM     10  H   LIG    1        0.512  -5.815   2.704  0.00  0.00    +0.400 HD
ENDROOT
BRANCH   6  11
ATOM     11  C   LIG    1        1.223  -0.679  -0.009  0.00  0.00    +0.260 A 
ATOM     12  C   LIG    1        0.007  -0.001   0.008  0.00  0.00    +0.210 A 
ATOM     13  N   LIG    1       -0.009   1.319   0.016  0.00  0.00    -0.420 NA
ATOM     14  C   LIG    1        1.127   1.996   0.009  0.00  0.00    +0.190 A 
ATOM     15  C   LIG    1        2.335   1.326  -0.007  0.00  0.00    +0.250 A 
ATOM     16  N   LIG    1        2.361   0.004  -0.016  0.00  0.00    -0.480 NA
ENDBRANCH   6  11
BRANCH   9  17
ATOM     17  C   LIG    1        1.927  -7.193   3.485  0.00  0.00    +0.280 C 
BRANCH  17  18
ATOM     18  C   LIG    1        0.862  -7.537   4.528  0.00  0.00    +0.030 C 
BRANCH  18  19
ATOM     19  C   LIG    1        1.403  -8.611   5.474  0.00  0.00    +0.170 C 
BRANCH  19  20
ATOM     20  O   LIG    1        0.409  -8.933   6.449  0.00  0.00    -0.380 OA
BRANCH  20  21
ATOM     21  C   LIG    1        0.816  -9.932   7.386  0.00  0.00    +0.190 C 
BRANCH  21  22
ATOM     22  C   LIG    1       -0.321 -10.194   8.376  0.00  0.00    +0.160 C 
ATOM     23  C   LIG    1        0.059 -11.357   9.313  0.00  0.00    +0.010 C 
ATOM     24  C   LIG    1       -0.012 -10.741  10.731  0.00  0.00    +0.000 C 
ATOM     25  C   LIG    1       -0.924  -9.508  10.504  0.00  0.00    +0.190 C 
ATOM     26  O   LIG    1       -0.530  -9.034   9.198  0.00  0.00    -0.360 OA
ENDBRANCH  21  22
ENDBRANCH  20  21
ENDBRANCH  19  20
ENDBRANCH  18  19
ENDBRANCH  17  18
ENDBRANCH   9  17
TORSDOF 7
