REMARK  Name = ZINCrD000000BpnH.0
REMARK                            x       y       z     vdW  Elec       q    Type
REMARK                         _______ _______ _______ _____ _____    ______ ____
ROOT
ATOM      1  O   LIG    1        4.770   1.345  -0.137  0.00  0.00    -0.560 OA
ATOM      2  C   LIG    1        4.814   0.130  -0.143  0.00  0.00    +0.700 C 
ATOM      3  N   LIG    1        3.678  -0.586  -0.035  0.00  0.00    -0.680 N 
ATOM      4  H   LIG    1        3.719  -1.552   0.042  0.00  0.00    +0.410 HD
ATOM      5  N   LIG    1        6.000  -0.501  -0.259  0.00  0.00    -0.740 N 
ATOM      6  H   LIG    1        6.035  -1.470  -0.265  0.00  0.00    +0.400 HD
ENDROOT
BRANCH   3   7
ATOM      7  C   LIG    1        2.441   0.062  -0.033  0.00  0.00    +0.170 A 
ATOM      8  C   LIG    1        2.303   1.296  -0.630  0.00  0.00    +0.020 A 
ATOM      9  C   LIG    1        1.075   1.951  -0.634  0.00  0.00    +0.040 A 
ATOM     10  C   LIG    1       -0.021   1.394  -0.050  0.00  0.00    +0.000 A 
ATOM     11  C   LIG    1        0.077   0.136   0.570  0.00  0.00    -0.030 A 
ATOM     12  C   LIG    1       -1.037  -0.464   1.180  0.00  0.00    +0.030 A 
ATOM     13  C   LIG    1       -0.906  -1.684   1.771  0.00  0.00    +0.000 A 
ATOM     14  C   LIG    1        0.318  -2.348   1.780  0.00  0.00    +0.000 A 
ATOM     15  C   LIG    1        1.419  -1.796   1.199  0.00  0.00    +0.010 A 
ATOM     16  C   LIG    1        1.322  -0.541   0.580  0.00  0.00    -0.070 A 
ENDBRANCH   3   7
BRANCH   5  17
ATOM     17  C   LIG    1        7.235   0.278  -0.377  0.00  0.00    +0.350 C 
BRANCH  17  18
ATOM     18  C   LIG    1        8.410  -0.659  -0.492  0.00  0.00    -0.190 A 
ATOM     19  C   LIG    1        8.842  -1.092  -1.739  0.00  0.00    +0.110 A 
ATOM     20  C   LIG    1        9.924  -1.951  -1.801  0.00  0.00    -0.050 A 
ATOM     21  C   LIG    1       10.540  -2.350  -0.619  0.00  0.00    +0.320 A 
ATOM     22  N   LIG    1       10.098  -1.915   0.551  0.00  0.00    -0.520 NA
ATOM     23  C   LIG    1        9.072  -1.090   0.640  0.00  0.00    +0.310 A 
BRANCH  21  24
ATOM     24  N   LIG    1       11.628  -3.213  -0.666  0.00  0.00    -0.480 N 
ATOM     25  C   LIG    1       11.286  -4.454  -1.376  0.00  0.00    +0.180 C 
ATOM     26  C   LIG    1       12.526  -5.348  -1.458  0.00  0.00    +0.230 C 
ATOM     27  O   LIG    1       13.015  -5.597  -0.137  0.00  0.00    -0.380 OA
ATOM     28  C   LIG    1       13.359  -4.410   0.583  0.00  0.00    +0.230 C 
ATOM     29  C   LIG    1       12.127  -3.507   0.685  0.00  0.00    +0.190 C 
ENDBRANCH  21  24
ENDBRANCH  17  18
ENDBRANCH   5  17
TORSDOF 4
