REMARK  Name = ZINCqH0000005nPH.1
REMARK                            x       y       z     vdW  Elec       q    Type
REMARK                         _______ _______ _______ _____ _____    ______ ____
ROOT
ATOM      1  C   LIG    1       -0.778   1.954  -1.074  0.00  0.00    +0.070 A 
ATOM      2  C   LIG    1       -0.416   1.651  -2.377  0.00  0.00    +0.020 A 
ATOM      3  C   LIG    1       -1.159   2.143  -3.434  0.00  0.00    +0.030 A 
ATOM      4  C   LIG    1       -2.265   2.939  -3.195  0.00  0.00    -0.020 A 
ATOM      5  C   LIG    1       -2.633   3.247  -1.897  0.00  0.00    +0.040 A 
ATOM      6 CL   LIG    1       -3.193   3.555  -4.527  0.00  0.00    -0.060 Cl
ATOM      7  C   LIG    1       -1.897   2.752  -0.832  0.00  0.00    +0.180 A 
ENDROOT
BRANCH   1  12
ATOM      8  C   LIG    1        2.905  -0.505   2.323  0.00  0.00    +0.190 C 
ATOM      9  N   LIG    1        2.116   0.018   1.199  0.00  0.00    -0.550 NA
ATOM     10  C   LIG    1        0.749  -0.519   1.220  0.00  0.00    +0.180 C 
ATOM     11  C   LIG    1       -0.014  -0.014  -0.008  0.00  0.00    +0.190 C 
ATOM     12  N   LIG    1       -0.028   1.455  -0.003  0.00  0.00    -0.500 N 
ATOM     13  C   LIG    1        1.340   1.992  -0.024  0.00  0.00    +0.190 C 
ATOM     14  C   LIG    1        2.102   1.488   1.204  0.00  0.00    +0.180 C 
ENDBRANCH   1  12
BRANCH   7  15
ATOM     15  N   LIG    1       -2.272   3.056   0.483  0.00  0.00    -0.650 N 
ATOM     16  H   LIG    1       -2.147   2.401   1.188  0.00  0.00    +0.420 HD
ATOM     17  C   LIG    1       -2.805   4.260   0.770  0.00  0.00    +0.520 C 
ATOM     18  O   LIG    1       -3.036   5.050  -0.121  0.00  0.00    -0.490 OA
BRANCH  17  19
ATOM     19  C   LIG    1       -3.115   4.626   2.199  0.00  0.00    +0.240 C 
BRANCH  19  20
ATOM     20  O   LIG    1       -3.669   5.942   2.245  0.00  0.00    -0.290 OA
BRANCH  20  21
ATOM     21  C   LIG    1       -4.006   6.428   3.468  0.00  0.00    +0.130 A 
ATOM     22  C   LIG    1       -3.814   5.651   4.601  0.00  0.00    -0.060 A 
ATOM     23  C   LIG    1       -4.153   6.148   5.845  0.00  0.00    +0.070 A 
ATOM     24  C   LIG    1       -4.694   7.416   5.960  0.00  0.00    -0.070 A 
ATOM     25  C   LIG    1       -4.892   8.191   4.830  0.00  0.00    +0.070 A 
ATOM     26 CL   LIG    1       -5.126   8.037   7.522  0.00  0.00    -0.070 Cl
ATOM     27  C   LIG    1       -4.549   7.699   3.586  0.00  0.00    +0.010 A 
ENDBRANCH  20  21
ENDBRANCH  19  20
ENDBRANCH  17  19
ENDBRANCH   7  15
TORSDOF 5
