REMARK  Name = ZINCrH00000tj0TA.0
REMARK                            x       y       z     vdW  Elec       q    Type
REMARK                         _______ _______ _______ _____ _____    ______ ____
ROOT
ATOM      1  C   LIG    1        0.138  -2.596   1.728  0.00  0.00    +0.070 C 
ENDROOT
BRANCH   1   4
ATOM      2  N   LIG    1        0.485  -2.134   4.133  0.00  0.00    -0.670 N 
ATOM      3  H   LIG    1       -0.413  -2.462   4.295  0.00  0.00    +0.420 HD
ATOM      4  C   LIG    1        0.957  -2.058   2.872  0.00  0.00    +0.520 C 
ATOM      5  O   LIG    1        2.041  -1.557   2.659  0.00  0.00    -0.510 OA
BRANCH   2   9
ATOM      6  C   LIG    1        2.884  -0.953   7.338  0.00  0.00    +0.090 A 
ATOM      7  C   LIG    1        1.505  -0.960   7.470  0.00  0.00    +0.010 A 
ATOM      8  C   LIG    1        0.709  -1.346   6.406  0.00  0.00    -0.070 A 
ATOM      9  C   LIG    1        1.292  -1.738   5.208  0.00  0.00    +0.170 A 
ATOM     10  C   LIG    1        2.674  -1.732   5.073  0.00  0.00    -0.010 A 
ATOM     11 CL   LIG    1       -1.019  -1.347   6.571  0.00  0.00    -0.060 Cl
ATOM     12  C   LIG    1        3.470  -1.340   6.136  0.00  0.00    +0.130 A 
BRANCH   6  14
ATOM     13  C   LIG    1        2.996  -0.183   9.586  0.00  0.00    +0.240 C 
ATOM     14  O   LIG    1        3.665  -0.568   8.383  0.00  0.00    -0.300 OA
ENDBRANCH   6  14
BRANCH  12  15
ATOM     15  O   LIG    1        4.824  -1.333   6.006  0.00  0.00    -0.300 OA
ATOM     16  C   LIG    1        5.357  -1.742   4.745  0.00  0.00    +0.240 C 
ENDBRANCH  12  15
ENDBRANCH   2   9
ENDBRANCH   1   4
BRANCH   1  17
ATOM     17  C   LIG    1        0.896  -2.387   0.415  0.00  0.00    +0.340 C 
BRANCH  17  18
ATOM     18  C   LIG    1        0.135  -3.034  -0.713  0.00  0.00    -0.090 A 
ATOM     19  C   LIG    1       -1.177  -3.426  -0.527  0.00  0.00    +0.070 A 
ATOM     20  C   LIG    1       -1.876  -4.019  -1.562  0.00  0.00    +0.010 A 
ATOM     21  C   LIG    1       -1.262  -4.220  -2.784  0.00  0.00    +0.030 A 
ATOM     22  C   LIG    1        0.050  -3.829  -2.972  0.00  0.00    +0.010 A 
ATOM     23  C   LIG    1        0.747  -3.229  -1.938  0.00  0.00    -0.020 A 
ATOM     24 CL   LIG    1        2.393  -2.730  -2.176  0.00  0.00    -0.070 Cl
ENDBRANCH  17  18
BRANCH  17  25
ATOM     25  N   LIG    1        1.033  -0.952   0.153  0.00  0.00    -0.730 N 
ATOM     26  H   LIG    1        1.913  -0.562   0.038  0.00  0.00    +0.400 HD
ATOM     27  C   LIG    1       -0.065  -0.174   0.072  0.00  0.00    +0.710 C 
ATOM     28  O   LIG    1       -1.171  -0.676   0.126  0.00  0.00    -0.590 OA
ATOM     29  N   LIG    1        0.063   1.160  -0.068  0.00  0.00    -0.870 N 
ATOM     30  H   LIG    1       -0.727   1.719  -0.130  0.00  0.00    +0.410 HD
ATOM     31  H   LIG    1        0.946   1.560  -0.111  0.00  0.00    +0.400 HD
ENDBRANCH  17  25
ENDBRANCH   1  17
TORSDOF 7
