REMARK  Name = ZINCrH000004jgv0.0
REMARK                            x       y       z     vdW  Elec       q    Type
REMARK                         _______ _______ _______ _____ _____    ______ ____
ROOT
ATOM      1  C   LIG    1        0.880   1.945  -4.705  0.00  0.00    +0.060 A 
ATOM      2  C   LIG    1       -0.272   1.334  -4.412  0.00  0.00    -0.060 A 
ATOM      3  S   LIG    1       -0.413   1.234  -2.658  0.00  0.00    +0.150 S 
ATOM      4  C   LIG    1        1.135   2.057  -2.491  0.00  0.00    +0.100 A 
ATOM      5  N   LIG    1        1.608   2.318  -3.676  0.00  0.00    -0.450 NA
ENDROOT
BRANCH   4   6
ATOM      6  C   LIG    1        1.795   2.392  -1.212  0.00  0.00    -0.010 A 
ATOM      7  C   LIG    1        3.030   3.043  -1.209  0.00  0.00    +0.040 A 
ATOM      8  C   LIG    1        3.644   3.354  -0.014  0.00  0.00    +0.060 A 
ATOM      9  C   LIG    1        3.040   3.023   1.187  0.00  0.00    -0.040 A 
ATOM     10  C   LIG    1        1.812   2.382   1.199  0.00  0.00    +0.120 A 
ATOM     11  C   LIG    1        1.185   2.058   0.002  0.00  0.00    +0.080 A 
BRANCH  10  12
ATOM     12  O   LIG    1        1.221   2.065   2.383  0.00  0.00    -0.300 OA
ATOM     13  C   LIG    1        1.921   2.428   3.575  0.00  0.00    +0.240 C 
ENDBRANCH  10  12
BRANCH  11  14
ATOM     14  O   LIG    1       -0.017   1.425   0.010  0.00  0.00    -0.320 OA
ATOM     15  C   LIG    1        0.002  -0.004   0.002  0.00  0.00    +0.230 C 
ENDBRANCH  11  14
ENDBRANCH   4   6
BRANCH   1  16
ATOM     16  C   LIG    1        1.317   2.190  -6.126  0.00  0.00    +0.280 C 
BRANCH  16  17
ATOM     17  N   LIG    1        0.916   3.543  -6.535  0.00  0.00    -0.670 NA
ATOM     18  H   LIG    1        1.287   4.237  -5.903  0.00  0.00    +0.350 HD
BRANCH  17  19
ATOM     19  C   LIG    1        1.327   3.818  -7.918  0.00  0.00    +0.210 C 
ATOM     20  C   LIG    1        0.667   2.806  -8.857  0.00  0.00    +0.070 C 
ATOM     21  C   LIG    1        2.848   3.702  -8.031  0.00  0.00    +0.030 C 
BRANCH  19  24
ATOM     22  C   LIG    1        0.573   7.002  -9.380  0.00  0.00    +0.180 A 
ATOM     23  N   LIG    1        1.109   5.810  -9.487  0.00  0.00    -0.480 NA
ATOM     24  C   LIG    1        0.899   5.211  -8.301  0.00  0.00    +0.180 A 
ATOM     25  N   LIG    1        0.266   6.057  -7.545  0.00  0.00    -0.360 NA
ATOM     26  O   LIG    1        0.069   7.092  -8.145  0.00  0.00    +0.080 OA
BRANCH  22  28
ATOM     27  C   LIG    1       -0.733   7.913 -11.280  0.00  0.00    +0.050 C 
ATOM     28  C   LIG    1        0.538   8.069 -10.443  0.00  0.00    +0.180 C 
ENDBRANCH  22  28
ENDBRANCH  19  24
ENDBRANCH  17  19
ENDBRANCH  16  17
ENDBRANCH   1  16
TORSDOF 8
