REMARK  Name = ZINCpe00000MBc0j.0
REMARK                            x       y       z     vdW  Elec       q    Type
REMARK                         _______ _______ _______ _____ _____    ______ ____
ROOT
ATOM      1  C   LIG    1        1.172   1.806   0.001  0.00  0.00    +0.450 A 
ATOM      2  C   LIG    1       -0.013   1.076   0.008  0.00  0.00    -0.200 A 
ATOM      3  C   LIG    1       -1.217   1.774   0.017  0.00  0.00    +0.380 A 
ATOM      4  N   LIG    1       -1.192   3.105   0.029  0.00  0.00    -0.540 NA
ATOM      5  C   LIG    1       -0.049   3.760   0.022  0.00  0.00    +0.550 A 
ATOM      6  N   LIG    1        1.111   3.136   0.008  0.00  0.00    -0.570 NA
ENDROOT
BRANCH   3   7
ATOM      7  N   LIG    1       -2.424   1.092   0.020  0.00  0.00    -0.470 N 
ATOM      8  C   LIG    1       -2.539   0.222   1.210  0.00  0.00    +0.190 C 
ATOM      9  C   LIG    1       -3.326  -1.030   0.780  0.00  0.00    +0.020 C 
ATOM     10  C   LIG    1       -3.616  -0.827  -0.725  0.00  0.00    +0.060 C 
ATOM     11  C   LIG    1       -2.528   0.188  -1.154  0.00  0.00    +0.140 C 
BRANCH  11  12
ATOM     12  C   LIG    1       -2.972   0.964  -2.396  0.00  0.00    +0.180 C 
BRANCH  12  13
ATOM     13  O   LIG    1       -4.298   1.459  -2.199  0.00  0.00    -0.550 OA
ATOM     14  H   LIG    1       -4.646   1.962  -2.948  0.00  0.00    +0.380 HD
ENDBRANCH  12  13
ENDBRANCH  11  12
ENDBRANCH   3   7
BRANCH   1  15
ATOM     15  N   LIG    1        2.397   1.158  -0.015  0.00  0.00    -0.580 N 
ATOM     16  C   LIG    1        3.637   1.932   0.088  0.00  0.00    +0.320 C 
BRANCH  15  17
ATOM     17  C   LIG    1        2.453  -0.301  -0.134  0.00  0.00    +0.350 C 
BRANCH  17  20
ATOM     18  N   LIG    1        2.574  -1.984  -1.942  0.00  0.00    -0.630 N 
ATOM     19  H   LIG    1        2.575  -2.673  -1.259  0.00  0.00    +0.420 HD
ATOM     20  C   LIG    1        2.516  -0.685  -1.590  0.00  0.00    +0.500 C 
ATOM     21  O   LIG    1        2.515   0.176  -2.444  0.00  0.00    -0.490 OA
BRANCH  18  25
ATOM     22  C   LIG    1        2.743  -1.879  -6.924  0.00  0.00    +0.190 C 
ATOM     23  C   LIG    1        2.706  -2.284  -5.473  0.00  0.00    -0.020 A 
ATOM     24  C   LIG    1        2.640  -1.458  -4.404  0.00  0.00    -0.040 A 
ATOM     25  C   LIG    1        2.633  -2.339  -3.290  0.00  0.00    +0.240 A 
ATOM     26  N   LIG    1        2.698  -3.549  -3.781  0.00  0.00    -0.390 NA
ATOM     27  O   LIG    1        2.734  -3.535  -4.990  0.00  0.00    +0.100 OA
ENDBRANCH  18  25
ENDBRANCH  17  20
ENDBRANCH  15  17
ENDBRANCH   1  15
TORSDOF 7
