REMARK  Name = ZINCrD00000F5Lyg.0
REMARK                            x       y       z     vdW  Elec       q    Type
REMARK                         _______ _______ _______ _____ _____    ______ ____
ROOT
ATOM      1  C   LIG    1        4.226   0.401   1.568  0.00  0.00    +0.510 C 
ATOM      2  N   LIG    1        3.046   1.012   1.339  0.00  0.00    -0.730 N 
ATOM      3  H   LIG    1        2.565   1.427   2.072  0.00  0.00    +0.400 HD
ATOM      4  O   LIG    1        4.827  -0.119   0.651  0.00  0.00    -0.530 OA
ENDROOT
BRANCH   1   5
ATOM      5  C   LIG    1        4.798   0.364   2.961  0.00  0.00    +0.060 C 
BRANCH   5   6
ATOM      6  C   LIG    1        6.133  -0.383   2.945  0.00  0.00    +0.070 C 
BRANCH   6   7
ATOM      7  C   LIG    1        6.645  -0.527   4.355  0.00  0.00    -0.080 A 
ATOM      8  C   LIG    1        6.906   0.598   5.114  0.00  0.00    +0.000 A 
ATOM      9  C   LIG    1        7.372   0.466   6.409  0.00  0.00    +0.000 A 
ATOM     10  C   LIG    1        7.585  -0.792   6.942  0.00  0.00    +0.000 A 
ATOM     11  C   LIG    1        7.328  -1.918   6.181  0.00  0.00    +0.000 A 
ATOM     12  C   LIG    1        6.858  -1.785   4.888  0.00  0.00    +0.010 A 
ENDBRANCH   6   7
BRANCH   6  13
ATOM     13  C   LIG    1        7.147   0.403   2.112  0.00  0.00    +0.180 C 
BRANCH  13  15
ATOM     14  C   LIG    1        9.387  -0.990   1.904  0.00  0.00    -0.010 C 
ATOM     15  C   LIG    1        8.393  -0.372   1.996  0.00  0.00    -0.170 C 
ENDBRANCH  13  15
ENDBRANCH   6  13
ENDBRANCH   5   6
ENDBRANCH   1   5
BRANCH   2  16
ATOM     16  C   LIG    1        2.490   1.047  -0.016  0.00  0.00    +0.320 C 
BRANCH  16  17
ATOM     17  C   LIG    1        1.175   1.783   0.000  0.00  0.00    -0.090 A 
ATOM     18  C   LIG    1       -0.013   1.076   0.008  0.00  0.00    +0.030 A 
ATOM     19  C   LIG    1       -1.219   1.751   0.017  0.00  0.00    +0.020 A 
ATOM     20  C   LIG    1       -1.238   3.133   0.029  0.00  0.00    +0.020 A 
ATOM     21  C   LIG    1       -0.050   3.840   0.022  0.00  0.00    +0.030 A 
ATOM     22  C   LIG    1        1.156   3.166   0.008  0.00  0.00    -0.090 A 
BRANCH  22  23
ATOM     23  C   LIG    1        2.451   3.937   0.000  0.00  0.00    +0.320 C 
BRANCH  23  24
ATOM     24  N   LIG    1        2.981   3.988  -1.365  0.00  0.00    -0.720 N 
ATOM     25  H   LIG    1        2.498   3.559  -2.089  0.00  0.00    +0.400 HD
ATOM     26  C   LIG    1        4.139   4.630  -1.614  0.00  0.00    +0.540 C 
ATOM     27  O   LIG    1        4.744   5.168  -0.707  0.00  0.00    -0.540 OA
BRANCH  26  28
ATOM     28  C   LIG    1        4.671   4.682  -2.985  0.00  0.00    -0.090 C 
ATOM     29  C   LIG    1        5.813   5.316  -3.231  0.00  0.00    +0.140 C 
ENDBRANCH  26  28
ENDBRANCH  23  24
ENDBRANCH  22  23
ENDBRANCH  16  17
ENDBRANCH   2  16
TORSDOF 10
