REMARK  Name = ZINCpk00000l0SjJ.0
REMARK                            x       y       z     vdW  Elec       q    Type
REMARK                         _______ _______ _______ _____ _____    ______ ____
ROOT
ATOM      1  O   LIG    1       -1.109   1.229   2.091  0.00  0.00    -0.520 OA
ATOM      2  C   LIG    1       -0.673   2.026   1.288  0.00  0.00    +0.520 C 
ATOM      3  N   LIG    1       -0.826   3.348   1.500  0.00  0.00    -0.620 N 
ATOM      4  C   LIG    1       -0.298   4.326   0.538  0.00  0.00    +0.270 C 
ATOM      5  C   LIG    1       -1.450   5.246   0.099  0.00  0.00    +0.280 C 
ATOM      6  N   LIG    1       -2.142   5.736   1.299  0.00  0.00    -0.600 N 
ATOM      7  C   LIG    1       -2.665   4.758   2.264  0.00  0.00    +0.290 C 
ATOM      8  C   LIG    1       -2.294   7.058   1.512  0.00  0.00    +0.610 C 
ATOM      9  O   LIG    1       -2.953   7.450   2.456  0.00  0.00    -0.520 OA
ATOM     10  C   LIG    1       -1.518   3.838   2.700  0.00  0.00    +0.280 C 
ENDROOT
BRANCH   8  11
ATOM     11  C   LIG    1       -1.661   8.028   0.601  0.00  0.00    +0.010 A 
ATOM     12  N   LIG    1       -1.014   7.759  -0.513  0.00  0.00    -0.210 NA
ATOM     13  N   LIG    1       -0.578   8.822  -1.084  0.00  0.00    -0.420 N 
ATOM     14  H   LIG    1       -0.076   8.831  -1.915  0.00  0.00    +0.450 HD
ATOM     15  C   LIG    1       -0.910   9.943  -0.369  0.00  0.00    +0.070 A 
ATOM     16  C   LIG    1       -0.694  11.307  -0.531  0.00  0.00    +0.010 A 
ATOM     17  C   LIG    1       -1.181  12.191   0.406  0.00  0.00    +0.050 A 
ATOM     18  C   LIG    1       -1.887  11.736   1.512  0.00  0.00    -0.010 A 
ATOM     19  C   LIG    1       -2.111  10.399   1.691  0.00  0.00    +0.100 A 
ATOM     20  C   LIG    1       -1.633   9.489   0.752  0.00  0.00    -0.110 A 
ENDBRANCH   8  11
BRANCH   2  21
ATOM     21  C   LIG    1        0.039   1.539   0.052  0.00  0.00    +0.050 C 
BRANCH  21  22
ATOM     22  C   LIG    1        0.075   0.009   0.054  0.00  0.00    +0.190 C 
ATOM     23  C   LIG    1        0.906  -0.497  -1.144  0.00  0.00    +0.010 C 
ATOM     24  C   LIG    1        0.091  -1.736  -1.609  0.00  0.00    +0.000 C 
ATOM     25  C   LIG    1       -1.354  -1.272  -1.302  0.00  0.00    +0.190 C 
ATOM     26  O   LIG    1       -1.253  -0.509  -0.089  0.00  0.00    -0.360 OA
ENDBRANCH  21  22
ENDBRANCH   2  21
TORSDOF 3
