REMARK  Name = ZINCpk00000l0SjJ.1
REMARK                            x       y       z     vdW  Elec       q    Type
REMARK                         _______ _______ _______ _____ _____    ______ ____
ROOT
ATOM      1  O   LIG    1        1.947  10.382  -0.664  0.00  0.00    -0.520 OA
ATOM      2  C   LIG    1        2.679   9.420  -0.768  0.00  0.00    +0.520 C 
ATOM      3  N   LIG    1        2.156   8.183  -0.873  0.00  0.00    -0.620 N 
ATOM      4  C   LIG    1        0.700   7.983  -0.863  0.00  0.00    +0.280 C 
ATOM      5  C   LIG    1        0.349   6.989   0.251  0.00  0.00    +0.290 C 
ATOM      6  N   LIG    1        1.224   5.815   0.124  0.00  0.00    -0.600 N 
ATOM      7  C   LIG    1        2.680   6.014   0.120  0.00  0.00    +0.270 C 
ATOM      8  C   LIG    1        0.701   4.577   0.020  0.00  0.00    +0.600 C 
ATOM      9  O   LIG    1       -0.504   4.432  -0.072  0.00  0.00    -0.510 OA
ATOM     10  C   LIG    1        3.031   7.009  -1.000  0.00  0.00    +0.270 C 
ENDROOT
BRANCH   8  11
ATOM     11  C   LIG    1        1.582   3.407   0.019  0.00  0.00    -0.020 A 
ATOM     12  C   LIG    1        2.295   2.891   1.108  0.00  0.00    -0.120 A 
ATOM     13  C   LIG    1        2.452   3.214   2.462  0.00  0.00    +0.050 A 
ATOM     14  C   LIG    1        3.261   2.448   3.243  0.00  0.00    +0.010 A 
ATOM     15  C   LIG    1        3.942   1.345   2.729  0.00  0.00    +0.030 A 
ATOM     16  C   LIG    1        3.831   0.978   1.426  0.00  0.00    +0.060 A 
ATOM     17  C   LIG    1        3.009   1.728   0.561  0.00  0.00    +0.060 A 
ATOM     18  N   LIG    1        2.680   1.661  -0.718  0.00  0.00    -0.270 NA
ATOM     19  N   LIG    1        1.872   2.605  -1.043  0.00  0.00    -0.310 N 
ATOM     20  H   LIG    1        1.513   2.731  -1.935  0.00  0.00    +0.450 HD
ENDBRANCH   8  11
BRANCH   2  21
ATOM     21  C   LIG    1        4.174   9.610  -0.780  0.00  0.00    +0.050 C 
BRANCH  21  22
ATOM     22  C   LIG    1        4.501  11.098  -0.648  0.00  0.00    +0.190 C 
ATOM     23  C   LIG    1        6.024  11.314  -0.781  0.00  0.00    +0.020 C 
ATOM     24  C   LIG    1        6.294  12.413   0.285  0.00  0.00    +0.000 C 
ATOM     25  C   LIG    1        5.257  12.032   1.371  0.00  0.00    +0.200 C 
ATOM     26  O   LIG    1        4.107  11.569   0.646  0.00  0.00    -0.360 OA
ENDBRANCH  21  22
ENDBRANCH   2  21
TORSDOF 3
