REMARK  Name = ZINCvU00000003X9.0
REMARK                            x       y       z     vdW  Elec       q    Type
REMARK                         _______ _______ _______ _____ _____    ______ ____
ROOT
ATOM      1  N   LIG    1       -4.383  10.893   3.208  0.00  0.00    -0.460 NA
ATOM      2  C   LIG    1       -3.722  10.212   2.303  0.00  0.00    +0.370 C 
ATOM      3  S   LIG    1       -3.680   8.447   2.141  0.00  0.00    +0.050 S 
ATOM      4  C   LIG    1       -2.570   8.463   0.694  0.00  0.00    +0.060 C 
ATOM      5  C   LIG    1       -2.320   9.934   0.457  0.00  0.00    +0.530 C 
ATOM      6  O   LIG    1       -1.613  10.345  -0.439  0.00  0.00    -0.470 OA
ATOM      7  N   LIG    1       -2.937  10.734   1.310  0.00  0.00    -0.540 N 
ENDROOT
BRANCH   1  11
ATOM      8  C   LIG    1       -4.888  14.980   2.765  0.00  0.00    +0.120 A 
ATOM      9  C   LIG    1       -5.394  14.113   1.808  0.00  0.00    +0.010 A 
ATOM     10  C   LIG    1       -5.228  12.751   1.951  0.00  0.00    +0.040 A 
ATOM     11  C   LIG    1       -4.550  12.246   3.061  0.00  0.00    +0.060 A 
ATOM     12  C   LIG    1       -4.047  13.121   4.025  0.00  0.00    +0.050 A 
ATOM     13  C   LIG    1       -4.213  14.482   3.871  0.00  0.00    -0.050 A 
BRANCH   8  15
ATOM     14  C   LIG    1       -4.508  17.158   3.643  0.00  0.00    +0.250 C 
ATOM     15  O   LIG    1       -5.053  16.322   2.620  0.00  0.00    -0.320 OA
ENDBRANCH   8  15
ENDBRANCH   1  11
BRANCH   7  16
ATOM     16  C   LIG    1       -2.779  12.185   1.192  0.00  0.00    +0.170 C 
ATOM     17  C   LIG    1       -3.206  12.838  -0.124  0.00  0.00    +0.040 C 
ATOM     18  C   LIG    1       -1.721  12.704   0.217  0.00  0.00    +0.060 C 
ENDBRANCH   7  16
BRANCH   4  19
ATOM     19  C   LIG    1       -1.261   7.738   1.012  0.00  0.00    +0.130 C 
BRANCH  19  20
ATOM     20  C   LIG    1       -1.538   6.273   1.231  0.00  0.00    +0.520 C 
ATOM     21  N   LIG    1       -0.527   5.432   1.526  0.00  0.00    -0.660 N 
ATOM     22  H   LIG    1        0.366   5.781   1.675  0.00  0.00    +0.420 HD
ATOM     23  O   LIG    1       -2.671   5.850   1.141  0.00  0.00    -0.500 OA
BRANCH  21  24
ATOM     24  C   LIG    1       -0.765   4.055   1.618  0.00  0.00    +0.180 A 
ATOM     25  C   LIG    1       -1.845   3.491   0.954  0.00  0.00    +0.080 A 
ATOM     26  C   LIG    1       -2.074   2.130   1.041  0.00  0.00    -0.000 A 
ATOM     27  C   LIG    1       -1.234   1.333   1.800  0.00  0.00    -0.040 A 
ATOM     28  C   LIG    1       -0.157   1.893   2.463  0.00  0.00    +0.090 A 
ATOM     29 CL   LIG    1       -1.529  -0.374   1.913  0.00  0.00    -0.030 Cl
ATOM     30 CL   LIG    1       -3.420   1.422   0.204  0.00  0.00    -0.030 Cl
ATOM     31  C   LIG    1        0.080   3.252   2.374  0.00  0.00    -0.060 A 
ATOM     32 CL   LIG    1        1.433   3.954   3.206  0.00  0.00    -0.040 Cl
ENDBRANCH  21  24
ENDBRANCH  19  20
ENDBRANCH   4  19
TORSDOF 6
