REMARK  Name = ZINCrH000004ovTo.0
REMARK                            x       y       z     vdW  Elec       q    Type
REMARK                         _______ _______ _______ _____ _____    ______ ____
ROOT
ATOM      1  N   LIG    1        4.662  -1.944  -3.061  0.00  0.00    -0.530 NA
ATOM      2  C   LIG    1        5.867  -1.108  -2.961  0.00  0.00    +0.200 C 
ATOM      3  C   LIG    1        5.932  -0.477  -1.569  0.00  0.00    +0.180 C 
ATOM      4  N   LIG    1        4.720   0.322  -1.338  0.00  0.00    -0.530 NA
ATOM      5  C   LIG    1        3.515  -0.514  -1.438  0.00  0.00    +0.190 C 
ATOM      6  C   LIG    1        3.450  -1.145  -2.831  0.00  0.00    +0.180 C 
ENDROOT
BRANCH   1   8
ATOM      7  C   LIG    1        5.834  -3.521  -4.523  0.00  0.00    +0.080 C 
ATOM      8  C   LIG    1        4.603  -2.628  -4.360  0.00  0.00    +0.270 C 
BRANCH   8   9
ATOM      9  C   LIG    1        3.357  -3.474  -4.426  0.00  0.00    +0.190 A 
ATOM     10  N   LIG    1        2.521  -3.556  -5.433  0.00  0.00    -0.470 NA
ATOM     11  C   LIG    1        1.569  -4.423  -5.043  0.00  0.00    +0.180 A 
ATOM     12  N   LIG    1        1.869  -4.816  -3.842  0.00  0.00    -0.380 NA
ATOM     13  O   LIG    1        2.896  -4.287  -3.471  0.00  0.00    +0.090 OA
BRANCH  11  14
ATOM     14  C   LIG    1        0.375  -4.859  -5.852  0.00  0.00    +0.020 C 
ATOM     15  C   LIG    1       -0.482  -3.638  -6.195  0.00  0.00    +0.060 C 
ATOM     16  C   LIG    1       -0.456  -5.854  -5.040  0.00  0.00    +0.050 C 
ATOM     17  C   LIG    1        0.850  -5.527  -7.144  0.00  0.00    +0.060 C 
ENDBRANCH  11  14
ENDBRANCH   8   9
ENDBRANCH   1   8
BRANCH   4  18
ATOM     18  C   LIG    1        4.780   1.006  -0.039  0.00  0.00    +0.210 C 
BRANCH  18  19
ATOM     19  C   LIG    1        5.729   2.202  -0.136  0.00  0.00    +0.190 C 
BRANCH  19  20
ATOM     20  O   LIG    1        5.190   3.164  -1.045  0.00  0.00    -0.290 OA
BRANCH  20  21
ATOM     21  C   LIG    1        5.916   4.296  -1.247  0.00  0.00    +0.140 A 
ATOM     22  C   LIG    1        5.453   5.273  -2.116  0.00  0.00    +0.000 A 
ATOM     23  C   LIG    1        6.194   6.419  -2.324  0.00  0.00    +0.070 A 
ATOM     24  C   LIG    1        7.394   6.599  -1.658  0.00  0.00    -0.080 A 
ATOM     25  C   LIG    1        7.857   5.626  -0.790  0.00  0.00    +0.070 A 
ATOM     26 CL   LIG    1        8.321   8.043  -1.916  0.00  0.00    -0.070 Cl
ATOM     27  C   LIG    1        7.121   4.476  -0.583  0.00  0.00    -0.060 A 
ENDBRANCH  20  21
ENDBRANCH  19  20
ENDBRANCH  18  19
ENDBRANCH   4  18
TORSDOF 7
