REMARK  Name = ZINCvU0000000DUP.0
REMARK                            x       y       z     vdW  Elec       q    Type
REMARK                         _______ _______ _______ _____ _____    ______ ____
ROOT
ATOM      1  C   LIG    1        1.477   3.195   0.470  0.00  0.00    +0.210 A 
ATOM      2  C   LIG    1        1.531   1.812   0.355  0.00  0.00    -0.040 A 
ATOM      3  C   LIG    1        0.459   1.043   0.763  0.00  0.00    +0.060 A 
ATOM      4  C   LIG    1       -0.675   1.653   1.282  0.00  0.00    +0.090 A 
ATOM      5  C   LIG    1       -0.727   3.036   1.401  0.00  0.00    +0.040 A 
ATOM      6  C   LIG    1        0.345   3.805   0.994  0.00  0.00    -0.040 A 
ENDROOT
BRANCH   4   7
ATOM      7  N   LIG    1       -1.766   0.874   1.690  0.00  0.00    -0.670 N 
ATOM      8  H   LIG    1       -2.669   1.209   1.583  0.00  0.00    +0.410 HD
ATOM      9  C   LIG    1       -1.558  -0.342   2.233  0.00  0.00    +0.510 C 
ATOM     10  O   LIG    1       -0.429  -0.722   2.457  0.00  0.00    -0.500 OA
BRANCH   9  11
ATOM     11  C   LIG    1       -2.731  -1.230   2.562  0.00  0.00    +0.260 C 
BRANCH  11  12
ATOM     12  O   LIG    1       -2.250  -2.476   3.132  0.00  0.00    -0.330 OA
BRANCH  12  13
ATOM     13  C   LIG    1       -3.175  -3.383   3.482  0.00  0.00    +0.460 C 
ATOM     14  O   LIG    1       -4.348  -3.144   3.318  0.00  0.00    -0.510 OA
BRANCH  13  15
ATOM     15  C   LIG    1       -2.751  -4.700   4.080  0.00  0.00    +0.110 C 
BRANCH  15  16
ATOM     16  C   LIG    1       -3.990  -5.544   4.387  0.00  0.00    +0.090 C 
BRANCH  16  17
ATOM     17  C   LIG    1       -3.565  -6.860   4.984  0.00  0.00    -0.090 A 
ATOM     18  C   LIG    1       -3.320  -7.945   4.164  0.00  0.00    +0.010 A 
ATOM     19  C   LIG    1       -2.926  -9.152   4.712  0.00  0.00    +0.000 A 
ATOM     20  C   LIG    1       -2.788  -9.276   6.081  0.00  0.00    +0.000 A 
ATOM     21  C   LIG    1       -3.037  -8.193   6.903  0.00  0.00    +0.000 A 
ATOM     22  C   LIG    1       -3.426  -6.985   6.354  0.00  0.00    +0.010 A 
ENDBRANCH  16  17
ENDBRANCH  15  16
ENDBRANCH  13  15
ENDBRANCH  12  13
ENDBRANCH  11  12
ENDBRANCH   9  11
ENDBRANCH   4   7
BRANCH   1  23
ATOM     23  N   LIG    1        2.564   3.974   0.058  0.00  0.00    -0.580 N 
BRANCH  23  24
ATOM     24  C   LIG    1        2.465   5.367   0.059  0.00  0.00    +0.160 A 
ATOM     25  C   LIG    1        1.686   6.011  -0.893  0.00  0.00    +0.000 A 
ATOM     26  C   LIG    1        1.587   7.388  -0.886  0.00  0.00    +0.010 A 
ATOM     27  C   LIG    1        2.270   8.127   0.063  0.00  0.00    +0.000 A 
ATOM     28  C   LIG    1        3.051   7.490   1.009  0.00  0.00    +0.010 A 
ATOM     29  C   LIG    1        3.151   6.112   1.010  0.00  0.00    +0.000 A 
ENDBRANCH  23  24
BRANCH  23  31
ATOM     30  C   LIG    1        4.085   3.688  -1.837  0.00  0.00    +0.030 C 
ATOM     31  C   LIG    1        3.805   3.328  -0.376  0.00  0.00    +0.240 C 
ATOM     32  C   LIG    1        4.964   3.810   0.499  0.00  0.00    +0.020 C 
ENDBRANCH  23  31
ENDBRANCH   1  23
TORSDOF 10
