REMARK  Name = ZINCvU0000000E9q.0
REMARK                            x       y       z     vdW  Elec       q    Type
REMARK                         _______ _______ _______ _____ _____    ______ ____
ROOT
ATOM      1  C   LIG    1       -2.614   6.072  -2.160  0.00  0.00    +0.090 C 
ATOM      2  C   LIG    1       -1.522   5.010  -2.298  0.00  0.00    +0.170 C 
ATOM      3  N   LIG    1       -0.387   5.315  -1.409  0.00  0.00    -0.720 N 
ATOM      4  H   LIG    1        0.176   6.104  -1.439  0.00  0.00    +0.440 HD
ATOM      5  C   LIG    1       -0.286   4.287  -0.547  0.00  0.00    +0.710 C 
ATOM      6  N   LIG    1       -1.209   3.344  -0.766  0.00  0.00    -0.570 N 
ATOM      7  O   LIG    1        0.551   4.222   0.331  0.00  0.00    -0.520 OA
ATOM      8  C   LIG    1       -2.016   3.668  -1.796  0.00  0.00    +0.530 C 
ATOM      9  O   LIG    1       -2.945   3.021  -2.230  0.00  0.00    -0.460 OA
ENDROOT
BRANCH   2  10
ATOM     10  C   LIG    1       -1.064   4.904  -3.730  0.00  0.00    -0.110 A 
ATOM     11  C   LIG    1       -1.647   3.978  -4.575  0.00  0.00    +0.070 A 
ATOM     12  C   LIG    1       -1.232   3.884  -5.890  0.00  0.00    -0.010 A 
ATOM     13  C   LIG    1       -0.225   4.710  -6.358  0.00  0.00    +0.110 A 
ATOM     14  C   LIG    1        0.362   5.634  -5.509  0.00  0.00    -0.010 A 
ATOM     15  F   LIG    1        0.185   4.616  -7.642  0.00  0.00    -0.130 F 
ATOM     16  C   LIG    1       -0.058   5.730  -4.197  0.00  0.00    +0.060 A 
ENDBRANCH   2  10
BRANCH   6  17
ATOM     17  C   LIG    1       -1.332   2.114   0.020  0.00  0.00    +0.310 C 
BRANCH  17  18
ATOM     18  C   LIG    1       -0.048   1.330  -0.070  0.00  0.00    -0.090 A 
ATOM     19  C   LIG    1        0.648   1.279  -1.264  0.00  0.00    +0.010 A 
ATOM     20  C   LIG    1        1.822   0.554  -1.349  0.00  0.00    +0.000 A 
ATOM     21  C   LIG    1        2.301  -0.118  -0.239  0.00  0.00    +0.010 A 
ATOM     22  C   LIG    1        1.605  -0.066   0.954  0.00  0.00    +0.010 A 
ATOM     23  C   LIG    1        0.431   0.658   1.038  0.00  0.00    +0.030 A 
ENDBRANCH  17  18
BRANCH  17  24
ATOM     24  C   LIG    1       -1.611   2.469   1.482  0.00  0.00    +0.040 C 
BRANCH  24  25
ATOM     25  C   LIG    1       -2.974   3.155   1.589  0.00  0.00    +0.020 C 
BRANCH  25  26
ATOM     26  C   LIG    1       -3.254   3.509   3.051  0.00  0.00    +0.070 C 
BRANCH  26  27
ATOM     27  C   LIG    1       -4.596   4.185   3.156  0.00  0.00    -0.080 A 
ATOM     28  C   LIG    1       -4.688   5.560   3.051  0.00  0.00    +0.000 A 
ATOM     29  C   LIG    1       -5.921   6.180   3.144  0.00  0.00    +0.000 A 
ATOM     30  C   LIG    1       -7.060   5.425   3.349  0.00  0.00    -0.010 A 
ATOM     31  C   LIG    1       -6.968   4.050   3.459  0.00  0.00    +0.000 A 
ATOM     32  C   LIG    1       -5.736   3.430   3.363  0.00  0.00    +0.000 A 
ENDBRANCH  26  27
ENDBRANCH  25  26
ENDBRANCH  24  25
ENDBRANCH  17  24
ENDBRANCH   6  17
TORSDOF 7
