REMARK  Name = ZINCrD000000D9sg.0
REMARK                            x       y       z     vdW  Elec       q    Type
REMARK                         _______ _______ _______ _____ _____    ______ ____
ROOT
ATOM      1  C   LIG    1        2.528   7.405  -2.045  0.00  0.00    +0.180 C 
ENDROOT
BRANCH   1   6
ATOM      2  C   LIG    1        0.319  10.284  -3.086  0.00  0.00    -0.070 A 
ATOM      3  C   LIG    1        0.300  10.138  -4.460  0.00  0.00    +0.170 A 
ATOM      4  C   LIG    1        1.003   9.108  -5.058  0.00  0.00    -0.200 A 
ATOM      5  C   LIG    1        1.732   8.225  -4.278  0.00  0.00    +0.210 A 
ATOM      6  C   LIG    1        1.743   8.369  -2.897  0.00  0.00    -0.110 A 
ATOM      7  O   LIG    1        2.429   7.209  -4.853  0.00  0.00    -0.310 OA
ATOM      8  C   LIG    1        2.099   6.880  -6.205  0.00  0.00    +0.450 C 
ATOM      9  O   LIG    1        2.036   8.092  -6.968  0.00  0.00    -0.370 OA
ATOM     10  C   LIG    1        0.972   8.957  -6.558  0.00  0.00    +0.320 C 
ATOM     11  C   LIG    1        1.040   9.399  -2.305  0.00  0.00    +0.170 A 
BRANCH   2  13
ATOM     12  O   LIG    1       -0.419  11.516  -1.238  0.00  0.00    -0.150 OA
ATOM     13  N   LIG    1       -0.434  11.387  -2.450  0.00  0.00    +0.030 N 
ATOM     14  O   LIG    1       -1.069  12.167  -3.137  0.00  0.00    -0.160 OA
ENDBRANCH   2  13
ENDBRANCH   1   6
BRANCH   1  15
ATOM     15  S   LIG    1        1.471   6.011  -1.581  0.00  0.00    +0.060 S 
BRANCH  15  16
ATOM     16  C   LIG    1        2.609   5.071  -0.620  0.00  0.00    +0.220 A 
ATOM     17  N   LIG    1        3.861   5.382  -0.364  0.00  0.00    -0.320 NA
ATOM     18  N   LIG    1        4.411   4.477   0.363  0.00  0.00    -0.020 NA
ATOM     19  N   LIG    1        3.567   3.539   0.626  0.00  0.00    -0.060 NA
ATOM     20  N   LIG    1        2.359   3.889  -0.001  0.00  0.00    -0.320 N 
BRANCH  20  21
ATOM     21  C   LIG    1        1.155   3.170   0.008  0.00  0.00    +0.130 A 
ATOM     22  C   LIG    1        1.174   1.782   0.000  0.00  0.00    +0.070 A 
ATOM     23  C   LIG    1       -0.013   1.076   0.008  0.00  0.00    +0.060 A 
ATOM     24  C   LIG    1       -1.221   1.751   0.017  0.00  0.00    -0.020 A 
ATOM     25  C   LIG    1       -1.242   3.135   0.030  0.00  0.00    +0.060 A 
ATOM     26 CL   LIG    1       -2.711   0.860   0.020  0.00  0.00    -0.050 Cl
ATOM     27  C   LIG    1       -0.058   3.845   0.022  0.00  0.00    +0.050 A 
ENDBRANCH  20  21
ENDBRANCH  15  16
ENDBRANCH   1  15
TORSDOF 5
