REMARK  Name = ZINCpk00000xKPUQ.0
REMARK                            x       y       z     vdW  Elec       q    Type
REMARK                         _______ _______ _______ _____ _____    ______ ____
ROOT
ATOM      1  C   LIG    1       -0.166   1.230  -3.653  0.00  0.00    +0.040 C 
ATOM      2  C   LIG    1        0.073   1.347  -2.146  0.00  0.00    +0.190 C 
ATOM      3  C   LIG    1       -1.231   1.749  -1.444  0.00  0.00    +0.030 C 
ATOM      4  C   LIG    1       -1.001   1.655   0.066  0.00  0.00    +0.040 C 
ATOM      5  C   LIG    1        0.296   2.334   0.425  0.00  0.00    -0.110 A 
ATOM      6  C   LIG    1        0.525   2.643   1.756  0.00  0.00    +0.010 A 
ATOM      7  C   LIG    1        1.699   3.262   2.140  0.00  0.00    -0.010 A 
ATOM      8  C   LIG    1        2.654   3.576   1.191  0.00  0.00    +0.010 A 
ATOM      9  C   LIG    1        2.433   3.272  -0.135  0.00  0.00    +0.030 A 
ATOM     10  C   LIG    1        1.248   2.650  -0.530  0.00  0.00    +0.110 A 
ATOM     11  N   LIG    1        1.081   2.377  -1.887  0.00  0.00    -0.470 N 
ENDROOT
BRANCH   4  12
ATOM     12  C   LIG    1       -2.138   2.331   0.788  0.00  0.00    +0.530 C 
ATOM     13  O   LIG    1       -2.624   3.347   0.337  0.00  0.00    -0.540 OA
ATOM     14  N   LIG    1       -2.615   1.807   1.935  0.00  0.00    -0.860 N 
ATOM     15  H   LIG    1       -3.295   2.280   2.438  0.00  0.00    +0.400 HD
ATOM     16  H   LIG    1       -2.277   0.957   2.256  0.00  0.00    +0.400 HD
ENDBRANCH   4  12
BRANCH  11  17
ATOM     17  C   LIG    1        0.784   3.604  -2.637  0.00  0.00    +0.230 C 
BRANCH  17  18
ATOM     18  C   LIG    1        2.023   4.459  -2.713  0.00  0.00    +0.520 C 
ATOM     19  N   LIG    1        1.915   5.790  -2.894  0.00  0.00    -0.690 N 
ATOM     20  H   LIG    1        1.038   6.198  -2.977  0.00  0.00    +0.410 HD
ATOM     21  C   LIG    1        3.023   6.554  -2.962  0.00  0.00    +0.700 C 
ATOM     22  N   LIG    1        2.914   7.885  -3.144  0.00  0.00    -0.730 N 
ATOM     23  H   LIG    1        2.038   8.293  -3.226  0.00  0.00    +0.400 HD
ATOM     24  O   LIG    1        4.120   6.042  -2.859  0.00  0.00    -0.520 OA
ATOM     25  O   LIG    1        3.119   3.949  -2.610  0.00  0.00    -0.440 OA
BRANCH  22  26
ATOM     26  C   LIG    1        4.118   8.715  -3.217  0.00  0.00    +0.180 C 
ATOM     27  C   LIG    1        4.909   8.583  -1.913  0.00  0.00    +0.030 C 
ATOM     28  C   LIG    1        3.718  10.177  -3.425  0.00  0.00    +0.040 C 
ATOM     29  C   LIG    1        4.987   8.252  -4.388  0.00  0.00    +0.030 C 
ENDBRANCH  22  26
ENDBRANCH  17  18
ENDBRANCH  11  17
TORSDOF 4
