REMARK  Name = ZINCpe000000WG0Q.0
REMARK                            x       y       z     vdW  Elec       q    Type
REMARK                         _______ _______ _______ _____ _____    ______ ____
ROOT
ATOM      1  C   LIG    1        0.623   3.354  -1.649  0.00  0.00    +0.210 C 
ENDROOT
BRANCH   1   7
ATOM      2  N   LIG    1       -1.527   1.279  -5.483  0.00  0.00    -1.000 NA
ATOM      3  C   LIG    1       -2.015   0.508  -4.332  0.00  0.00    +0.300 C 
ATOM      4  C   LIG    1       -2.347   1.482  -3.194  0.00  0.00    +0.280 C 
ATOM      5  N   LIG    1       -1.206   2.390  -3.007  0.00  0.00    -0.620 N 
ATOM      6  C   LIG    1       -0.722   3.166  -4.157  0.00  0.00    +0.270 C 
ATOM      7  C   LIG    1       -0.619   2.514  -1.800  0.00  0.00    +0.520 C 
ATOM      8  O   LIG    1       -1.090   1.950  -0.836  0.00  0.00    -0.520 OA
ATOM      9  C   LIG    1       -0.387   2.187  -5.296  0.00  0.00    +0.290 C 
BRANCH   2  11
ATOM     10  C   LIG    1       -3.552   2.391  -6.966  0.00  0.00    -0.280 C 
ATOM     11  S   LIG    1       -2.250   1.128  -6.966  0.00  0.00    +2.610 S 
ATOM     12  O   LIG    1       -2.818  -0.174  -6.948  0.00  0.00    -0.950 OA
ATOM     13  O   LIG    1       -1.226   1.468  -7.891  0.00  0.00    -0.950 OA
ENDBRANCH   2  11
ENDBRANCH   1   7
BRANCH   1  14
ATOM     14  N   LIG    1        1.044   3.356  -0.242  0.00  0.00    -0.510 NA
ATOM     15  C   LIG    1        0.061   4.048   0.601  0.00  0.00    +0.270 C 
ATOM     16  C   LIG    1        0.119   5.529   0.357  0.00  0.00    -0.060 C 
ATOM     17  C   LIG    1        1.132   6.120  -0.237  0.00  0.00    -0.090 C 
ATOM     18  C   LIG    1        2.336   5.366  -0.728  0.00  0.00    +0.040 C 
ATOM     19  C   LIG    1        2.372   3.975  -0.090  0.00  0.00    +0.230 C 
BRANCH  17  20
ATOM     20  C   LIG    1        1.088   7.585  -0.425  0.00  0.00    -0.050 A 
ATOM     21  C   LIG    1        1.078   8.126  -1.711  0.00  0.00    +0.010 A 
ATOM     22  C   LIG    1        1.032   9.495  -1.880  0.00  0.00    +0.000 A 
ATOM     23  C   LIG    1        1.005  10.330  -0.778  0.00  0.00    +0.000 A 
ATOM     24  C   LIG    1        1.019   9.800   0.500  0.00  0.00    +0.000 A 
ATOM     25  C   LIG    1        1.061   8.433   0.682  0.00  0.00    +0.010 A 
ENDBRANCH  17  20
ENDBRANCH   1  14
TORSDOF 4
