REMARK  Name = ZINCvU0000000E68.0
REMARK                            x       y       z     vdW  Elec       q    Type
REMARK                         _______ _______ _______ _____ _____    ______ ____
ROOT
ATOM      1  C   LIG    1        2.367   1.117  -0.015  0.00  0.00    +0.200 C 
ENDROOT
BRANCH   1   2
ATOM      2  C   LIG    1        2.779   0.857  -1.441  0.00  0.00    -0.110 A 
ATOM      3  C   LIG    1        2.638   1.849  -2.393  0.00  0.00    +0.040 A 
ATOM      4  C   LIG    1        3.019   1.612  -3.700  0.00  0.00    +0.010 A 
ATOM      5  C   LIG    1        3.533   0.379  -4.057  0.00  0.00    +0.020 A 
ATOM      6  C   LIG    1        3.669  -0.615  -3.107  0.00  0.00    +0.010 A 
ATOM      7  C   LIG    1        3.291  -0.376  -1.798  0.00  0.00    +0.020 A 
ENDBRANCH   1   2
BRANCH   1   9
ATOM      8  O   LIG    1        3.311   3.070   0.917  0.00  0.00    -0.440 OA
ATOM      9  C   LIG    1        3.455   1.886   0.690  0.00  0.00    +0.440 C 
BRANCH   9  10
ATOM     10  C   LIG    1        4.646   1.228   1.086  0.00  0.00    -0.270 A 
ATOM     11  C   LIG    1        4.955  -0.104   0.907  0.00  0.00    +0.320 A 
ATOM     12  N   LIG    1        6.176  -0.357   1.414  0.00  0.00    -0.560 N 
ATOM     13  H   LIG    1        6.609  -1.225   1.402  0.00  0.00    +0.420 HD
ATOM     14  C   LIG    1        6.726   0.786   1.957  0.00  0.00    +0.080 A 
ATOM     15  C   LIG    1        7.935   1.049   2.592  0.00  0.00    +0.000 A 
ATOM     16  C   LIG    1        8.214   2.322   3.041  0.00  0.00    +0.030 A 
ATOM     17  C   LIG    1        7.300   3.350   2.865  0.00  0.00    +0.000 A 
ATOM     18  C   LIG    1        6.096   3.109   2.238  0.00  0.00    +0.060 A 
ATOM     19  C   LIG    1        5.802   1.828   1.781  0.00  0.00    -0.050 A 
ENDBRANCH   9  10
ENDBRANCH   1   9
BRANCH   1  20
ATOM     20  O   LIG    1        1.139   1.891   0.001  0.00  0.00    -0.320 OA
BRANCH  20  21
ATOM     21  C   LIG    1       -0.014   1.204   0.009  0.00  0.00    +0.470 C 
ATOM     22  O   LIG    1        0.002  -0.004   0.002  0.00  0.00    -0.500 OA
BRANCH  21  23
ATOM     23  C   LIG    1       -1.329   1.940   0.019  0.00  0.00    -0.040 C 
ATOM     24  C   LIG    1       -1.428   2.825  -1.225  0.00  0.00    +0.050 C 
ATOM     25  C   LIG    1       -2.764   3.572  -1.215  0.00  0.00    +0.000 C 
ATOM     26  C   LIG    1       -2.851   4.444   0.040  0.00  0.00    +0.030 C 
ATOM     27  C   LIG    1       -2.752   3.558   1.284  0.00  0.00    +0.000 C 
ATOM     28  C   LIG    1       -3.901   2.548   1.284  0.00  0.00    +0.020 C 
ATOM     29  C   LIG    1       -3.814   1.677   0.029  0.00  0.00    +0.000 C 
ATOM     30  C   LIG    1       -3.913   2.562  -1.215  0.00  0.00    +0.020 C 
ATOM     31  C   LIG    1       -1.417   2.811   1.273  0.00  0.00    +0.050 C 
ATOM     32  C   LIG    1       -2.479   0.930   0.019  0.00  0.00    +0.050 C 
ENDBRANCH  21  23
ENDBRANCH  20  21
ENDBRANCH   1  20
TORSDOF 6
