REMARK  Name = ZINCrg000000s4qX.0
REMARK                            x       y       z     vdW  Elec       q    Type
REMARK                         _______ _______ _______ _____ _____    ______ ____
ROOT
ATOM      1  C   LIG    1        2.928  -1.055   1.934  0.00  0.00    +0.510 C 
ATOM      2  N   LIG    1        1.720  -0.476   1.790  0.00  0.00    -0.610 N 
ATOM      3  C   LIG    1        0.484  -1.260   1.940  0.00  0.00    +0.300 C 
ATOM      4  C   LIG    1       -0.401  -1.011   0.714  0.00  0.00    +0.170 C 
ATOM      5  N   LIG    1       -0.599   0.434   0.541  0.00  0.00    -0.530 NA
ATOM      6  C   LIG    1        0.672   1.118   0.271  0.00  0.00    +0.170 C 
ATOM      7  C   LIG    1        1.602   0.957   1.479  0.00  0.00    +0.290 C 
ATOM      8  O   LIG    1        3.007  -2.238   2.190  0.00  0.00    -0.520 OA
ENDROOT
BRANCH   1   9
ATOM      9  C   LIG    1        4.182  -0.233   1.776  0.00  0.00    +0.320 C 
BRANCH   9  17
ATOM     10  C   LIG    1        5.243  -0.488   4.380  0.00  0.00    +0.140 C 
ATOM     11  C   LIG    1        5.877  -1.220   3.226  0.00  0.00    +0.200 A 
ATOM     12  C   LIG    1        6.955  -2.004   3.446  0.00  0.00    -0.080 A 
ATOM     13  C   LIG    1        7.555  -2.687   2.369  0.00  0.00    +0.250 A 
ATOM     14  C   LIG    1        7.021  -2.542   1.103  0.00  0.00    -0.220 A 
ATOM     15  C   LIG    1        5.900  -1.723   0.925  0.00  0.00    +0.540 A 
ATOM     16  O   LIG    1        5.416  -1.585  -0.187  0.00  0.00    -0.560 OA
ATOM     17  N   LIG    1        5.354  -1.087   1.979  0.00  0.00    -0.490 N 
BRANCH  13  18
ATOM     18  O   LIG    1        8.639  -3.473   2.573  0.00  0.00    -0.460 OA
ATOM     19  H   LIG    1        8.974  -3.897   1.771  0.00  0.00    +0.410 HD
ENDBRANCH  13  18
ENDBRANCH   9  17
ENDBRANCH   1   9
BRANCH   5  20
ATOM     20  C   LIG    1       -1.580   0.708  -0.518  0.00  0.00    +0.230 C 
BRANCH  20  21
ATOM     21  C   LIG    1       -1.940   2.171  -0.501  0.00  0.00    -0.050 A 
ATOM     22  C   LIG    1       -3.002   2.610   0.269  0.00  0.00    +0.040 A 
ATOM     23  C   LIG    1       -3.335   3.949   0.293  0.00  0.00    +0.060 A 
ATOM     24  C   LIG    1       -2.604   4.860  -0.472  0.00  0.00    -0.030 A 
ATOM     25  C   LIG    1       -1.537   4.409  -1.252  0.00  0.00    +0.060 A 
ATOM     26  C   LIG    1       -1.212   3.068  -1.262  0.00  0.00    +0.010 A 
BRANCH  24  27
ATOM     27  C   LIG    1       -2.946   6.250  -0.457  0.00  0.00    +0.250 C 
ATOM     28  N   LIG    1       -3.218   7.353  -0.444  0.00  0.00    -0.410 NA
ENDBRANCH  24  27
ENDBRANCH  20  21
ENDBRANCH   5  20
TORSDOF 6
