REMARK  Name = ZINCqH0000031G0a.0
REMARK                            x       y       z     vdW  Elec       q    Type
REMARK                         _______ _______ _______ _____ _____    ______ ____
ROOT
ATOM      1  C   LIG    1        3.168   6.137   4.596  0.00  0.00    +0.270 A 
ATOM      2  C   LIG    1        4.355   5.644   4.071  0.00  0.00    +0.000 A 
ATOM      3  C   LIG    1        4.437   5.327   2.726  0.00  0.00    +0.260 A 
ATOM      4  C   LIG    1        3.336   5.501   1.904  0.00  0.00    -0.780 A 
ATOM      5  C   LIG    1        2.153   5.998   2.424  0.00  0.00    +0.260 A 
ATOM      6  F   LIG    1        1.083   6.173   1.619  0.00  0.00    -0.090 F 
ATOM      7  F   LIG    1        5.591   4.846   2.215  0.00  0.00    -0.090 F 
ATOM      8  C   LIG    1        2.065   6.311   3.769  0.00  0.00    -0.140 A 
ATOM      9 CL   LIG    1        0.579   6.927   4.423  0.00  0.00    -0.020 Cl
ENDROOT
BRANCH   1  12
ATOM     10  C   LIG    1        4.040   7.394   8.036  0.00  0.00    +0.140 C 
ATOM     11  C   LIG    1        4.157   6.962   6.597  0.00  0.00    +0.520 C 
ATOM     12  N   LIG    1        3.084   6.458   5.955  0.00  0.00    -0.670 N 
ATOM     13  H   LIG    1        2.253   6.319   6.436  0.00  0.00    +0.420 HD
ATOM     14  O   LIG    1        5.216   7.068   6.016  0.00  0.00    -0.510 OA
ENDBRANCH   1  12
BRANCH   4  15
ATOM     15  S   LIG    1        3.444   5.096   0.193  0.00  0.00    +2.700 S 
ATOM     16  O   LIG    1        2.522   5.944  -0.479  0.00  0.00    -0.920 OA
ATOM     17  O   LIG    1        4.829   5.050  -0.122  0.00  0.00    -0.920 OA
BRANCH  15  18
ATOM     18  N   LIG    1        2.873   3.552   0.017  0.00  0.00    -0.930 N 
ATOM     19  C   LIG    1        3.664   2.402   0.012  0.00  0.00    +0.150 A 
ATOM     20  C   LIG    1        5.048   2.280   0.146  0.00  0.00    +0.000 A 
ATOM     21  C   LIG    1        5.643   1.037   0.113  0.00  0.00    +0.040 A 
ATOM     22  C   LIG    1        4.872  -0.100  -0.047  0.00  0.00    -0.010 A 
ATOM     23  C   LIG    1        3.501   0.013  -0.186  0.00  0.00    +0.050 A 
ATOM     24  C   LIG    1        2.901   1.257  -0.154  0.00  0.00    -0.130 A 
ATOM     25  C   LIG    1        1.448   1.660  -0.273  0.00  0.00    +0.110 C 
ATOM     26  C   LIG    1        1.462   3.193  -0.156  0.00  0.00    +0.230 C 
ATOM     27  C   LIG    1        0.906   3.828  -1.431  0.00  0.00    +0.060 C 
ENDBRANCH  15  18
ENDBRANCH   4  15
TORSDOF 3
