REMARK  Name = ZINCtV00000L6kBG.0
REMARK                            x       y       z     vdW  Elec       q    Type
REMARK                         _______ _______ _______ _____ _____    ______ ____
ROOT
ATOM      1  C   LIG    1       -1.230   2.057   0.019  0.00  0.00    -0.110 A 
ATOM      2  C   LIG    1       -2.415   1.348   0.025  0.00  0.00    +0.120 A 
ATOM      3  C   LIG    1       -2.394  -0.035   0.016  0.00  0.00    -0.120 A 
ATOM      4  C   LIG    1       -1.187  -0.710   0.004  0.00  0.00    +0.100 A 
ATOM      5  C   LIG    1        0.002  -0.004   0.002  0.00  0.00    -0.190 A 
ATOM      6  C   LIG    1        1.312  -0.750  -0.007  0.00  0.00    +0.300 C 
ATOM      7  O   LIG    1        2.364   0.146  -0.381  0.00  0.00    -0.370 OA
ATOM      8  C   LIG    1        2.337   1.377   0.350  0.00  0.00    +0.390 C 
ATOM      9  O   LIG    1        1.145   2.089   0.002  0.00  0.00    -0.320 OA
ATOM     10 BR   LIG    1       -4.018  -1.005   0.018  0.00  0.00    -0.040 Br
ATOM     11  C   LIG    1       -0.017   1.382   0.010  0.00  0.00    +0.160 A 
ENDROOT
BRANCH   8  12
ATOM     12  C   LIG    1        3.543   2.206  -0.009  0.00  0.00    -0.100 A 
ATOM     13  C   LIG    1        3.379   3.457  -0.573  0.00  0.00    +0.050 A 
ATOM     14  C   LIG    1        4.486   4.219  -0.899  0.00  0.00    +0.010 A 
ATOM     15  C   LIG    1        5.756   3.725  -0.669  0.00  0.00    +0.030 A 
ATOM     16  C   LIG    1        5.920   2.472  -0.111  0.00  0.00    +0.010 A 
ATOM     17  C   LIG    1        4.814   1.712   0.220  0.00  0.00    +0.040 A 
ENDBRANCH   8  12
BRANCH   1  18
ATOM     18  C   LIG    1       -1.253   3.564   0.030  0.00  0.00    +0.310 C 
BRANCH  18  19
ATOM     19  O   LIG    1       -2.630   4.026   0.039  0.00  0.00    -0.350 OA
BRANCH  19  21
ATOM     20  O   LIG    1       -1.875   6.114   0.051  0.00  0.00    -0.470 OA
ATOM     21  C   LIG    1       -2.827   5.359   0.049  0.00  0.00    +0.510 C 
BRANCH  21  22
ATOM     22  C   LIG    1       -4.200   5.902   0.058  0.00  0.00    -0.110 A 
ATOM     23  C   LIG    1       -5.296   5.037   0.056  0.00  0.00    +0.120 A 
ATOM     24  C   LIG    1       -6.577   5.551   0.065  0.00  0.00    -0.050 A 
ATOM     25  C   LIG    1       -6.777   6.922   0.076  0.00  0.00    +0.090 A 
ATOM     26  C   LIG    1       -5.696   7.785   0.079  0.00  0.00    +0.050 A 
ATOM     27 CL   LIG    1       -7.941   4.478   0.062  0.00  0.00    -0.050 Cl
ATOM     28  C   LIG    1       -4.409   7.284   0.075  0.00  0.00    +0.020 A 
ATOM     29 CL   LIG    1       -3.053   8.368   0.085  0.00  0.00    -0.020 Cl
ENDBRANCH  21  22
ENDBRANCH  19  21
ENDBRANCH  18  19
ENDBRANCH   1  18
TORSDOF 5
