REMARK  Name = ZINCvU00000006Dn.0
REMARK                            x       y       z     vdW  Elec       q    Type
REMARK                         _______ _______ _______ _____ _____    ______ ____
ROOT
ATOM      1  C   LIG    1        6.730   1.710   1.080  0.00  0.00    +0.120 A 
ATOM      2  C   LIG    1        6.698   0.479   1.719  0.00  0.00    +0.020 A 
ATOM      3  C   LIG    1        7.756   0.086   2.514  0.00  0.00    +0.070 A 
ATOM      4  C   LIG    1        8.848   0.928   2.683  0.00  0.00    +0.110 A 
ATOM      5  C   LIG    1        8.876   2.162   2.048  0.00  0.00    +0.030 A 
ATOM      6  C   LIG    1        7.820   2.552   1.249  0.00  0.00    -0.050 A 
ENDROOT
BRANCH   4   7
ATOM      7  N   LIG    1        9.919   0.532   3.493  0.00  0.00    -0.660 N 
ATOM      8  H   LIG    1       10.399   1.191   4.019  0.00  0.00    +0.410 HD
ATOM      9  C   LIG    1       10.283  -0.765   3.543  0.00  0.00    +0.560 C 
ATOM     10  O   LIG    1        9.749  -1.575   2.811  0.00  0.00    -0.500 OA
BRANCH   9  11
ATOM     11  C   LIG    1       11.331  -1.202   4.489  0.00  0.00    -0.130 A 
ATOM     12  C   LIG    1       11.950  -0.274   5.328  0.00  0.00    +0.110 A 
ATOM     13  C   LIG    1       12.925  -0.689   6.211  0.00  0.00    +0.040 A 
ATOM     14  C   LIG    1       13.296  -2.021   6.260  0.00  0.00    +0.130 A 
ATOM     15  C   LIG    1       12.690  -2.946   5.428  0.00  0.00    -0.050 A 
ATOM     16  C   LIG    1       11.711  -2.544   4.544  0.00  0.00    +0.170 A 
BRANCH  15  17
ATOM     17  N   LIG    1       13.094  -4.368   5.487  0.00  0.00    +0.020 N 
ATOM     18  O   LIG    1       13.959  -4.724   6.268  0.00  0.00    -0.150 OA
ATOM     19  O   LIG    1       12.562  -5.183   4.755  0.00  0.00    -0.150 OA
ENDBRANCH  15  17
ENDBRANCH   9  11
ENDBRANCH   4   7
BRANCH   1  20
ATOM     20  O   LIG    1        5.689   2.095   0.294  0.00  0.00    -0.280 OA
BRANCH  20  22
ATOM     21  C   LIG    1        5.188   4.408   0.782  0.00  0.00    +0.060 C 
ATOM     22  C   LIG    1        5.738   3.417  -0.245  0.00  0.00    +0.170 C 
BRANCH  22  23
ATOM     23  C   LIG    1        4.904   3.480  -1.499  0.00  0.00    +0.520 C 
ATOM     24  N   LIG    1        4.882   4.606  -2.239  0.00  0.00    -0.670 N 
ATOM     25  H   LIG    1        5.453   5.354  -2.001  0.00  0.00    +0.410 HD
ATOM     26  O   LIG    1        4.253   2.516  -1.843  0.00  0.00    -0.490 OA
BRANCH  24  27
ATOM     27  C   LIG    1        4.036   4.698  -3.350  0.00  0.00    +0.160 A 
ATOM     28  C   LIG    1        3.439   5.909  -3.672  0.00  0.00    +0.000 A 
ATOM     29  C   LIG    1        2.601   5.995  -4.766  0.00  0.00    +0.070 A 
ATOM     30  C   LIG    1        2.364   4.878  -5.547  0.00  0.00    -0.100 A 
ATOM     31  C   LIG    1        2.957   3.670  -5.229  0.00  0.00    +0.070 A 
ATOM     32 BR   LIG    1        1.220   5.002  -7.048  0.00  0.00    -0.050 Br
ATOM     33  C   LIG    1        3.792   3.577  -4.133  0.00  0.00    +0.030 A 
ENDBRANCH  24  27
ENDBRANCH  22  23
ENDBRANCH  20  22
ENDBRANCH   1  20
TORSDOF 7
