REMARK  Name = ZINCpk00001AZiLm.2
REMARK                            x       y       z     vdW  Elec       q    Type
REMARK                         _______ _______ _______ _____ _____    ______ ____
ROOT
ATOM      1  C   LIG    1        2.125  -0.061   1.224  0.00  0.00    -0.010 C 
ATOM      2  C   LIG    1        2.160   1.470   1.231  0.00  0.00    +0.010 C 
ATOM      3  C   LIG    1        1.417   1.995  -0.001  0.00  0.00    +0.030 C 
ATOM      4  C   LIG    1       -0.018   1.464   0.010  0.00  0.00    +0.170 C 
ATOM      5  N   LIG    1        0.002  -0.004   0.002  0.00  0.00    -0.510 NA
ATOM      6  C   LIG    1        0.669  -0.533   1.199  0.00  0.00    +0.190 C 
ENDROOT
BRANCH   1   7
ATOM      7  C   LIG    1        2.813  -0.594   2.482  0.00  0.00    +0.330 C 
BRANCH   7  11
ATOM      8  C   LIG    1        7.756  -0.765   1.645  0.00  0.00    +0.190 C 
ATOM      9  C   LIG    1        6.379  -0.330   2.077  0.00  0.00    +0.220 A 
ATOM     10  N   LIG    1        5.277  -1.010   1.900  0.00  0.00    -0.320 NA
ATOM     11  N   LIG    1        4.235  -0.244   2.446  0.00  0.00    -0.370 N 
ATOM     12  C   LIG    1        4.802   0.873   2.935  0.00  0.00    +0.280 A 
ATOM     13  C   LIG    1        4.082   2.002   3.625  0.00  0.00    +0.190 C 
ATOM     14  N   LIG    1        6.089   0.807   2.707  0.00  0.00    -0.540 NA
ENDBRANCH   7  11
ENDBRANCH   1   7
BRANCH   5  15
ATOM     15  C   LIG    1       -1.356  -0.548  -0.128  0.00  0.00    +0.260 C 
BRANCH  15  16
ATOM     16  C   LIG    1       -2.154  -0.207   1.105  0.00  0.00    +0.480 C 
ATOM     17  N   LIG    1       -3.437  -0.607   1.210  0.00  0.00    -0.720 N 
ATOM     18  H   LIG    1       -3.847  -1.114   0.491  0.00  0.00    +0.410 HD
ATOM     19  O   LIG    1       -1.641   0.427   2.003  0.00  0.00    -0.520 OA
BRANCH  17  20
ATOM     20  C   LIG    1       -4.212  -0.275   2.408  0.00  0.00    +0.310 C 
ATOM     21  C   LIG    1       -3.534  -0.883   3.638  0.00  0.00    +0.080 C 
BRANCH  20  22
ATOM     22  C   LIG    1       -5.626  -0.842   2.273  0.00  0.00    -0.040 C 
ATOM     23  C   LIG    1       -6.786   0.155   2.230  0.00  0.00    +0.030 C 
ATOM     24  C   LIG    1       -6.561  -0.703   3.476  0.00  0.00    +0.050 C 
ENDBRANCH  20  22
BRANCH  20  25
ATOM     25  C   LIG    1       -4.281   1.187   2.558  0.00  0.00    +0.200 C 
ATOM     26  N   LIG    1       -4.335   2.316   2.674  0.00  0.00    -0.410 NA
ENDBRANCH  20  25
ENDBRANCH  17  20
ENDBRANCH  15  16
ENDBRANCH   5  15
TORSDOF 7
