REMARK  Name = ZINCrD000000AOd4.0
REMARK                            x       y       z     vdW  Elec       q    Type
REMARK                         _______ _______ _______ _____ _____    ______ ____
ROOT
ATOM      1  C   LIG    1       -2.395   8.284   4.182  0.00  0.00    +0.510 C 
ATOM      2  N   LIG    1       -1.461   7.527   3.573  0.00  0.00    -0.610 N 
ATOM      3  C   LIG    1       -0.298   8.149   2.926  0.00  0.00    +0.280 C 
ATOM      4  C   LIG    1       -0.213   7.650   1.480  0.00  0.00    +0.040 C 
ATOM      5  C   LIG    1       -0.193   6.120   1.472  0.00  0.00    -0.030 C 
ATOM      6  C   LIG    1       -1.488   5.588   2.091  0.00  0.00    +0.020 C 
ATOM      7  C   LIG    1       -1.587   6.063   3.545  0.00  0.00    +0.270 C 
ATOM      8  O   LIG    1       -2.279   9.491   4.199  0.00  0.00    -0.530 OA
ENDROOT
BRANCH   1   9
ATOM      9  C   LIG    1       -3.582   7.631   4.842  0.00  0.00    +0.300 C 
BRANCH   9  12
ATOM     10  O   LIG    1       -5.876   7.135   6.170  0.00  0.00    -0.520 OA
ATOM     11  C   LIG    1       -5.572   8.309   6.073  0.00  0.00    +0.600 C 
ATOM     12  N   LIG    1       -4.443   8.662   5.427  0.00  0.00    -0.720 N 
ATOM     13  H   LIG    1       -4.201   9.598   5.349  0.00  0.00    +0.410 HD
BRANCH  11  14
ATOM     14  C   LIG    1       -6.434   9.339   6.658  0.00  0.00    -0.260 A 
ATOM     15  C   LIG    1       -7.602   9.109   7.330  0.00  0.00    +0.110 A 
ATOM     16  C   LIG    1       -8.207  10.258   7.778  0.00  0.00    +0.050 A 
ATOM     17  C   LIG    1       -7.564  11.394   7.476  0.00  0.00    -0.220 A 
ATOM     18 BR   LIG    1       -8.161  13.123   7.954  0.00  0.00    +0.020 Br
ATOM     19  S   LIG    1       -6.134  11.071   6.603  0.00  0.00    +0.270 S 
ENDBRANCH  11  14
ENDBRANCH   9  12
ENDBRANCH   1   9
BRANCH   5  20
ATOM     20  C   LIG    1       -0.074   5.619   0.032  0.00  0.00    +0.260 C 
BRANCH  20  21
ATOM     21  C   LIG    1       -0.054   4.112   0.024  0.00  0.00    -0.130 A 
ATOM     22  C   LIG    1        1.153   3.438   0.009  0.00  0.00    +0.050 A 
ATOM     23  C   LIG    1        1.173   2.056   0.002  0.00  0.00    -0.010 A 
ATOM     24  C   LIG    1       -0.016   1.347   0.009  0.00  0.00    +0.100 A 
ATOM     25  C   LIG    1       -1.224   2.023   0.019  0.00  0.00    -0.010 A 
ATOM     26  F   LIG    1        0.002  -0.004   0.002  0.00  0.00    -0.140 F 
ATOM     27  C   LIG    1       -1.242   3.405   0.032  0.00  0.00    +0.050 A 
ENDBRANCH  20  21
BRANCH  20  28
ATOM     28  O   LIG    1       -1.191   6.084  -0.729  0.00  0.00    -0.550 OA
ATOM     29  H   LIG    1       -2.047   5.785  -0.393  0.00  0.00    +0.370 HD
ENDBRANCH  20  28
ENDBRANCH   5  20
TORSDOF 6
