REMARK  Name = ZINCrH000004v8q5.0
REMARK                            x       y       z     vdW  Elec       q    Type
REMARK                         _______ _______ _______ _____ _____    ______ ____
ROOT
ATOM      1  O   LIG    1       -4.592   3.346   1.194  0.00  0.00    -0.500 OA
ATOM      2  C   LIG    1       -3.613   2.887   0.637  0.00  0.00    +0.560 C 
ATOM      3  N   LIG    1       -3.684   1.685   0.032  0.00  0.00    -0.670 N 
ATOM      4  H   LIG    1       -2.924   1.346  -0.466  0.00  0.00    +0.410 HD
ENDROOT
BRANCH   2   5
ATOM      5  C   LIG    1       -2.346   3.647   0.623  0.00  0.00    -0.110 A 
ATOM      6  C   LIG    1       -1.222   3.125  -0.019  0.00  0.00    +0.060 A 
ATOM      7  C   LIG    1       -0.039   3.834  -0.026  0.00  0.00    +0.050 A 
ATOM      8  C   LIG    1        0.037   5.066   0.598  0.00  0.00    +0.050 A 
ATOM      9  C   LIG    1       -1.077   5.597   1.236  0.00  0.00    +0.130 A 
ATOM     10  C   LIG    1       -2.270   4.892   1.248  0.00  0.00    +0.120 A 
BRANCH   9  11
ATOM     11  N   LIG    1       -0.994   6.846   1.868  0.00  0.00    -0.330 N 
ATOM     12  C   LIG    1        0.085   7.655   1.948  0.00  0.00    +0.470 A 
ATOM     13  N   LIG    1       -0.274   8.716   2.622  0.00  0.00    -0.330 NA
ATOM     14  N   LIG    1       -1.506   8.633   2.974  0.00  0.00    -0.030 NA
ATOM     15  N   LIG    1       -2.017   7.528   2.550  0.00  0.00    -0.070 NA
ENDBRANCH   9  11
ENDBRANCH   2   5
BRANCH   3  16
ATOM     16  C   LIG    1       -4.856   0.923   0.123  0.00  0.00    +0.140 A 
ATOM     17  C   LIG    1       -4.781  -0.462   0.191  0.00  0.00    +0.010 A 
ATOM     18  C   LIG    1       -5.937  -1.211   0.286  0.00  0.00    +0.040 A 
ATOM     19  C   LIG    1       -7.173  -0.582   0.303  0.00  0.00    +0.070 A 
ATOM     20  C   LIG    1       -7.249   0.802   0.230  0.00  0.00    +0.030 A 
ATOM     21  C   LIG    1       -6.094   1.553   0.140  0.00  0.00    +0.050 A 
BRANCH  19  22
ATOM     22  O   LIG    1       -8.311  -1.321   0.392  0.00  0.00    -0.260 OA
BRANCH  22  23
ATOM     23  C   LIG    1       -9.057  -1.481  -0.733  0.00  0.00    +0.120 A 
ATOM     24  C   LIG    1       -8.709  -0.814  -1.899  0.00  0.00    -0.070 A 
ATOM     25  C   LIG    1       -9.466  -0.982  -3.042  0.00  0.00    +0.050 A 
ATOM     26  C   LIG    1      -10.576  -1.807  -3.022  0.00  0.00    -0.020 A 
ATOM     27  C   LIG    1      -10.928  -2.469  -1.860  0.00  0.00    +0.050 A 
ATOM     28  C   LIG    1      -10.171  -2.308  -0.716  0.00  0.00    -0.020 A 
ENDBRANCH  22  23
ENDBRANCH  19  22
ENDBRANCH   3  16
TORSDOF 5
