REMARK  Name = ZINCqH0000001AE4.0
REMARK                            x       y       z     vdW  Elec       q    Type
REMARK                         _______ _______ _______ _____ _____    ______ ____
ROOT
ATOM      1  N   LIG    1       -0.721   1.571  -1.179  0.00  0.00    -0.730 N 
ATOM      2  H   LIG    1       -0.433   2.388  -1.615  0.00  0.00    +0.400 HD
ATOM      3  C   LIG    1       -1.773   0.883  -1.664  0.00  0.00    +0.520 C 
ATOM      4  O   LIG    1       -2.134  -0.139  -1.118  0.00  0.00    -0.510 OA
ENDROOT
BRANCH   1   5
ATOM      5  C   LIG    1       -0.013   1.086   0.008  0.00  0.00    +0.290 C 
BRANCH   5   6
ATOM      6  C   LIG    1        1.401   1.607  -0.003  0.00  0.00    -0.100 A 
ATOM      7  C   LIG    1        1.656   2.903  -0.413  0.00  0.00    +0.040 A 
ATOM      8  C   LIG    1        2.952   3.384  -0.419  0.00  0.00    -0.010 A 
ATOM      9  C   LIG    1        3.996   2.564  -0.023  0.00  0.00    +0.100 A 
ATOM     10  C   LIG    1        3.739   1.266   0.383  0.00  0.00    -0.010 A 
ATOM     11  F   LIG    1        5.263   3.032  -0.033  0.00  0.00    -0.140 F 
ATOM     12  C   LIG    1        2.442   0.789   0.393  0.00  0.00    +0.060 A 
ENDBRANCH   5   6
BRANCH   5  14
ATOM     13  C   LIG    1       -2.164   1.050   1.278  0.00  0.00    +0.020 C 
ATOM     14  C   LIG    1       -0.729   1.579   1.267  0.00  0.00    -0.030 C 
ATOM     15  C   LIG    1        0.011   1.072   2.506  0.00  0.00    +0.030 C 
ENDBRANCH   5  14
ENDBRANCH   1   5
BRANCH   3  16
ATOM     16  C   LIG    1       -2.502   1.382  -2.885  0.00  0.00    +0.150 C 
BRANCH  16  17
ATOM     17  C   LIG    1       -3.629   0.439  -3.218  0.00  0.00    +0.080 A 
ATOM     18  C   LIG    1       -4.896   0.858  -3.341  0.00  0.00    -0.060 A 
ATOM     19  S   LIG    1       -5.901  -0.536  -3.732  0.00  0.00    +0.170 S 
ATOM     20  C   LIG    1       -4.475  -1.570  -3.688  0.00  0.00    +0.100 A 
ATOM     21  N   LIG    1       -3.431  -0.842  -3.411  0.00  0.00    -0.390 NA
BRANCH  20  22
ATOM     22  C   LIG    1       -4.464  -3.027  -3.933  0.00  0.00    +0.390 A 
ATOM     23  N   LIG    1       -3.314  -3.686  -3.874  0.00  0.00    -0.470 NA
ATOM     24  C   LIG    1       -3.271  -4.990  -4.084  0.00  0.00    +0.330 A 
ATOM     25  C   LIG    1       -4.445  -5.668  -4.378  0.00  0.00    -0.060 A 
ATOM     26  C   LIG    1       -5.630  -4.948  -4.438  0.00  0.00    +0.340 A 
ATOM     27  N   LIG    1       -5.605  -3.646  -4.213  0.00  0.00    -0.510 NA
ENDBRANCH  20  22
ENDBRANCH  16  17
ENDBRANCH   3  16
TORSDOF 6
