REMARK  Name = ZINCrD0000037n3s.0
REMARK                            x       y       z     vdW  Elec       q    Type
REMARK                         _______ _______ _______ _____ _____    ______ ____
ROOT
ATOM      1  C   LIG    1        5.815  -0.988  -0.059  0.00  0.00    +0.230 A 
ATOM      2  N   LIG    1        5.145  -2.121  -0.060  0.00  0.00    -0.270 NA
ATOM      3  N   LIG    1        3.883  -1.871  -0.046  0.00  0.00    -0.240 NA
ATOM      4  C   LIG    1        3.696  -0.571  -0.037  0.00  0.00    +0.210 A 
ATOM      5  O   LIG    1        4.913   0.013  -0.051  0.00  0.00    -0.190 OA
ENDROOT
BRANCH   4   6
ATOM      6  C   LIG    1        2.394   0.124  -0.020  0.00  0.00    +0.230 A 
ATOM      7  N   LIG    1        2.367   1.446  -0.013  0.00  0.00    -0.440 NA
ATOM      8  C   LIG    1        1.211   2.114   0.002  0.00  0.00    +0.130 A 
ATOM      9  C   LIG    1        1.189   3.521   0.010  0.00  0.00    +0.050 A 
ATOM     10  C   LIG    1       -0.003   4.177   0.025  0.00  0.00    +0.040 A 
ATOM     11  C   LIG    1       -1.208   3.478   0.032  0.00  0.00    +0.030 A 
ATOM     12  C   LIG    1       -1.227   2.116   0.031  0.00  0.00    +0.040 A 
ATOM     13  C   LIG    1       -0.017   1.406   0.010  0.00  0.00    -0.090 A 
ATOM     14  C   LIG    1        0.002  -0.004   0.002  0.00  0.00    +0.100 A 
ATOM     15  C   LIG    1        1.210  -0.634  -0.013  0.00  0.00    +0.030 A 
ENDBRANCH   4   6
BRANCH   1  21
ATOM     16  C   LIG    1        8.106  -1.978  -0.082  0.00  0.00    +0.190 A 
ATOM     17  C   LIG    1        9.485  -1.827  -0.102  0.00  0.00    +0.020 A 
ATOM     18  C   LIG    1       10.043  -0.564  -0.099  0.00  0.00    +0.060 A 
ATOM     19  C   LIG    1        9.234   0.560  -0.084  0.00  0.00    +0.030 A 
ATOM     20  C   LIG    1        7.861   0.429  -0.071  0.00  0.00    +0.070 A 
ATOM     21  C   LIG    1        7.283  -0.841  -0.073  0.00  0.00    -0.010 A 
BRANCH  16  23
ATOM     22  C   LIG    1        7.357  -3.966   1.187  0.00  0.00    +0.320 C 
ATOM     23  N   LIG    1        7.541  -3.251  -0.078  0.00  0.00    -0.950 N 
BRANCH  23  24
ATOM     24  S   LIG    1        7.077  -3.955  -1.503  0.00  0.00    +2.610 S 
ATOM     25  O   LIG    1        6.807  -2.858  -2.365  0.00  0.00    -0.940 OA
ATOM     26  O   LIG    1        6.049  -4.862  -1.127  0.00  0.00    -0.930 OA
ATOM     27  C   LIG    1        8.548  -4.858  -2.062  0.00  0.00    -0.290 C 
ENDBRANCH  23  24
ENDBRANCH  16  23
ENDBRANCH   1  21
TORSDOF 4
