REMARK  Name = ZINCb70000002hou.0
REMARK                            x       y       z     vdW  Elec       q    Type
REMARK                         _______ _______ _______ _____ _____    ______ ____
ROOT
ATOM      1  C   LIG    1       -2.817   1.558  -0.017  0.00  0.00    +0.150 C 
ATOM      2  C   LIG    1       -2.080   1.050   1.225  0.00  0.00    +0.250 C 
ATOM      3  N   LIG    1       -0.701   1.560   1.216  0.00  0.00    -0.510 N 
ATOM      4  C   LIG    1       -0.013   1.086   0.008  0.00  0.00    +0.240 C 
ATOM      5  C   LIG    1       -0.754   1.593  -1.232  0.00  0.00    +0.260 C 
ATOM      6  H   LIG    1       -0.716   2.569   1.221  0.00  0.00    +0.430 HD
ATOM      7  H   LIG    1       -0.213   1.226   2.034  0.00  0.00    +0.440 HD
ATOM      8  O   LIG    1       -2.110   1.141  -1.188  0.00  0.00    -0.350 OA
ENDROOT
BRANCH   1  12
ATOM      9  C   LIG    1       -6.413   1.738  -0.738  0.00  0.00    +0.020 C 
ATOM     10  C   LIG    1       -6.092   2.208   0.704  0.00  0.00    +0.220 C 
ATOM     11  O   LIG    1       -4.960   1.423   1.110  0.00  0.00    -0.380 OA
ATOM     12  C   LIG    1       -4.233   0.980  -0.042  0.00  0.00    +0.190 C 
ATOM     13  C   LIG    1       -4.984   1.486  -1.293  0.00  0.00    +0.030 C 
ENDBRANCH   1  12
TORSDOF 1
