REMARK  Name = ZINCrg00000BbOf8.0
REMARK                            x       y       z     vdW  Elec       q    Type
REMARK                         _______ _______ _______ _____ _____    ______ ____
ROOT
ATOM      1  C   LIG    1       -1.445   7.748  -2.114  0.00  0.00    +0.300 C 
ENDROOT
BRANCH   1   3
ATOM      2  C   LIG    1       -3.187   9.452  -2.148  0.00  0.00    +0.570 C 
ATOM      3  N   LIG    1       -2.023   9.005  -1.634  0.00  0.00    -0.720 N 
ATOM      4  H   LIG    1       -1.569   9.517  -0.947  0.00  0.00    +0.400 HD
ATOM      5  O   LIG    1       -3.756   8.810  -3.010  0.00  0.00    -0.520 OA
BRANCH   2   9
ATOM      6  C   LIG    1       -4.863  13.098  -0.757  0.00  0.00    +0.290 A 
ATOM      7  C   LIG    1       -5.197  11.899  -0.134  0.00  0.00    -0.100 A 
ATOM      8  C   LIG    1       -4.655  10.713  -0.582  0.00  0.00    +0.220 A 
ATOM      9  C   LIG    1       -3.768  10.716  -1.666  0.00  0.00    -0.270 A 
ATOM     10  C   LIG    1       -3.431  11.926  -2.286  0.00  0.00    +0.220 A 
ATOM     11  F   LIG    1       -2.571  11.936  -3.328  0.00  0.00    -0.120 F 
ATOM     12  F   LIG    1       -4.980   9.550   0.024  0.00  0.00    -0.120 F 
ATOM     13  C   LIG    1       -3.982  13.106  -1.835  0.00  0.00    -0.100 A 
BRANCH   6  14
ATOM     14  N   LIG    1       -5.412  14.292  -0.302  0.00  0.00    -0.850 N 
ATOM     15  H   LIG    1       -5.181  15.128  -0.735  0.00  0.00    +0.410 HD
ATOM     16  H   LIG    1       -6.027  14.288   0.448  0.00  0.00    +0.410 HD
ENDBRANCH   6  14
ENDBRANCH   2   9
ENDBRANCH   1   3
BRANCH   1  17
ATOM     17  C   LIG    1       -0.154   7.478  -1.384  0.00  0.00    -0.020 C 
ATOM     18  C   LIG    1        0.031   6.327  -0.786  0.00  0.00    -0.030 C 
BRANCH  18  19
ATOM     19  C   LIG    1       -0.968   5.214  -0.967  0.00  0.00    +0.300 C 
BRANCH  19  20
ATOM     20  N   LIG    1       -0.273   3.999  -1.400  0.00  0.00    -0.730 N 
ATOM     21  H   LIG    1        0.689   4.009  -1.525  0.00  0.00    +0.400 HD
ATOM     22  C   LIG    1       -0.971   2.868  -1.626  0.00  0.00    +0.510 C 
ATOM     23  O   LIG    1       -2.173   2.856  -1.470  0.00  0.00    -0.510 OA
BRANCH  22  24
ATOM     24  C   LIG    1       -0.256   1.619  -2.072  0.00  0.00    +0.250 C 
ATOM     25  C   LIG    1       -1.134   0.850  -3.061  0.00  0.00    +0.050 C 
ATOM     26  C   LIG    1       -1.963   1.804  -3.901  0.00  0.00    +0.010 C 
ATOM     27  C   LIG    1       -1.143   2.658  -4.849  0.00  0.00    +0.030 C 
ATOM     28  C   LIG    1       -0.263   3.639  -4.070  0.00  0.00    +0.030 C 
ATOM     29  C   LIG    1        1.018   2.931  -3.681  0.00  0.00    +0.520 C 
ATOM     30  O   LIG    1        2.061   3.226  -4.225  0.00  0.00    -0.540 OA
ATOM     31  N   LIG    1        1.003   1.983  -2.743  0.00  0.00    -0.730 N 
ATOM     32  H   LIG    1        1.826   1.530  -2.502  0.00  0.00    +0.410 HD
ENDBRANCH  22  24
ENDBRANCH  19  20
ENDBRANCH  18  19
ENDBRANCH   1  17
TORSDOF 7
