REMARK  Name = ZINCpe000000TvZK.0
REMARK                            x       y       z     vdW  Elec       q    Type
REMARK                         _______ _______ _______ _____ _____    ______ ____
ROOT
ATOM      1  S   LIG    1        4.726   1.407   1.331  0.00  0.00    +2.700 S 
ATOM      2  O   LIG    1        3.909   2.077   2.280  0.00  0.00    -0.940 OA
ATOM      3  O   LIG    1        5.933   1.955   0.820  0.00  0.00    -0.950 OA
ENDROOT
BRANCH   1   4
ATOM      4  C   LIG    1        5.149  -0.146   2.047  0.00  0.00    -0.690 A 
ATOM      5  C   LIG    1        6.463  -0.573   2.044  0.00  0.00    +0.140 A 
ATOM      6  C   LIG    1        6.797  -1.794   2.614  0.00  0.00    +0.090 A 
ATOM      7  C   LIG    1        5.809  -2.591   3.175  0.00  0.00    +0.130 A 
ATOM      8  C   LIG    1        4.495  -2.166   3.172  0.00  0.00    -0.070 A 
ATOM      9  C   LIG    1        4.162  -0.943   2.608  0.00  0.00    +0.210 A 
BRANCH   6  10
ATOM     10  N   LIG    1        8.130  -2.225   2.616  0.00  0.00    -0.670 N 
ATOM     11  H   LIG    1        8.847  -1.582   2.735  0.00  0.00    +0.420 HD
ATOM     12  C   LIG    1        8.417  -3.532   2.455  0.00  0.00    +0.510 C 
ATOM     13  O   LIG    1        7.520  -4.346   2.393  0.00  0.00    -0.530 OA
ATOM     14  C   LIG    1        9.851  -3.982   2.350  0.00  0.00    +0.110 C 
ENDBRANCH   6  10
BRANCH   9  15
ATOM     15  O   LIG    1        2.868  -0.525   2.606  0.00  0.00    -0.310 OA
ATOM     16  C   LIG    1        1.904  -1.396   3.201  0.00  0.00    +0.260 C 
ENDBRANCH   9  15
ENDBRANCH   1   4
BRANCH   1  17
ATOM     17  N   LIG    1        3.762   1.096   0.020  0.00  0.00    -0.980 NA
BRANCH  17  18
ATOM     18  C   LIG    1        2.308   1.020   0.182  0.00  0.00    +0.290 C 
ATOM     19  C   LIG    1        1.618   1.992  -0.792  0.00  0.00    +0.070 C 
ATOM     20  C   LIG    1        0.116   1.652  -0.847  0.00  0.00    -0.310 C 
ATOM     21  S   LIG    1        0.016  -0.133  -0.462  0.00  0.00    +2.390 S 
ATOM     22  O   LIG    1       -0.389  -0.843  -1.624  0.00  0.00    -0.930 OA
ATOM     23  O   LIG    1       -0.686  -0.313   0.761  0.00  0.00    -0.930 OA
ATOM     24  C   LIG    1        1.807  -0.402  -0.179  0.00  0.00    -0.320 C 
ENDBRANCH  17  18
BRANCH  17  26
ATOM     25  C   LIG    1        4.431   2.236  -2.038  0.00  0.00    +0.020 C 
ATOM     26  C   LIG    1        4.364   0.897  -1.301  0.00  0.00    +0.290 C 
ENDBRANCH  17  26
ENDBRANCH   1  17
TORSDOF 6
