REMARK  Name = ZINCqH00000363dS.0
REMARK                            x       y       z     vdW  Elec       q    Type
REMARK                         _______ _______ _______ _____ _____    ______ ____
ROOT
ATOM      1  N   LIG    1       -2.679   2.249   4.800  0.00  0.00    -0.730 N 
ATOM      2  H   LIG    1       -3.601   1.952   4.833  0.00  0.00    +0.400 HD
ATOM      3  C   LIG    1       -2.006   2.490   5.943  0.00  0.00    +0.530 C 
ATOM      4  O   LIG    1       -0.853   2.861   5.901  0.00  0.00    -0.520 OA
ENDROOT
BRANCH   3   5
ATOM      5  C   LIG    1       -2.688   2.296   7.273  0.00  0.00    -0.030 C 
ATOM      6  C   LIG    1       -3.894   3.238   7.378  0.00  0.00    +0.260 C 
ATOM      7  O   LIG    1       -4.578   2.960   8.600  0.00  0.00    -0.300 OA
ATOM      8  C   LIG    1       -3.840   2.891   9.739  0.00  0.00    +0.130 A 
ATOM      9  C   LIG    1       -4.497   2.980  10.962  0.00  0.00    +0.010 A 
ATOM     10  C   LIG    1       -3.784   2.906  12.141  0.00  0.00    +0.060 A 
ATOM     11  C   LIG    1       -2.411   2.742  12.109  0.00  0.00    -0.060 A 
ATOM     12  C   LIG    1       -1.755   2.654  10.895  0.00  0.00    +0.070 A 
ATOM     13 CL   LIG    1       -1.512   2.647  13.591  0.00  0.00    -0.070 Cl
ATOM     14  C   LIG    1       -2.466   2.729   9.709  0.00  0.00    -0.140 A 
ATOM     15  C   LIG    1       -1.715   2.633   8.405  0.00  0.00    +0.130 C 
ENDBRANCH   3   5
BRANCH   1  16
ATOM     16  C   LIG    1       -2.016   2.437   3.507  0.00  0.00    +0.300 C 
ATOM     17  C   LIG    1       -2.122   3.905   3.088  0.00  0.00    +0.040 C 
BRANCH  16  22
ATOM     18  C   LIG    1       -4.610   0.381   1.683  0.00  0.00    +0.100 A 
ATOM     19  C   LIG    1       -3.902  -0.030   0.565  0.00  0.00    -0.040 A 
ATOM     20  C   LIG    1       -2.587   0.360   0.397  0.00  0.00    -0.020 A 
ATOM     21  C   LIG    1       -1.976   1.163   1.348  0.00  0.00    +0.100 A 
ATOM     22  C   LIG    1       -2.683   1.570   2.470  0.00  0.00    -0.090 A 
ATOM     23  C   LIG    1       -3.999   1.185   2.635  0.00  0.00    +0.020 A 
BRANCH  18  25
ATOM     24  C   LIG    1       -6.470  -0.830   0.830  0.00  0.00    +0.250 C 
ATOM     25  O   LIG    1       -5.904  -0.003   1.848  0.00  0.00    -0.320 OA
ENDBRANCH  18  25
BRANCH  21  26
ATOM     26  O   LIG    1       -0.682   1.547   1.184  0.00  0.00    -0.310 OA
ATOM     27  C   LIG    1       -0.013   1.086   0.008  0.00  0.00    +0.250 C 
ENDBRANCH  21  26
ENDBRANCH  16  22
ENDBRANCH   1  16
TORSDOF 5
