REMARK  Name = ZINCAx0000000ip7.0
REMARK                            x       y       z     vdW  Elec       q    Type
REMARK                         _______ _______ _______ _____ _____    ______ ____
ROOT
ATOM      1  C   LIG    1       -0.885   4.938  -4.087  0.00  0.00    +0.510 C 
ATOM      2  N   LIG    1       -0.844   6.094  -4.779  0.00  0.00    -0.610 N 
ATOM      3  C   LIG    1        0.367   6.927  -4.772  0.00  0.00    +0.280 C 
ATOM      4  C   LIG    1        0.781   7.199  -6.226  0.00  0.00    +0.040 C 
ATOM      5  C   LIG    1       -0.401   7.814  -6.980  0.00  0.00    +0.010 C 
ATOM      6  C   LIG    1       -1.571   6.828  -6.989  0.00  0.00    +0.050 C 
ATOM      7  C   LIG    1       -2.010   6.549  -5.548  0.00  0.00    +0.280 C 
ATOM      8  O   LIG    1       -1.892   4.262  -4.097  0.00  0.00    -0.520 OA
ENDROOT
BRANCH   5   9
ATOM      9  C   LIG    1        0.011   8.117  -8.398  0.00  0.00    +0.520 C 
ATOM     10  N   LIG    1        1.030   8.967  -8.637  0.00  0.00    -0.670 N 
ATOM     11  H   LIG    1        1.454   9.435  -7.900  0.00  0.00    +0.410 HD
ATOM     12  O   LIG    1       -0.574   7.596  -9.324  0.00  0.00    -0.510 OA
BRANCH  10  13
ATOM     13  C   LIG    1        1.476   9.174  -9.948  0.00  0.00    +0.150 A 
ATOM     14  C   LIG    1        0.570   9.164 -11.000  0.00  0.00    +0.040 A 
ATOM     15  C   LIG    1        1.009   9.370 -12.294  0.00  0.00    +0.060 A 
ATOM     16  C   LIG    1        2.354   9.585 -12.546  0.00  0.00    +0.020 A 
ATOM     17  O   LIG    1        3.031   9.809 -13.711  0.00  0.00    -0.310 OA
ATOM     18  C   LIG    1        4.414   9.549 -13.408  0.00  0.00    +0.430 C 
ATOM     19  O   LIG    1        4.513   9.825 -11.998  0.00  0.00    -0.310 OA
ATOM     20  C   LIG    1        3.266   9.595 -11.493  0.00  0.00    +0.050 A 
ATOM     21  C   LIG    1        2.824   9.395 -10.196  0.00  0.00    +0.010 A 
ENDBRANCH  10  13
ENDBRANCH   5   9
BRANCH   1  22
ATOM     22  C   LIG    1        0.319   4.485  -3.303  0.00  0.00    +0.360 C 
BRANCH  22  32
ATOM     23  C   LIG    1        0.021   1.151   2.542  0.00  0.00    +0.030 C 
ATOM     24  C   LIG    1       -0.744   1.628   1.304  0.00  0.00    -0.010 C 
ATOM     25  C   LIG    1       -2.155   1.044   1.324  0.00  0.00    +0.030 C 
ATOM     26  C   LIG    1       -2.959   1.518   0.119  0.00  0.00    -0.050 C 
ATOM     27  C   LIG    1       -2.233   1.290  -1.195  0.00  0.00    +0.060 C 
ATOM     28  C   LIG    1       -0.756   1.627  -1.196  0.00  0.00    +0.140 C 
ATOM     29  N   LIG    1       -0.134   1.003  -2.386  0.00  0.00    -0.720 N 
ATOM     30  H   LIG    1       -0.026   0.053  -2.538  0.00  0.00    +0.440 HD
ATOM     31  C   LIG    1        0.243   2.010  -3.193  0.00  0.00    +0.710 C 
ATOM     32  N   LIG    1        0.022   3.210  -2.646  0.00  0.00    -0.570 N 
ATOM     33  O   LIG    1        0.729   1.849  -4.296  0.00  0.00    -0.540 OA
ATOM     34  C   LIG    1       -0.508   3.100  -1.409  0.00  0.00    +0.540 C 
ATOM     35  O   LIG    1       -0.712   4.014  -0.637  0.00  0.00    -0.450 OA
ATOM     36  C   LIG    1       -4.275   0.710   0.085  0.00  0.00    +0.030 C 
ATOM     37  C   LIG    1       -3.333   2.994   0.285  0.00  0.00    +0.030 C 
ATOM     38  C   LIG    1       -0.029   1.131   0.046  0.00  0.00    +0.050 C 
ENDBRANCH  22  32
ENDBRANCH   1  22
TORSDOF 4
