REMARK  Name = ZINCrD00000l0Kim.0
REMARK                            x       y       z     vdW  Elec       q    Type
REMARK                         _______ _______ _______ _____ _____    ______ ____
ROOT
ATOM      1  O   LIG    1        2.451   5.118   0.007  0.00  0.00    -0.520 OA
ATOM      2  C   LIG    1        2.442   3.901   0.000  0.00  0.00    +0.560 C 
ATOM      3  N   LIG    1        3.603   3.218  -0.014  0.00  0.00    -0.720 N 
ATOM      4  H   LIG    1        3.596   2.248  -0.019  0.00  0.00    +0.400 HD
ENDROOT
BRANCH   2   5
ATOM      5  C   LIG    1        1.160   3.175   0.008  0.00  0.00    -0.170 A 
ATOM      6  C   LIG    1       -0.038   3.884   0.023  0.00  0.00    +0.200 A 
ATOM      7  C   LIG    1       -1.258   3.178   0.031  0.00  0.00    -0.070 A 
ATOM      8  C   LIG    1       -2.487   3.856   0.047  0.00  0.00    +0.020 A 
ATOM      9  C   LIG    1       -3.660   3.135   0.055  0.00  0.00    +0.110 A 
ATOM     10  C   LIG    1       -3.638   1.738   0.047  0.00  0.00    +0.020 A 
ATOM     11  C   LIG    1       -2.459   1.058   0.032  0.00  0.00    +0.040 A 
ATOM     12  C   LIG    1       -1.244   1.761   0.018  0.00  0.00    -0.030 A 
ATOM     13  C   LIG    1       -0.013   1.076   0.008  0.00  0.00    +0.030 A 
ATOM     14  C   LIG    1        1.153   1.767   0.001  0.00  0.00    +0.050 A 
BRANCH   9  15
ATOM     15  O   LIG    1       -4.851   3.789   0.070  0.00  0.00    -0.500 OA
ATOM     16  H   LIG    1       -5.205   3.983  -0.809  0.00  0.00    +0.390 HD
ENDBRANCH   9  15
BRANCH   6  17
ATOM     17  O   LIG    1       -0.031   5.239   0.030  0.00  0.00    -0.470 OA
ATOM     18  H   LIG    1       -0.038   5.637  -0.851  0.00  0.00    +0.400 HD
ENDBRANCH   6  17
ENDBRANCH   2   5
BRANCH   3  19
ATOM     19  C   LIG    1        4.878   3.941  -0.022  0.00  0.00    +0.320 C 
BRANCH  19  20
ATOM     20  C   LIG    1        6.016   2.953  -0.038  0.00  0.00    -0.090 A 
ATOM     21  C   LIG    1        6.526   2.506  -1.243  0.00  0.00    +0.020 A 
ATOM     22  C   LIG    1        7.570   1.600  -1.261  0.00  0.00    +0.050 A 
ATOM     23  C   LIG    1        8.107   1.138  -0.075  0.00  0.00    +0.000 A 
ATOM     24  C   LIG    1        7.596   1.584   1.136  0.00  0.00    +0.160 A 
ATOM     25  C   LIG    1        6.551   2.498   1.152  0.00  0.00    +0.040 A 
BRANCH  24  26
ATOM     26  N   LIG    1        8.138   1.117   2.342  0.00  0.00    -0.330 N 
ATOM     27  C   LIG    1        9.215   0.309   2.470  0.00  0.00    +0.230 A 
ATOM     28  C   LIG    1        9.412   0.093   3.791  0.00  0.00    -0.100 A 
ATOM     29  C   LIG    1        8.425   0.790   4.494  0.00  0.00    +0.250 A 
ATOM     30  N   LIG    1        7.664   1.409   3.627  0.00  0.00    -0.290 NA
ENDBRANCH  24  26
ENDBRANCH  19  20
ENDBRANCH   3  19
TORSDOF 6
