REMARK  Name = ZINCqH0000008mpu.0
REMARK                            x       y       z     vdW  Elec       q    Type
REMARK                         _______ _______ _______ _____ _____    ______ ____
ROOT
ATOM      1  N   LIG    1        3.227   5.505  -2.383  0.00  0.00    -0.740 N 
ATOM      2  H   LIG    1        4.123   5.192  -2.183  0.00  0.00    +0.390 HD
ATOM      3  C   LIG    1        2.171   4.987  -1.726  0.00  0.00    +0.710 C 
ATOM      4  N   LIG    1        2.360   4.034  -0.791  0.00  0.00    -0.620 N 
ATOM      5  C   LIG    1        3.713   3.561  -0.490  0.00  0.00    +0.280 C 
ATOM      6  O   LIG    1        1.047   5.379  -1.975  0.00  0.00    -0.580 OA
ENDROOT
BRANCH   1   8
ATOM      7  C   LIG    1        2.696   5.882  -4.740  0.00  0.00    +0.040 C 
ATOM      8  C   LIG    1        3.022   6.541  -3.398  0.00  0.00    +0.300 C 
BRANCH   8   9
ATOM      9  C   LIG    1        4.275   7.367  -3.534  0.00  0.00    -0.100 A 
ATOM     10  C   LIG    1        5.513   6.753  -3.489  0.00  0.00    +0.040 A 
ATOM     11  C   LIG    1        6.664   7.507  -3.618  0.00  0.00    -0.010 A 
ATOM     12  C   LIG    1        6.576   8.882  -3.784  0.00  0.00    +0.160 A 
ATOM     13  C   LIG    1        5.331   9.496  -3.824  0.00  0.00    +0.030 A 
ATOM     14  C   LIG    1        4.184   8.736  -3.699  0.00  0.00    +0.060 A 
BRANCH  12  15
ATOM     15  N   LIG    1        7.742   9.650  -3.911  0.00  0.00    -0.330 N 
ATOM     16  C   LIG    1        9.010   9.182  -3.884  0.00  0.00    +0.230 A 
ATOM     17  C   LIG    1        9.842  10.237  -4.042  0.00  0.00    -0.100 A 
ATOM     18  C   LIG    1        9.058  11.390  -4.161  0.00  0.00    +0.250 A 
ATOM     19  N   LIG    1        7.800  11.039  -4.082  0.00  0.00    -0.290 NA
ENDBRANCH  12  15
ENDBRANCH   8   9
ENDBRANCH   1   8
BRANCH   4  20
ATOM     20  C   LIG    1        1.211   3.470  -0.077  0.00  0.00    +0.320 C 
ATOM     21  C   LIG    1        1.440   3.591   1.431  0.00  0.00    +0.040 C 
BRANCH  20  22
ATOM     22  C   LIG    1        1.054   2.018  -0.447  0.00  0.00    -0.150 A 
ATOM     23  C   LIG    1        2.112   1.135  -0.293  0.00  0.00    +0.070 A 
ATOM     24  C   LIG    1        1.921  -0.192  -0.645  0.00  0.00    -0.030 A 
ATOM     25  C   LIG    1        0.691  -0.589  -1.135  0.00  0.00    +0.260 A 
ATOM     26  N   LIG    1       -0.294   0.279  -1.268  0.00  0.00    -0.480 NA
ATOM     27  C   LIG    1       -0.148   1.548  -0.943  0.00  0.00    +0.280 A 
ENDBRANCH  20  22
ENDBRANCH   4  20
TORSDOF 5
