REMARK  Name = ZINCpk000000oGxH.0
REMARK                            x       y       z     vdW  Elec       q    Type
REMARK                         _______ _______ _______ _____ _____    ______ ____
ROOT
ATOM      1  C   LIG    1       -0.742   1.585  -1.213  0.00  0.00    +0.210 A 
ATOM      2  N   LIG    1       -1.763   1.000  -1.769  0.00  0.00    -0.390 NA
ATOM      3  C   LIG    1       -2.160   1.728  -2.840  0.00  0.00    -0.090 A 
ATOM      4  C   LIG    1       -1.311   2.823  -2.937  0.00  0.00    +0.280 A 
ATOM      5  N   LIG    1       -1.498   3.729  -3.956  0.00  0.00    -0.520 N 
ATOM      6  C   LIG    1       -2.488   3.565  -4.850  0.00  0.00    +0.710 A 
ATOM      7  N   LIG    1       -3.335   2.523  -4.800  0.00  0.00    -0.550 N 
ATOM      8  C   LIG    1       -4.393   2.403  -5.807  0.00  0.00    +0.350 C 
ATOM      9  O   LIG    1       -2.622   4.388  -5.736  0.00  0.00    -0.530 OA
ATOM     10  C   LIG    1       -0.608   4.888  -4.066  0.00  0.00    +0.330 C 
ATOM     11  C   LIG    1       -3.226   1.585  -3.834  0.00  0.00    +0.600 A 
ATOM     12  O   LIG    1       -3.995   0.643  -3.792  0.00  0.00    -0.480 OA
ATOM     13  N   LIG    1       -0.429   2.716  -1.909  0.00  0.00    -0.550 N 
ATOM     14  H   LIG    1        0.293   3.333  -1.706  0.00  0.00    +0.430 HD
ENDROOT
BRANCH   1  15
ATOM     15  C   LIG    1       -0.013   1.086   0.008  0.00  0.00    +0.430 C 
BRANCH  15  16
ATOM     16  N   LIG    1       -0.698   1.558   1.213  0.00  0.00    -0.620 N 
BRANCH  16  17
ATOM     17  C   LIG    1       -0.340   2.782   1.787  0.00  0.00    +0.210 A 
ATOM     18  C   LIG    1        0.670   3.547   1.219  0.00  0.00    -0.070 A 
ATOM     19  C   LIG    1        1.019   4.758   1.785  0.00  0.00    +0.030 A 
ATOM     20  C   LIG    1        0.370   5.204   2.924  0.00  0.00    +0.040 A 
ATOM     21  C   LIG    1       -0.634   4.439   3.496  0.00  0.00    -0.060 A 
ATOM     22  C   LIG    1       -1.338   4.927   4.735  0.00  0.00    +0.100 C 
ATOM     23  F   LIG    1        0.716   6.386   3.479  0.00  0.00    -0.140 F 
ATOM     24  C   LIG    1       -0.990   3.231   2.930  0.00  0.00    -0.020 A 
ENDBRANCH  16  17
BRANCH  16  26
ATOM     25  C   LIG    1       -1.150  -0.204   2.847  0.00  0.00    +0.020 C 
ATOM     26  C   LIG    1       -1.760   0.749   1.817  0.00  0.00    +0.280 C 
ENDBRANCH  16  26
ENDBRANCH  15  16
ENDBRANCH   1  15
TORSDOF 4
