REMARK  Name = ZINCvU0000000JVF.0
REMARK                            x       y       z     vdW  Elec       q    Type
REMARK                         _______ _______ _______ _____ _____    ______ ____
ROOT
ATOM      1  C   LIG    1        1.853   1.903   0.012  0.00  0.00    +0.120 A 
ATOM      2  N   LIG    1        2.322   0.690   0.015  0.00  0.00    -0.470 NA
ATOM      3  C   LIG    1        1.468  -0.285   0.237  0.00  0.00    +0.200 A 
ATOM      4  C   LIG    1        0.173   0.149   0.437  0.00  0.00    -0.310 A 
ATOM      5  S   LIG    1        0.171   1.906   0.312  0.00  0.00    +0.210 S 
ENDROOT
BRANCH   1   9
ATOM      6  C   LIG    1        4.188   5.389  -0.652  0.00  0.00    +0.160 A 
ATOM      7  C   LIG    1        2.824   5.504  -0.418  0.00  0.00    -0.010 A 
ATOM      8  C   LIG    1        2.063   4.375  -0.202  0.00  0.00    +0.080 A 
ATOM      9  C   LIG    1        2.665   3.115  -0.219  0.00  0.00    -0.090 A 
ATOM     10  C   LIG    1        4.038   3.005  -0.451  0.00  0.00    +0.120 A 
ATOM     11  C   LIG    1        4.791   4.137  -0.671  0.00  0.00    -0.070 A 
BRANCH   6  13
ATOM     12  C   LIG    1        6.332   6.313  -1.100  0.00  0.00    +0.250 C 
ATOM     13  O   LIG    1        4.935   6.503  -0.865  0.00  0.00    -0.310 OA
ENDBRANCH   6  13
ENDBRANCH   1   9
BRANCH   3  14
ATOM     14  C   LIG    1        1.859  -1.714   0.269  0.00  0.00    +0.020 A 
ATOM     15  C   LIG    1        2.990  -2.115   0.980  0.00  0.00    +0.070 A 
ATOM     16  C   LIG    1        3.346  -3.447   1.011  0.00  0.00    +0.100 A 
ATOM     17  C   LIG    1        2.591  -4.384   0.329  0.00  0.00    -0.030 A 
ATOM     18  C   LIG    1        1.471  -3.992  -0.382  0.00  0.00    +0.100 A 
ATOM     19  C   LIG    1        1.101  -2.663  -0.416  0.00  0.00    +0.090 A 
BRANCH  17  20
ATOM     20  N   LIG    1        2.982  -5.811   0.361  0.00  0.00    +0.030 N 
ATOM     21  O   LIG    1        3.967  -6.159   0.987  0.00  0.00    -0.160 OA
ATOM     22  O   LIG    1        2.318  -6.638  -0.238  0.00  0.00    -0.160 OA
ENDBRANCH  17  20
ENDBRANCH   3  14
BRANCH   4  23
ATOM     23  C   LIG    1       -0.989  -0.698   0.704  0.00  0.00    +0.600 C 
ATOM     24  N   LIG    1       -2.222  -0.156   0.750  0.00  0.00    -0.670 N 
ATOM     25  H   LIG    1       -2.348   0.781   0.535  0.00  0.00    +0.410 HD
ATOM     26  O   LIG    1       -0.842  -1.893   0.885  0.00  0.00    -0.500 OA
BRANCH  24  27
ATOM     27  C   LIG    1       -3.320  -0.945   1.107  0.00  0.00    +0.140 A 
ATOM     28  C   LIG    1       -3.403  -2.260   0.670  0.00  0.00    +0.030 A 
ATOM     29  C   LIG    1       -4.487  -3.038   1.028  0.00  0.00    +0.030 A 
ATOM     30  C   LIG    1       -5.493  -2.505   1.813  0.00  0.00    +0.000 A 
ATOM     31  C   LIG    1       -5.415  -1.194   2.246  0.00  0.00    +0.030 A 
ATOM     32  C   LIG    1       -4.332  -0.412   1.895  0.00  0.00    -0.010 A 
ENDBRANCH  24  27
ENDBRANCH   4  23
TORSDOF 6
