REMARK  Name = ZINCAx0000000aXf.0
REMARK                            x       y       z     vdW  Elec       q    Type
REMARK                         _______ _______ _______ _____ _____    ______ ____
ROOT
ATOM      1  C   LIG    1        0.769   3.765   0.181  0.00  0.00    +0.270 C 
ENDROOT
BRANCH   1   2
ATOM      2  C   LIG    1        0.997   2.282   0.040  0.00  0.00    +0.520 C 
ATOM      3  N   LIG    1       -0.054   1.438   0.022  0.00  0.00    -0.660 N 
ATOM      4  H   LIG    1       -0.958   1.789   0.031  0.00  0.00    +0.430 HD
ATOM      5  O   LIG    1        2.125   1.848  -0.057  0.00  0.00    -0.490 OA
BRANCH   3   6
ATOM      6  C   LIG    1        0.159   0.062  -0.015  0.00  0.00    +0.210 A 
ATOM      7  C   LIG    1        1.229  -0.457  -0.729  0.00  0.00    +0.100 A 
ATOM      8  C   LIG    1        1.442  -1.834  -0.759  0.00  0.00    -0.070 A 
ATOM      9  C   LIG    1        0.573  -2.692  -0.080  0.00  0.00    +0.060 A 
ATOM     10  C   LIG    1       -0.494  -2.182   0.625  0.00  0.00    +0.110 A 
ATOM     11  C   LIG    1       -0.712  -0.803   0.665  0.00  0.00    -0.130 A 
BRANCH   8  12
ATOM     12  C   LIG    1        2.586  -2.388  -1.515  0.00  0.00    +0.500 C 
ATOM     13  O   LIG    1        3.342  -1.643  -2.105  0.00  0.00    -0.490 OA
BRANCH  12  14
ATOM     14  O   LIG    1        2.790  -3.719  -1.549  0.00  0.00    -0.350 OA
ATOM     15  C   LIG    1        3.932  -4.192  -2.311  0.00  0.00    +0.290 C 
ENDBRANCH  12  14
ENDBRANCH   8  12
BRANCH  11  16
ATOM     16  C   LIG    1       -1.856  -0.257   1.421  0.00  0.00    +0.520 C 
ATOM     17  O   LIG    1       -2.097   0.933   1.382  0.00  0.00    -0.510 OA
BRANCH  16  18
ATOM     18  O   LIG    1       -2.633  -1.078   2.154  0.00  0.00    -0.350 OA
ATOM     19  C   LIG    1       -3.740  -0.471   2.871  0.00  0.00    +0.290 C 
ENDBRANCH  16  18
ENDBRANCH  11  16
ENDBRANCH   3   6
ENDBRANCH   1   2
BRANCH   1  20
ATOM     20  O   LIG    1        2.048   4.454   0.173  0.00  0.00    -0.330 OA
BRANCH  20  21
ATOM     21  C   LIG    1        2.020   5.796   0.291  0.00  0.00    +0.510 C 
ATOM     22  O   LIG    1        0.958   6.375   0.398  0.00  0.00    -0.480 OA
BRANCH  21  27
ATOM     23  C   LIG    1        5.680   6.623   0.171  0.00  0.00    -0.690 A 
ATOM     24  C   LIG    1        5.650   8.001   0.292  0.00  0.00    +0.190 A 
ATOM     25  C   LIG    1        4.442   8.665   0.413  0.00  0.00    +0.020 A 
ATOM     26  C   LIG    1        3.258   7.955   0.414  0.00  0.00    +0.070 A 
ATOM     27  C   LIG    1        3.282   6.563   0.292  0.00  0.00    -0.140 A 
ATOM     28 CL   LIG    1        1.743   8.789   0.567  0.00  0.00    -0.010 Cl
ATOM     29  C   LIG    1        4.506   5.900   0.175  0.00  0.00    +0.220 A 
BRANCH  23  30
ATOM     30  S   LIG    1        7.225   5.789   0.017  0.00  0.00    +2.690 S 
ATOM     31  O   LIG    1        8.146   6.742  -0.496  0.00  0.00    -0.950 OA
ATOM     32  O   LIG    1        6.950   4.551  -0.624  0.00  0.00    -0.940 OA
BRANCH  30  33
ATOM     33  N   LIG    1        7.737   5.420   1.548  0.00  0.00    -0.990 NA
BRANCH  33  35
ATOM     34  C   LIG    1        8.469   3.119   1.934  0.00  0.00    +0.020 C 
ATOM     35  C   LIG    1        7.357   4.145   2.160  0.00  0.00    +0.280 C 
ENDBRANCH  33  35
BRANCH  33  36
ATOM     36  C   LIG    1        8.571   6.369   2.289  0.00  0.00    +0.300 C 
ATOM     37  C   LIG    1        7.684   7.233   3.188  0.00  0.00    +0.000 C 
ENDBRANCH  33  36
ENDBRANCH  30  33
ENDBRANCH  23  30
ENDBRANCH  21  27
ENDBRANCH  20  21
ENDBRANCH   1  20
TORSDOF 13
