REMARK  Name = ZINCrH000004rKYq.0
REMARK                            x       y       z     vdW  Elec       q    Type
REMARK                         _______ _______ _______ _____ _____    ______ ____
ROOT
ATOM      1  C   LIG    1        0.110   2.507   4.790  0.00  0.00    +0.550 C 
ATOM      2  N   LIG    1       -0.506   3.037   5.865  0.00  0.00    -0.600 N 
ATOM      3  C   LIG    1       -1.956   3.274   5.856  0.00  0.00    +0.260 C 
ATOM      4  C   LIG    1       -2.571   2.588   7.085  0.00  0.00    +0.040 C 
ATOM      5  C   LIG    1       -1.861   3.085   8.347  0.00  0.00    +0.040 C 
ATOM      6  C   LIG    1       -0.378   2.713   8.280  0.00  0.00    +0.100 C 
ATOM      7  C   LIG    1        0.261   3.395   7.066  0.00  0.00    +0.290 C 
ATOM      8  O   LIG    1        1.292   2.227   4.843  0.00  0.00    -0.500 OA
ENDROOT
BRANCH   6   9
ATOM      9  C   LIG    1        0.313   3.173   9.537  0.00  0.00    +0.290 A 
ATOM     10  N   LIG    1        0.525   2.432  10.586  0.00  0.00    -0.480 NA
ATOM     11  C   LIG    1        1.169   3.158  11.535  0.00  0.00    +0.050 A 
ATOM     12  C   LIG    1        1.630   2.868  12.822  0.00  0.00    +0.070 A 
ATOM     13  C   LIG    1        2.259   3.835  13.554  0.00  0.00    +0.000 A 
ATOM     14  C   LIG    1        2.446   5.107  13.033  0.00  0.00    +0.030 A 
ATOM     15  C   LIG    1        1.999   5.416  11.765  0.00  0.00    +0.010 A 
ATOM     16  C   LIG    1        1.358   4.447  11.007  0.00  0.00    +0.050 A 
ATOM     17  N   LIG    1        0.811   4.423   9.740  0.00  0.00    -0.600 N 
ATOM     18  H   LIG    1        0.784   5.161   9.111  0.00  0.00    +0.420 HD
ENDBRANCH   6   9
BRANCH   1  24
ATOM     19  C   LIG    1       -1.193  -0.520   1.043  0.00  0.00    +0.110 C 
ATOM     20  C   LIG    1       -1.281   0.813   1.740  0.00  0.00    -0.040 A 
ATOM     21  C   LIG    1       -2.072   1.817   1.212  0.00  0.00    +0.060 A 
ATOM     22  C   LIG    1       -2.163   3.042   1.848  0.00  0.00    +0.070 A 
ATOM     23  C   LIG    1       -1.455   3.274   3.010  0.00  0.00    +0.060 A 
ATOM     24  C   LIG    1       -0.651   2.266   3.546  0.00  0.00    -0.080 A 
ATOM     25  C   LIG    1       -0.569   1.031   2.901  0.00  0.00    +0.020 A 
BRANCH  25  26
ATOM     26  N   LIG    1        0.282  -0.043   3.462  0.00  0.00    +0.020 N 
ATOM     27  O   LIG    1       -0.185  -0.835   4.261  0.00  0.00    -0.140 OA
ATOM     28  O   LIG    1        1.449  -0.133   3.126  0.00  0.00    -0.110 OA
ENDBRANCH  25  26
ENDBRANCH   1  24
TORSDOF 3
