REMARK  Name = ZINCrH000004u0aK.0
REMARK                            x       y       z     vdW  Elec       q    Type
REMARK                         _______ _______ _______ _____ _____    ______ ____
ROOT
ATOM      1  O   LIG    1        1.214  -1.122   3.145  0.00  0.00    -0.510 OA
ATOM      2  C   LIG    1        1.198  -0.712   2.003  0.00  0.00    +0.500 C 
ATOM      3  N   LIG    1        0.022  -0.500   1.381  0.00  0.00    -0.600 N 
ENDROOT
BRANCH   3   4
ATOM      4  C   LIG    1        0.002  -0.004   0.002  0.00  0.00    +0.380 C 
BRANCH   4   5
ATOM      5  C   LIG    1       -0.018   1.503   0.010  0.00  0.00    -0.220 A 
ATOM      6  C   LIG    1        1.061   2.287   0.004  0.00  0.00    +0.020 A 
ATOM      7  C   LIG    1        0.795   3.645   0.014  0.00  0.00    +0.000 A 
ATOM      8  C   LIG    1       -0.499   3.965   0.027  0.00  0.00    -0.030 A 
ATOM      9  S   LIG    1       -1.469   2.497   0.022  0.00  0.00    +0.120 S 
ENDBRANCH   4   5
ENDBRANCH   3   4
BRANCH   3  10
ATOM     10  C   LIG    1       -1.237  -0.765   2.082  0.00  0.00    +0.290 C 
BRANCH  10  11
ATOM     11  C   LIG    1       -1.661  -2.215   1.837  0.00  0.00    +0.060 C 
BRANCH  11  12
ATOM     12  C   LIG    1       -2.956  -2.487   2.559  0.00  0.00    -0.080 A 
ATOM     13  C   LIG    1       -2.937  -2.960   3.858  0.00  0.00    +0.010 A 
ATOM     14  C   LIG    1       -4.125  -3.206   4.521  0.00  0.00    +0.000 A 
ATOM     15  C   LIG    1       -5.331  -2.988   3.882  0.00  0.00    +0.000 A 
ATOM     16  C   LIG    1       -5.350  -2.520   2.581  0.00  0.00    +0.000 A 
ATOM     17  C   LIG    1       -4.162  -2.270   1.920  0.00  0.00    +0.000 A 
ENDBRANCH  11  12
ENDBRANCH  10  11
ENDBRANCH   3  10
BRANCH   2  18
ATOM     18  C   LIG    1        2.493  -0.439   1.282  0.00  0.00    +0.370 C 
BRANCH  18  19
ATOM     19  N   LIG    1        3.619  -0.746   2.167  0.00  0.00    -0.390 N 
ATOM     20  N   LIG    1        4.258   0.137   3.051  0.00  0.00    +0.000 NA
ATOM     21  N   LIG    1        5.202  -0.482   3.667  0.00  0.00    -0.210 NA
ATOM     22  C   LIG    1        5.269  -1.764   3.254  0.00  0.00    -0.020 A 
ATOM     23  C   LIG    1        6.102  -2.837   3.596  0.00  0.00    +0.110 A 
ATOM     24  C   LIG    1        5.930  -4.050   2.996  0.00  0.00    +0.000 A 
ATOM     25  C   LIG    1        4.936  -4.238   2.045  0.00  0.00    +0.080 A 
ATOM     26  C   LIG    1        4.104  -3.199   1.692  0.00  0.00    +0.000 A 
ATOM     27  C   LIG    1        4.262  -1.955   2.292  0.00  0.00    +0.100 A 
ENDBRANCH  18  19
ENDBRANCH   2  18
TORSDOF 7
