REMARK  Name = ZINCah0000002yxj.0
REMARK                            x       y       z     vdW  Elec       q    Type
REMARK                         _______ _______ _______ _____ _____    ______ ____
ROOT
ATOM      1  C   LIG    1       -2.475   1.452   0.020  0.00  0.00    +0.430 C 
ATOM      2  O   LIG    1       -2.729   0.264   0.015  0.00  0.00    -0.420 OA
ENDROOT
BRANCH   1   3
ATOM      3  C   LIG    1       -1.130   1.887   0.017  0.00  0.00    -0.120 A 
ATOM      4  C   LIG    1       -0.013   1.076   0.008  0.00  0.00    +0.060 A 
ATOM      5  C   LIG    1        1.099   1.929   0.002  0.00  0.00    -0.070 A 
ATOM      6  C   LIG    1        0.630   3.198   0.012  0.00  0.00    +0.230 A 
ATOM      7  O   LIG    1       -0.708   3.169   0.025  0.00  0.00    -0.160 OA
ENDBRANCH   1   3
BRANCH   1   8
ATOM      8  C   LIG    1       -3.593   2.462   0.030  0.00  0.00    +0.200 C 
BRANCH   8  10
ATOM      9  C   LIG    1       -5.982   2.652   0.041  0.00  0.00    +0.220 C 
ATOM     10  O   LIG    1       -4.850   1.781   0.032  0.00  0.00    -0.370 OA
ENDBRANCH   8  10
ENDBRANCH   1   8
TORSDOF 3
