REMARK  Name = ZINCtV000002zWZn.0
REMARK                            x       y       z     vdW  Elec       q    Type
REMARK                         _______ _______ _______ _____ _____    ______ ____
ROOT
ATOM      1  C   LIG    1       -3.670   5.838  -2.057  0.00  0.00    +0.590 C 
ATOM      2  N   LIG    1       -2.493   5.626  -1.435  0.00  0.00    -0.660 N 
ATOM      3  H   LIG    1       -2.476   5.222  -0.553  0.00  0.00    +0.410 HD
ATOM      4  O   LIG    1       -3.687   6.251  -3.201  0.00  0.00    -0.490 OA
ENDROOT
BRANCH   1   6
ATOM      5  C   LIG    1       -6.148   5.752  -1.878  0.00  0.00    +0.010 A 
ATOM      6  C   LIG    1       -4.931   5.570  -1.354  0.00  0.00    -0.220 A 
ATOM      7  S   LIG    1       -5.049   4.974   0.293  0.00  0.00    +0.140 S 
ATOM      8  C   LIG    1       -6.808   4.980   0.222  0.00  0.00    -0.100 A 
ATOM      9  C   LIG    1       -7.756   4.622   1.185  0.00  0.00    +0.040 A 
ATOM     10  C   LIG    1       -9.099   4.708   0.904  0.00  0.00    +0.090 A 
ATOM     11  C   LIG    1       -9.525   5.152  -0.341  0.00  0.00    -0.010 A 
ATOM     12  C   LIG    1       -8.614   5.510  -1.302  0.00  0.00    +0.160 A 
ATOM     13  F   LIG    1       -9.044   5.940  -2.509  0.00  0.00    -0.120 F 
ATOM     14  C   LIG    1       -7.224   5.430  -1.037  0.00  0.00    -0.110 A 
BRANCH   5  15
ATOM     15  C   LIG    1       -6.350   6.263  -3.281  0.00  0.00    +0.250 C 
BRANCH  15  17
ATOM     16  C   LIG    1       -6.593   5.538  -5.552  0.00  0.00    +0.210 C 
ATOM     17  O   LIG    1       -6.403   5.160  -4.187  0.00  0.00    -0.380 OA
ENDBRANCH  15  17
ENDBRANCH   5  15
ENDBRANCH   1   6
BRANCH   2  18
ATOM     18  C   LIG    1       -1.296   5.989  -2.060  0.00  0.00    +0.150 A 
ATOM     19  C   LIG    1       -1.290   6.989  -3.023  0.00  0.00    +0.020 A 
ATOM     20  C   LIG    1       -0.106   7.345  -3.639  0.00  0.00    +0.030 A 
ATOM     21  C   LIG    1        1.072   6.706  -3.298  0.00  0.00    -0.010 A 
ATOM     22  C   LIG    1        1.070   5.713  -2.336  0.00  0.00    +0.040 A 
ATOM     23  C   LIG    1       -0.111   5.349  -1.720  0.00  0.00    -0.110 A 
BRANCH  23  24
ATOM     24  C   LIG    1       -0.113   4.263  -0.675  0.00  0.00    +0.120 C 
BRANCH  24  25
ATOM     25  C   LIG    1       -0.469   2.948  -1.318  0.00  0.00    -0.080 A 
ATOM     26  C   LIG    1        0.526   2.136  -1.827  0.00  0.00    +0.010 A 
ATOM     27  C   LIG    1        0.200   0.928  -2.417  0.00  0.00    +0.000 A 
ATOM     28  C   LIG    1       -1.123   0.533  -2.496  0.00  0.00    +0.000 A 
ATOM     29  C   LIG    1       -2.119   1.348  -1.991  0.00  0.00    +0.010 A 
ATOM     30  C   LIG    1       -1.792   2.553  -1.398  0.00  0.00    +0.000 A 
ENDBRANCH  24  25
ENDBRANCH  23  24
ENDBRANCH   2  18
TORSDOF 6
