REMARK  Name = ZINCvU0000000BQD.0
REMARK                            x       y       z     vdW  Elec       q    Type
REMARK                         _______ _______ _______ _____ _____    ______ ____
ROOT
ATOM      1  N   LIG    1       -2.977  -4.464   0.389  0.00  0.00    -0.440 N 
ATOM      2  C   LIG    1       -2.610  -3.160   0.216  0.00  0.00    +0.150 A 
ATOM      3  N   LIG    1       -3.669  -2.512  -0.215  0.00  0.00    -0.290 NA
ATOM      4  N   LIG    1       -4.663  -3.318  -0.331  0.00  0.00    -0.260 NA
ATOM      5  C   LIG    1       -4.303  -4.528   0.028  0.00  0.00    +0.230 A 
ENDROOT
BRANCH   1  12
ATOM      6  C   LIG    1       -2.634  -4.936   3.226  0.00  0.00    +0.030 C 
ATOM      7  C   LIG    1       -1.519  -5.194   2.212  0.00  0.00    -0.020 C 
ATOM      8  C   LIG    1       -0.638  -6.345   2.704  0.00  0.00    +0.040 C 
ATOM      9  C   LIG    1        0.477  -6.604   1.690  0.00  0.00    +0.010 C 
ATOM     10  C   LIG    1       -0.138  -6.975   0.339  0.00  0.00    +0.040 C 
ATOM     11  C   LIG    1       -1.018  -5.824  -0.154  0.00  0.00    +0.010 C 
ATOM     12  C   LIG    1       -2.134  -5.566   0.861  0.00  0.00    +0.240 C 
ENDBRANCH   1  12
BRANCH   5  13
ATOM     13  C   LIG    1       -5.160  -5.733   0.041  0.00  0.00    -0.070 A 
ATOM     14  C   LIG    1       -4.613  -6.998  -0.199  0.00  0.00    +0.070 A 
ATOM     15  C   LIG    1       -5.458  -8.094  -0.170  0.00  0.00    -0.030 A 
ATOM     16  C   LIG    1       -6.804  -7.905   0.082  0.00  0.00    +0.270 A 
ATOM     17  N   LIG    1       -7.293  -6.699   0.300  0.00  0.00    -0.480 NA
ATOM     18  C   LIG    1       -6.530  -5.626   0.288  0.00  0.00    +0.320 A 
ENDBRANCH   5  13
BRANCH   2  19
ATOM     19  S   LIG    1       -1.017  -2.473   0.521  0.00  0.00    +0.090 S 
BRANCH  19  20
ATOM     20  C   LIG    1       -1.326  -0.748   0.067  0.00  0.00    +0.100 C 
BRANCH  20  21
ATOM     21  C   LIG    1       -0.064   0.054   0.254  0.00  0.00    +0.540 C 
ATOM     22  N   LIG    1       -0.057   1.373  -0.025  0.00  0.00    -0.720 N 
ATOM     23  H   LIG    1       -0.863   1.805  -0.348  0.00  0.00    +0.410 HD
ATOM     24  O   LIG    1        0.945  -0.487   0.654  0.00  0.00    -0.520 OA
BRANCH  22  25
ATOM     25  C   LIG    1        1.170   2.153   0.157  0.00  0.00    +0.330 C 
BRANCH  25  26
ATOM     26  C   LIG    1        0.913   3.589  -0.221  0.00  0.00    -0.110 A 
ATOM     27  C   LIG    1        1.311   4.060  -1.458  0.00  0.00    +0.050 A 
ATOM     28  C   LIG    1        1.071   5.376  -1.806  0.00  0.00    +0.010 A 
ATOM     29  C   LIG    1        0.442   6.224  -0.914  0.00  0.00    +0.040 A 
ATOM     30  C   LIG    1        0.047   5.755   0.325  0.00  0.00    +0.030 A 
ATOM     31  C   LIG    1        0.283   4.437   0.672  0.00  0.00    -0.020 A 
ATOM     32 CL   LIG    1       -0.212   3.848   2.228  0.00  0.00    -0.060 Cl
ENDBRANCH  25  26
ENDBRANCH  22  25
ENDBRANCH  20  21
ENDBRANCH  19  20
ENDBRANCH   2  19
TORSDOF 7
