REMARK  Name = ZINCvU0000000Dhj.0
REMARK                            x       y       z     vdW  Elec       q    Type
REMARK                         _______ _______ _______ _____ _____    ______ ____
ROOT
ATOM      1  S   LIG    1       -5.661   5.765   0.474  0.00  0.00    +0.080 S 
ENDROOT
BRANCH   1   2
ATOM      2  C   LIG    1       -4.067   5.074   0.767  0.00  0.00    +0.160 A 
ATOM      3  N   LIG    1       -2.948   5.741   0.936  0.00  0.00    -0.280 NA
ATOM      4  N   LIG    1       -1.973   4.927   1.133  0.00  0.00    -0.250 NA
ATOM      5  C   LIG    1       -2.408   3.687   1.091  0.00  0.00    +0.260 A 
ATOM      6  N   LIG    1       -3.765   3.744   0.859  0.00  0.00    -0.450 N 
BRANCH   6   7
ATOM      7  C   LIG    1       -4.690   2.615   0.737  0.00  0.00    +0.250 C 
ATOM      8  C   LIG    1       -5.349   2.642  -0.644  0.00  0.00    +0.010 C 
ATOM      9  C   LIG    1       -6.316   1.463  -0.771  0.00  0.00    +0.040 C 
ATOM     10  C   LIG    1       -7.393   1.568   0.310  0.00  0.00    +0.010 C 
ATOM     11  C   LIG    1       -6.734   1.540   1.691  0.00  0.00    +0.040 C 
ATOM     12  C   LIG    1       -5.768   2.719   1.818  0.00  0.00    +0.020 C 
ENDBRANCH   6   7
BRANCH   5  13
ATOM     13  C   LIG    1       -1.600   2.470   1.266  0.00  0.00    +0.040 A 
ATOM     14  C   LIG    1       -0.241   2.397   1.210  0.00  0.00    +0.030 A 
ATOM     15  C   LIG    1        0.102   1.049   1.431  0.00  0.00    -0.050 A 
ATOM     16  C   LIG    1       -1.050   0.372   1.610  0.00  0.00    +0.200 A 
ATOM     17  O   LIG    1       -2.076   1.232   1.504  0.00  0.00    -0.180 OA
ENDBRANCH   5  13
ENDBRANCH   1   2
BRANCH   1  18
ATOM     18  C   LIG    1       -5.248   7.527   0.490  0.00  0.00    -0.030 C 
ATOM     19  C   LIG    1       -4.327   7.845  -0.690  0.00  0.00    +0.090 C 
BRANCH  18  20
ATOM     20  C   LIG    1       -6.511   8.340   0.375  0.00  0.00    +0.440 C 
ATOM     21  O   LIG    1       -7.496   7.861  -0.149  0.00  0.00    -0.430 OA
BRANCH  20  26
ATOM     22  C   LIG    1       -7.228  11.721   1.449  0.00  0.00    -0.260 A 
ATOM     23  C   LIG    1       -5.906  11.559   1.837  0.00  0.00    +0.120 A 
ATOM     24  N   LIG    1       -5.506  10.327   1.493  0.00  0.00    -0.520 N 
ATOM     25  H   LIG    1       -4.623   9.959   1.651  0.00  0.00    +0.420 HD
ATOM     26  C   LIG    1       -6.549   9.663   0.878  0.00  0.00    -0.100 A 
ATOM     27  C   LIG    1       -5.059  12.595   2.530  0.00  0.00    +0.160 C 
ATOM     28  C   LIG    1       -7.631  10.514   0.834  0.00  0.00    -0.010 A 
ATOM     29  C   LIG    1       -8.986  10.215   0.245  0.00  0.00    +0.140 C 
BRANCH  22  31
ATOM     30  C   LIG    1       -8.008  14.029   0.614  0.00  0.00    +0.070 C 
ATOM     31  C   LIG    1       -8.050  12.921   1.635  0.00  0.00    +0.440 C 
ATOM     32  O   LIG    1       -8.763  13.022   2.612  0.00  0.00    -0.450 OA
ENDBRANCH  22  31
ENDBRANCH  20  26
ENDBRANCH  18  20
ENDBRANCH   1  18
TORSDOF 7
