REMARK  Name = ZINCqH0000006ZxQ.1
REMARK                            x       y       z     vdW  Elec       q    Type
REMARK                         _______ _______ _______ _____ _____    ______ ____
ROOT
ATOM      1  C   LIG    1        3.659   2.175  -0.021  0.00  0.00    +0.290 A 
ATOM      2  N   LIG    1        4.864   1.651  -0.029  0.00  0.00    -0.300 NA
ATOM      3  N   LIG    1        5.774   2.720  -0.036  0.00  0.00    -0.470 N 
ATOM      4  H   LIG    1        6.742   2.657  -0.045  0.00  0.00    +0.450 HD
ATOM      5  C   LIG    1        5.037   3.851  -0.024  0.00  0.00    +0.500 A 
ATOM      6  N   LIG    1        3.768   3.512  -0.014  0.00  0.00    -0.550 NA
ENDROOT
BRANCH   1  10
ATOM      7  C   LIG    1        0.002  -0.004   0.002  0.00  0.00    +0.120 A 
ATOM      8  C   LIG    1       -0.017   1.382   0.010  0.00  0.00    -0.040 A 
ATOM      9  C   LIG    1        1.168   2.091   0.002  0.00  0.00    +0.070 A 
ATOM     10  C   LIG    1        2.385   1.414  -0.013  0.00  0.00    -0.020 A 
ATOM     11  C   LIG    1        2.405   0.020  -0.021  0.00  0.00    +0.010 A 
ATOM     12  C   LIG    1        1.216  -0.686  -0.014  0.00  0.00    +0.100 A 
BRANCH   7  14
ATOM     13  C   LIG    1       -2.375   0.064   0.025  0.00  0.00    +0.240 C 
ATOM     14  O   LIG    1       -1.167  -0.699   0.009  0.00  0.00    -0.300 OA
ENDBRANCH   7  14
BRANCH  12  15
ATOM     15  O   LIG    1        1.233  -2.046  -0.021  0.00  0.00    -0.300 OA
ATOM     16  C   LIG    1        2.514  -2.679  -0.037  0.00  0.00    +0.240 C 
ENDBRANCH  12  15
ENDBRANCH   1  10
BRANCH   5  17
ATOM     17  N   LIG    1        5.534   5.147  -0.020  0.00  0.00    -0.630 N 
ATOM     18  H   LIG    1        4.924   5.900  -0.010  0.00  0.00    +0.440 HD
ATOM     19  C   LIG    1        6.865   5.358  -0.030  0.00  0.00    +0.530 C 
ATOM     20  O   LIG    1        7.629   4.416  -0.042  0.00  0.00    -0.520 OA
BRANCH  19  21
ATOM     21  C   LIG    1        7.405   6.765  -0.026  0.00  0.00    +0.080 C 
BRANCH  21  22
ATOM     22  C   LIG    1        8.934   6.725  -0.039  0.00  0.00    +0.040 C 
BRANCH  22  23
ATOM     23  C   LIG    1        9.482   8.153  -0.035  0.00  0.00    -0.020 C 
ATOM     24  C   LIG    1        9.085   8.856  -1.335  0.00  0.00    +0.000 C 
ATOM     25  C   LIG    1        9.633  10.284  -1.331  0.00  0.00    +0.000 C 
ATOM     26  C   LIG    1       11.158  10.245  -1.218  0.00  0.00    +0.000 C 
ATOM     27  C   LIG    1       11.556   9.543   0.081  0.00  0.00    +0.000 C 
ATOM     28  C   LIG    1       11.008   8.114   0.077  0.00  0.00    +0.010 C 
ENDBRANCH  22  23
ENDBRANCH  21  22
ENDBRANCH  19  21
ENDBRANCH   5  17
TORSDOF 7
