REMARK  Name = ZINCqH0000006ZxQ.0
REMARK                            x       y       z     vdW  Elec       q    Type
REMARK                         _______ _______ _______ _____ _____    ______ ____
ROOT
ATOM      1  C   LIG    1        0.989  -4.097  -1.671  0.00  0.00    +0.350 A 
ATOM      2  N   LIG    1        1.144  -2.825  -1.979  0.00  0.00    -0.550 NA
ATOM      3  C   LIG    1        0.604  -2.063  -1.026  0.00  0.00    +0.440 A 
ATOM      4  N   LIG    1        0.088  -2.837  -0.099  0.00  0.00    -0.280 NA
ATOM      5  N   LIG    1        0.325  -4.163  -0.495  0.00  0.00    -0.470 N 
ATOM      6  H   LIG    1        0.065  -4.967  -0.019  0.00  0.00    +0.440 HD
ENDROOT
BRANCH   1  10
ATOM      7  C   LIG    1        2.323  -7.413  -3.975  0.00  0.00    +0.130 A 
ATOM      8  C   LIG    1        1.651  -7.624  -2.781  0.00  0.00    -0.020 A 
ATOM      9  C   LIG    1        1.216  -6.551  -2.031  0.00  0.00    +0.040 A 
ATOM     10  C   LIG    1        1.454  -5.249  -2.474  0.00  0.00    -0.040 A 
ATOM     11  C   LIG    1        2.126  -5.036  -3.679  0.00  0.00    +0.030 A 
ATOM     12  C   LIG    1        2.563  -6.116  -4.423  0.00  0.00    +0.100 A 
BRANCH   7  14
ATOM     13  C   LIG    1        2.469  -9.776  -4.193  0.00  0.00    +0.240 C 
ATOM     14  O   LIG    1        2.749  -8.474  -4.711  0.00  0.00    -0.300 OA
ENDBRANCH   7  14
BRANCH  12  15
ATOM     15  O   LIG    1        3.223  -5.912  -5.595  0.00  0.00    -0.300 OA
ATOM     16  C   LIG    1        3.434  -4.556  -5.993  0.00  0.00    +0.240 C 
ENDBRANCH  12  15
ENDBRANCH   1  10
BRANCH   3  17
ATOM     17  N   LIG    1        0.585  -0.664  -1.018  0.00  0.00    -0.630 N 
ATOM     18  H   LIG    1        0.992  -0.170  -1.747  0.00  0.00    +0.430 HD
ATOM     19  C   LIG    1        0.002  -0.004   0.002  0.00  0.00    +0.510 C 
ATOM     20  O   LIG    1       -0.506  -0.623   0.913  0.00  0.00    -0.490 OA
BRANCH  19  21
ATOM     21  C   LIG    1       -0.018   1.503   0.010  0.00  0.00    +0.070 C 
BRANCH  21  22
ATOM     22  C   LIG    1       -0.735   1.996   1.269  0.00  0.00    +0.040 C 
BRANCH  22  23
ATOM     23  C   LIG    1       -0.755   3.526   1.278  0.00  0.00    -0.020 C 
ATOM     24  C   LIG    1        0.676   4.055   1.392  0.00  0.00    +0.000 C 
ATOM     25  C   LIG    1        0.655   5.585   1.401  0.00  0.00    +0.000 C 
ATOM     26  C   LIG    1       -0.168   6.077   2.593  0.00  0.00    +0.000 C 
ATOM     27  C   LIG    1       -1.599   5.548   2.478  0.00  0.00    +0.000 C 
ATOM     28  C   LIG    1       -1.578   4.018   2.470  0.00  0.00    +0.010 C 
ENDBRANCH  22  23
ENDBRANCH  21  22
ENDBRANCH  19  21
ENDBRANCH   3  17
TORSDOF 7
