REMARK  Name = ZINCvU00000006Rf.0
REMARK                            x       y       z     vdW  Elec       q    Type
REMARK                         _______ _______ _______ _____ _____    ______ ____
ROOT
ATOM      1  C   LIG    1        4.221   2.950  -1.108  0.00  0.00    -0.020 A 
ATOM      2  C   LIG    1        5.271   3.683  -1.476  0.00  0.00    -0.020 A 
ATOM      3  S   LIG    1        4.777   5.276  -2.016  0.00  0.00    +0.180 S 
ATOM      4  C   LIG    1        3.079   4.927  -1.729  0.00  0.00    +0.120 A 
ATOM      5  N   LIG    1        1.984   5.679  -1.903  0.00  0.00    -0.530 NA
ATOM      6  C   LIG    1        0.790   5.213  -1.620  0.00  0.00    +0.560 A 
ATOM      7  N   LIG    1        0.604   3.989  -1.159  0.00  0.00    -0.590 NA
ATOM      8  C   LIG    1        1.627   3.174  -0.949  0.00  0.00    +0.500 A 
ATOM      9  C   LIG    1        2.938   3.628  -1.238  0.00  0.00    -0.220 A 
ENDROOT
BRANCH   1  14
ATOM     10  C   LIG    1        4.715  -2.449   0.830  0.00  0.00    +0.090 C 
ATOM     11  C   LIG    1        4.586  -1.036   0.323  0.00  0.00    -0.080 A 
ATOM     12  C   LIG    1        5.067  -0.708  -0.932  0.00  0.00    +0.010 A 
ATOM     13  C   LIG    1        4.951   0.584  -1.402  0.00  0.00    +0.030 A 
ATOM     14  C   LIG    1        4.348   1.560  -0.609  0.00  0.00    -0.060 A 
ATOM     15  C   LIG    1        3.870   1.224   0.657  0.00  0.00    +0.030 A 
ATOM     16  C   LIG    1        3.987  -0.072   1.114  0.00  0.00    +0.030 A 
ENDBRANCH   1  14
BRANCH   8  17
ATOM     17  N   LIG    1        1.419   1.897  -0.459  0.00  0.00    -0.680 N 
ATOM     18  H   LIG    1        2.161   1.276  -0.391  0.00  0.00    +0.420 HD
BRANCH  17  19
ATOM     19  C   LIG    1        0.076   1.482  -0.043  0.00  0.00    +0.410 C 
BRANCH  19  20
ATOM     20  C   LIG    1       -0.214   0.106  -0.585  0.00  0.00    -0.110 A 
ATOM     21  C   LIG    1        0.746  -0.885  -0.505  0.00  0.00    +0.070 A 
ATOM     22  C   LIG    1        0.478  -2.148  -0.997  0.00  0.00    -0.010 A 
ATOM     23  C   LIG    1       -0.749  -2.418  -1.579  0.00  0.00    +0.110 A 
ATOM     24  C   LIG    1       -1.708  -1.423  -1.664  0.00  0.00    -0.010 A 
ATOM     25  F   LIG    1       -1.010  -3.652  -2.065  0.00  0.00    -0.140 F 
ATOM     26  C   LIG    1       -1.440  -0.162  -1.167  0.00  0.00    +0.060 A 
ENDBRANCH  19  20
BRANCH  19  27
ATOM     27  C   LIG    1        0.003   1.455   1.462  0.00  0.00    +0.190 A 
ATOM     28  N   LIG    1        0.900   0.941   2.258  0.00  0.00    -0.470 NA
ATOM     29  C   LIG    1        0.504   1.098   3.530  0.00  0.00    +0.140 A 
ATOM     30  C   LIG    1       -0.686   1.728   3.521  0.00  0.00    +0.130 A 
ATOM     31  N   LIG    1       -1.005   1.954   2.209  0.00  0.00    -0.450 N 
ATOM     32  C   LIG    1       -2.213   2.616   1.710  0.00  0.00    +0.320 C 
ENDBRANCH  19  27
ENDBRANCH  17  19
ENDBRANCH   8  17
TORSDOF 5
