REMARK  Name = ZINCrD0000075Qen.0
REMARK                            x       y       z     vdW  Elec       q    Type
REMARK                         _______ _______ _______ _____ _____    ______ ____
ROOT
ATOM      1  C   LIG    1        1.071   3.855  -1.375  0.00  0.00    +0.330 C 
ENDROOT
BRANCH   1   2
ATOM      2  C   LIG    1        1.060   2.461  -1.948  0.00  0.00    -0.120 A 
ATOM      3  C   LIG    1       -0.137   1.793  -2.116  0.00  0.00    +0.170 A 
ATOM      4  C   LIG    1       -0.148   0.514  -2.641  0.00  0.00    -0.070 A 
ATOM      5  C   LIG    1        1.038  -0.098  -2.999  0.00  0.00    +0.160 A 
ATOM      6  C   LIG    1        2.239   0.566  -2.833  0.00  0.00    -0.200 A 
ATOM      7  C   LIG    1        3.527  -0.113  -3.223  0.00  0.00    +0.320 C 
ATOM      8  O   LIG    1        4.568   0.865  -3.318  0.00  0.00    -0.370 OA
ATOM      9  C   LIG    1        4.624   1.735  -2.181  0.00  0.00    +0.460 C 
ATOM     10  O   LIG    1        3.426   2.516  -2.144  0.00  0.00    -0.320 OA
ATOM     11  C   LIG    1        2.253   1.849  -2.308  0.00  0.00    +0.200 A 
BRANCH   4  12
ATOM     12  N   LIG    1       -1.432  -0.200  -2.820  0.00  0.00    +0.030 N 
ATOM     13  O   LIG    1       -1.443  -1.327  -3.283  0.00  0.00    -0.160 OA
ATOM     14  O   LIG    1       -2.478   0.339  -2.505  0.00  0.00    -0.150 OA
ENDBRANCH   4  12
ENDBRANCH   1   2
BRANCH   1  15
ATOM     15  O   LIG    1       -0.289   4.269  -1.083  0.00  0.00    -0.350 OA
BRANCH  15  17
ATOM     16  O   LIG    1        0.510   6.208  -0.356  0.00  0.00    -0.460 OA
ATOM     17  C   LIG    1       -0.455   5.500  -0.561  0.00  0.00    +0.510 C 
BRANCH  17  18
ATOM     18  C   LIG    1       -1.811   5.989  -0.238  0.00  0.00    -0.060 A 
ATOM     19  C   LIG    1       -2.908   5.132  -0.341  0.00  0.00    +0.120 A 
ATOM     20  C   LIG    1       -4.173   5.594  -0.033  0.00  0.00    -0.010 A 
ATOM     21  C   LIG    1       -4.354   6.907   0.367  0.00  0.00    +0.100 A 
ATOM     22  C   LIG    1       -3.271   7.763   0.466  0.00  0.00    +0.110 A 
ATOM     23 CL   LIG    1       -5.538   4.529  -0.154  0.00  0.00    -0.020 Cl
ATOM     24  C   LIG    1       -2.002   7.312   0.166  0.00  0.00    +0.020 A 
BRANCH  24  25
ATOM     25  N   LIG    1       -0.845   8.229   0.272  0.00  0.00    +0.010 N 
ATOM     26  O   LIG    1       -0.069   8.341  -0.660  0.00  0.00    -0.090 OA
ATOM     27  O   LIG    1       -0.669   8.872   1.292  0.00  0.00    -0.150 OA
ENDBRANCH  24  25
ENDBRANCH  17  18
ENDBRANCH  15  17
ENDBRANCH   1  15
TORSDOF 6
