REMARK  Name = ZINCrD00000ec75A.0
REMARK                            x       y       z     vdW  Elec       q    Type
REMARK                         _______ _______ _______ _____ _____    ______ ____
ROOT
ATOM      1  C   LIG    1       -1.964   4.261  -1.043  0.00  0.00    +0.170 C 
ATOM      2  C   LIG    1       -1.466   2.830  -1.375  0.00  0.00    +0.080 C 
ATOM      3  C   LIG    1       -1.250   2.207   0.020  0.00  0.00    +0.350 C 
ATOM      4  N   LIG    1       -1.076   3.313   0.973  0.00  0.00    -0.590 N 
ATOM      5  C   LIG    1       -0.885   3.183   2.301  0.00  0.00    +0.680 C 
ATOM      6  O   LIG    1       -0.845   2.077   2.804  0.00  0.00    -0.560 OA
ATOM      7  C   LIG    1       -1.145   4.588   0.231  0.00  0.00    +0.270 C 
ENDROOT
BRANCH   3   8
ATOM      8  C   LIG    1       -0.016   1.341   0.009  0.00  0.00    +0.270 A 
ATOM      9  N   LIG    1        1.219   1.768  -0.000  0.00  0.00    -0.510 NA
ATOM     10  C   LIG    1        2.059   0.725  -0.014  0.00  0.00    +0.260 A 
ATOM     11  N   LIG    1        1.354  -0.385  -0.013  0.00  0.00    -0.300 NA
ATOM     12  N   LIG    1        0.002  -0.004   0.002  0.00  0.00    -0.360 N 
ATOM     13  C   LIG    1       -1.160  -0.896   0.008  0.00  0.00    +0.370 C 
BRANCH  10  14
ATOM     14  C   LIG    1        3.541   0.808  -0.027  0.00  0.00    +0.020 A 
ATOM     15  C   LIG    1        4.171   2.050  -0.032  0.00  0.00    +0.050 A 
ATOM     16  C   LIG    1        5.550   2.123  -0.038  0.00  0.00    +0.050 A 
ATOM     17  C   LIG    1        6.306   0.966  -0.052  0.00  0.00    +0.000 A 
ATOM     18  C   LIG    1        5.686  -0.273  -0.053  0.00  0.00    +0.100 A 
ATOM     19  F   LIG    1        6.430  -1.401  -0.066  0.00  0.00    -0.140 F 
ATOM     20  C   LIG    1        4.306  -0.357  -0.041  0.00  0.00    +0.020 A 
ENDBRANCH  10  14
ENDBRANCH   3   8
BRANCH   1  22
ATOM     21  C   LIG    1       -2.582   6.247  -2.234  0.00  0.00    +0.220 C 
ATOM     22  O   LIG    1       -1.652   5.170  -2.101  0.00  0.00    -0.370 OA
ENDBRANCH   1  22
BRANCH   5  23
ATOM     23  O   LIG    1       -0.738   4.278   3.071  0.00  0.00    -0.360 OA
BRANCH  23  24
ATOM     24  C   LIG    1       -0.536   4.062   4.492  0.00  0.00    +0.140 C 
ATOM     25  C   LIG    1       -1.738   3.312   5.070  0.00  0.00    +0.040 C 
ATOM     26  C   LIG    1       -0.391   5.412   5.197  0.00  0.00    +0.080 C 
ATOM     27  C   LIG    1        0.733   3.236   4.708  0.00  0.00    +0.030 C 
ENDBRANCH  23  24
ENDBRANCH   5  23
TORSDOF 5
