REMARK  Name = ZINCpe000000QNvq.0
REMARK                            x       y       z     vdW  Elec       q    Type
REMARK                         _______ _______ _______ _____ _____    ______ ____
ROOT
ATOM      1  C   LIG    1       -3.407   3.721   7.272  0.00  0.00    +0.510 C 
ATOM      2  N   LIG    1       -2.093   3.553   7.024  0.00  0.00    -0.660 N 
ATOM      3  H   LIG    1       -1.803   3.182   6.176  0.00  0.00    +0.420 HD
ATOM      4  O   LIG    1       -3.775   4.097   8.365  0.00  0.00    -0.460 OA
ENDROOT
BRANCH   2   5
ATOM      5  C   LIG    1       -1.149   3.911   7.989  0.00  0.00    +0.340 A 
ATOM      6  C   LIG    1        0.205   3.834   7.686  0.00  0.00    -0.040 A 
ATOM      7  C   LIG    1        1.133   4.192   8.649  0.00  0.00    +0.070 A 
ATOM      8  C   LIG    1        0.669   4.619   9.891  0.00  0.00    +0.030 A 
ATOM      9  C   LIG    1       -0.699   4.670  10.121  0.00  0.00    +0.250 A 
ATOM     10  N   LIG    1       -1.554   4.326   9.178  0.00  0.00    -0.450 NA
BRANCH   8  11
ATOM     11  N   LIG    1        1.570   4.990  10.895  0.00  0.00    -0.480 N 
ATOM     12  C   LIG    1        2.514   3.901  11.185  0.00  0.00    +0.160 C 
ATOM     13  C   LIG    1        3.516   4.369  12.243  0.00  0.00    +0.220 C 
ATOM     14  O   LIG    1        2.807   4.797  13.409  0.00  0.00    -0.380 OA
ATOM     15  C   LIG    1        1.880   5.857  13.162  0.00  0.00    +0.220 C 
ATOM     16  C   LIG    1        0.860   5.404  12.114  0.00  0.00    +0.170 C 
ENDBRANCH   8  11
ENDBRANCH   2   5
BRANCH   1  17
ATOM     17  C   LIG    1       -4.419   3.442   6.191  0.00  0.00    +0.150 C 
BRANCH  17  22
ATOM     18  C   LIG    1       -9.670   4.505   8.172  0.00  0.00    +0.190 C 
ATOM     19  C   LIG    1       -8.286   4.205   7.657  0.00  0.00    +0.400 A 
ATOM     20  N   LIG    1       -7.638   5.127   6.995  0.00  0.00    -0.530 NA
ATOM     21  C   LIG    1       -6.409   4.910   6.519  0.00  0.00    +0.200 A 
ATOM     22  C   LIG    1       -5.805   3.706   6.721  0.00  0.00    -0.250 A 
ATOM     23  C   LIG    1       -6.504   2.712   7.435  0.00  0.00    +0.530 A 
ATOM     24  O   LIG    1       -6.000   1.620   7.638  0.00  0.00    -0.530 OA
ATOM     25  C   LIG    1       -5.692   5.996   5.759  0.00  0.00    +0.150 C 
ATOM     26  N   LIG    1       -7.742   2.996   7.894  0.00  0.00    -0.630 N 
ATOM     27  H   LIG    1       -8.240   2.329   8.392  0.00  0.00    +0.420 HD
ENDBRANCH  17  22
ENDBRANCH   1  17
TORSDOF 4
