REMARK  Name = ZINCqH0000001nQm.0
REMARK                            x       y       z     vdW  Elec       q    Type
REMARK                         _______ _______ _______ _____ _____    ______ ____
ROOT
ATOM      1  N   LIG    1       -3.142  -7.087  -0.009  0.00  0.00    -0.450 N 
ATOM      2  C   LIG    1       -2.968  -5.732  -0.002  0.00  0.00    +0.140 A 
ATOM      3  N   LIG    1       -4.162  -5.184   0.018  0.00  0.00    -0.290 NA
ATOM      4  N   LIG    1       -5.067  -6.096   0.015  0.00  0.00    -0.250 NA
ATOM      5  C   LIG    1       -4.506  -7.286   0.003  0.00  0.00    +0.260 A 
ENDROOT
BRANCH   5   6
ATOM      6  C   LIG    1       -5.201  -8.582   0.003  0.00  0.00    +0.040 A 
ATOM      7  C   LIG    1       -6.514  -8.785   0.305  0.00  0.00    +0.020 A 
ATOM      8  C   LIG    1       -6.751 -10.168   0.175  0.00  0.00    -0.050 A 
ATOM      9  C   LIG    1       -5.583 -10.736  -0.188  0.00  0.00    +0.190 A 
ATOM     10  O   LIG    1       -4.650  -9.776  -0.291  0.00  0.00    -0.170 OA
ENDBRANCH   5   6
BRANCH   1  11
ATOM     11  C   LIG    1       -2.098  -8.115  -0.024  0.00  0.00    +0.310 C 
BRANCH  11  13
ATOM     12  C   LIG    1       -2.919  -9.132   2.105  0.00  0.00    +0.020 C 
ATOM     13  C   LIG    1       -1.721  -8.480   1.413  0.00  0.00    -0.030 C 
ATOM     14  C   LIG    1       -0.545  -9.460   1.398  0.00  0.00    +0.040 C 
ENDBRANCH  11  13
ENDBRANCH   1  11
BRANCH   2  15
ATOM     15  S   LIG    1       -1.427  -4.877  -0.012  0.00  0.00    +0.130 S 
BRANCH  15  16
ATOM     16  C   LIG    1       -2.017  -3.166   0.003  0.00  0.00    +0.180 C 
BRANCH  16  17
ATOM     17  C   LIG    1       -0.837  -2.228  -0.002  0.00  0.00    +0.460 A 
ATOM     18  N   LIG    1        0.366  -2.731  -0.017  0.00  0.00    -0.570 NA
ATOM     19  C   LIG    1        1.451  -1.937  -0.023  0.00  0.00    +0.560 A 
ATOM     20  C   LIG    1        1.284  -0.527  -0.013  0.00  0.00    -0.330 A 
ATOM     21  C   LIG    1        0.002  -0.004   0.002  0.00  0.00    +0.170 A 
ATOM     22  C   LIG    1       -0.017   1.388   0.010  0.00  0.00    +0.000 A 
ATOM     23  C   LIG    1        1.173   1.984   0.002  0.00  0.00    +0.020 A 
ATOM     24  S   LIG    1        2.455   0.784  -0.017  0.00  0.00    +0.250 S 
ATOM     25  O   LIG    1        2.571  -2.425  -0.036  0.00  0.00    -0.490 OA
ATOM     26  N   LIG    1       -1.062  -0.905   0.007  0.00  0.00    -0.600 N 
ATOM     27  H   LIG    1       -1.973  -0.573   0.018  0.00  0.00    +0.430 HD
ENDBRANCH  16  17
ENDBRANCH  15  16
ENDBRANCH   2  15
TORSDOF 6
