REMARK  Name = ZINC9l0000002pXD.0
REMARK                            x       y       z     vdW  Elec       q    Type
REMARK                         _______ _______ _______ _____ _____    ______ ____
ROOT
ATOM      1  C   LIG    1       -2.684   3.328  -1.254  0.00  0.00    +0.000 C 
ATOM      2  C   LIG    1       -1.272   3.036  -0.741  0.00  0.00    +0.000 C 
ATOM      3  C   LIG    1       -1.260   3.028   0.798  0.00  0.00    -0.020 C 
ATOM      4  C   LIG    1       -0.802   1.617   1.230  0.00  0.00    -0.010 C 
ATOM      5  C   LIG    1       -0.013   1.086   0.008  0.00  0.00    +0.020 C 
ATOM      6  C   LIG    1       -0.825   1.630  -1.193  0.00  0.00    -0.090 C 
ENDROOT
BRANCH   6   7
ATOM      7  C   LIG    1        0.043   1.719  -2.421  0.00  0.00    +0.500 C 
ATOM      8  O   LIG    1        0.242   2.799  -2.950  0.00  0.00    -0.700 OA
ATOM      9  O   LIG    1        0.548   0.711  -2.885  0.00  0.00    -0.710 OA
ENDBRANCH   6   7
TORSDOF 1
