REMARK  Name = ZINCpe000000Te4r.0
REMARK                            x       y       z     vdW  Elec       q    Type
REMARK                         _______ _______ _______ _____ _____    ______ ____
ROOT
ATOM      1  C   LIG    1        4.242  10.458   0.441  0.00  0.00    +0.230 A 
ATOM      2  N   LIG    1        3.095   9.886   0.652  0.00  0.00    -0.280 NA
ATOM      3  N   LIG    1        2.994   8.656   0.396  0.00  0.00    -0.250 NA
ATOM      4  C   LIG    1        4.051   8.043  -0.054  0.00  0.00    -0.080 A 
ATOM      5  S   LIG    1        5.352   9.230  -0.171  0.00  0.00    +0.240 S 
ENDROOT
BRANCH   1   7
ATOM      6  C   LIG    1        5.732  12.296   0.267  0.00  0.00    +0.510 C 
ATOM      7  N   LIG    1        4.542  11.800   0.658  0.00  0.00    -0.480 N 
ATOM      8  O   LIG    1        6.542  11.574  -0.275  0.00  0.00    -0.500 OA
BRANCH   7   9
ATOM      9  C   LIG    1        3.564  12.673   1.312  0.00  0.00    +0.190 C 
ATOM     10  C   LIG    1        2.408  12.004   2.059  0.00  0.00    +0.070 C 
ATOM     11  C   LIG    1        2.150  12.713   0.728  0.00  0.00    +0.040 C 
ENDBRANCH   7   9
BRANCH   6  13
ATOM     12  C   LIG    1        7.459  14.051  -0.032  0.00  0.00    +0.070 C 
ATOM     13  C   LIG    1        6.057  13.749   0.502  0.00  0.00    +0.090 C 
ENDBRANCH   6  13
ENDBRANCH   1   7
BRANCH   4  14
ATOM     14  S   LIG    1        4.160   6.336  -0.477  0.00  0.00    +0.100 S 
BRANCH  14  15
ATOM     15  C   LIG    1        2.492   5.719  -0.119  0.00  0.00    +0.100 C 
BRANCH  15  16
ATOM     16  C   LIG    1        2.423   4.247  -0.435  0.00  0.00    +0.540 C 
ATOM     17  N   LIG    1        1.272   3.571  -0.246  0.00  0.00    -0.720 N 
ATOM     18  H   LIG    1        0.489   4.032   0.094  0.00  0.00    +0.410 HD
ATOM     19  O   LIG    1        3.402   3.671  -0.860  0.00  0.00    -0.510 OA
BRANCH  17  20
ATOM     20  C   LIG    1        1.205   2.140  -0.553  0.00  0.00    +0.280 C 
ATOM     21  C   LIG    1       -0.250   1.746  -0.863  0.00  0.00    +0.080 C 
ATOM     22  C   LIG    1       -0.302   0.196  -0.847  0.00  0.00    -0.300 C 
ATOM     23  S   LIG    1        0.717  -0.223   0.617  0.00  0.00    +2.390 S 
ATOM     24  O   LIG    1        1.576  -1.309   0.298  0.00  0.00    -0.930 OA
ATOM     25  O   LIG    1       -0.116  -0.290   1.767  0.00  0.00    -0.930 OA
ATOM     26  C   LIG    1        1.690   1.326   0.663  0.00  0.00    -0.330 C 
ENDBRANCH  17  20
ENDBRANCH  15  16
ENDBRANCH  14  15
ENDBRANCH   4  14
TORSDOF 7
