REMARK  Name = ZINCrD000000A7bi.0
REMARK                            x       y       z     vdW  Elec       q    Type
REMARK                         _______ _______ _______ _____ _____    ______ ____
ROOT
ATOM      1  C   LIG    1       -3.379   2.663   3.664  0.00  0.00    +0.020 C 
ATOM      2  C   LIG    1       -2.976   3.938   2.917  0.00  0.00    +0.030 C 
ATOM      3  C   LIG    1       -2.691   3.597   1.453  0.00  0.00    +0.180 C 
ATOM      4  N   LIG    1       -1.611   2.604   1.381  0.00  0.00    -0.530 NA
ATOM      5  C   LIG    1       -1.994   1.355   2.051  0.00  0.00    +0.170 C 
ATOM      6  C   LIG    1       -2.258   1.628   3.533  0.00  0.00    +0.030 C 
ENDROOT
BRANCH   1  15
ATOM      7  O   LIG    1       -5.620   3.378   3.449  0.00  0.00    -0.530 OA
ATOM      8  C   LIG    1       -5.492   4.223   4.310  0.00  0.00    +0.540 C 
ATOM      9  N   LIG    1       -4.543   4.082   5.256  0.00  0.00    -0.600 N 
ATOM     10  C   LIG    1       -4.501   5.053   6.367  0.00  0.00    +0.250 C 
ATOM     11  C   LIG    1       -4.242   4.373   7.723  0.00  0.00    +0.020 C 
ATOM     12  C   LIG    1       -5.021   3.084   7.814  0.00  0.00    +0.000 C 
ATOM     13  C   LIG    1       -4.152   1.932   7.318  0.00  0.00    +0.000 C 
ATOM     14  C   LIG    1       -4.178   1.738   5.860  0.00  0.00    +0.010 C 
ATOM     15  C   LIG    1       -3.607   2.986   5.142  0.00  0.00    +0.240 C 
BRANCH   8  16
ATOM     16  C   LIG    1       -6.394   5.430   4.322  0.00  0.00    -0.080 C 
ATOM     17  C   LIG    1       -7.870   5.206   4.659  0.00  0.00    +0.050 C 
ATOM     18  C   LIG    1       -7.453   5.531   3.222  0.00  0.00    +0.060 C 
ENDBRANCH   8  16
ENDBRANCH   1  15
BRANCH   4  19
ATOM     19  C   LIG    1       -1.216   2.356  -0.011  0.00  0.00    +0.330 C 
BRANCH  19  20
ATOM     20  C   LIG    1        0.044   1.529  -0.036  0.00  0.00    +0.190 A 
ATOM     21  N   LIG    1        0.119   0.220  -0.056  0.00  0.00    -0.470 NA
ATOM     22  C   LIG    1        1.433  -0.067  -0.080  0.00  0.00    +0.200 A 
ATOM     23  N   LIG    1        2.078   1.061  -0.073  0.00  0.00    -0.380 NA
ATOM     24  O   LIG    1        1.299   1.990  -0.048  0.00  0.00    +0.090 OA
BRANCH  22  25
ATOM     25  C   LIG    1        2.044  -1.444  -0.109  0.00  0.00    +0.060 C 
ATOM     26  C   LIG    1        3.560  -1.548   0.071  0.00  0.00    +0.050 C 
ATOM     27  C   LIG    1        2.934  -1.797  -1.302  0.00  0.00    +0.050 C 
ENDBRANCH  22  25
ENDBRANCH  19  20
ENDBRANCH   4  19
TORSDOF 5
