REMARK  Name = ZINCrD000000Bks6.0
REMARK                            x       y       z     vdW  Elec       q    Type
REMARK                         _______ _______ _______ _____ _____    ______ ____
ROOT
ATOM      1  O   LIG    1        0.383  -2.599  -0.625  0.00  0.00    -0.530 OA
ATOM      2  C   LIG    1        0.827  -1.799  -1.425  0.00  0.00    +0.560 C 
ATOM      3  N   LIG    1        0.688  -0.476  -1.203  0.00  0.00    -0.730 N 
ATOM      4  H   LIG    1        1.042   0.162  -1.842  0.00  0.00    +0.400 HD
ENDROOT
BRANCH   2   5
ATOM      5  C   LIG    1        1.519  -2.276  -2.642  0.00  0.00    -0.130 A 
ATOM      6  C   LIG    1        2.029  -1.358  -3.562  0.00  0.00    +0.050 A 
ATOM      7  C   LIG    1        2.676  -1.803  -4.697  0.00  0.00    +0.020 A 
ATOM      8  C   LIG    1        2.822  -3.156  -4.931  0.00  0.00    +0.050 A 
ATOM      9  C   LIG    1        2.316  -4.083  -4.019  0.00  0.00    -0.060 A 
ATOM     10  C   LIG    1        1.669  -3.642  -2.870  0.00  0.00    +0.100 A 
BRANCH   9  11
ATOM     11  C   LIG    1        2.475  -5.536  -4.272  0.00  0.00    -0.000 A 
ATOM     12  C   LIG    1        1.980  -6.480  -3.368  0.00  0.00    -0.030 A 
ATOM     13  C   LIG    1        2.145  -7.822  -3.644  0.00  0.00    +0.270 A 
ATOM     14  N   LIG    1        2.767  -8.217  -4.739  0.00  0.00    -0.490 NA
ATOM     15  C   LIG    1        3.253  -7.358  -5.615  0.00  0.00    +0.260 A 
ATOM     16  C   LIG    1        3.127  -5.998  -5.418  0.00  0.00    -0.030 A 
ENDBRANCH   9  11
ENDBRANCH   2   5
BRANCH   3  17
ATOM     17  C   LIG    1        0.002  -0.004   0.002  0.00  0.00    +0.250 C 
BRANCH  17  18
ATOM     18  C   LIG    1       -0.019   1.526   0.010  0.00  0.00    +0.130 C 
ATOM     19  C   LIG    1       -0.747   2.025   1.264  0.00  0.00    +0.060 C 
ATOM     20  C   LIG    1       -0.544   3.536   1.369  0.00  0.00    +0.090 C 
ATOM     21  C   LIG    1       -0.902   4.209   0.070  0.00  0.00    -0.060 A 
ATOM     22  C   LIG    1       -1.133   5.578   0.093  0.00  0.00    +0.000 A 
ATOM     23  C   LIG    1       -1.453   6.256  -1.065  0.00  0.00    +0.000 A 
ATOM     24  C   LIG    1       -1.544   5.567  -2.260  0.00  0.00    +0.000 A 
ATOM     25  C   LIG    1       -1.317   4.206  -2.285  0.00  0.00    +0.000 A 
ATOM     26  C   LIG    1       -0.997   3.522  -1.120  0.00  0.00    -0.080 A 
ATOM     27  C   LIG    1       -0.767   2.037  -1.219  0.00  0.00    +0.060 C 
BRANCH  18  28
ATOM     28  O   LIG    1        1.320   2.025   0.000  0.00  0.00    -0.540 OA
ATOM     29  H   LIG    1        1.836   1.753  -0.771  0.00  0.00    +0.370 HD
ENDBRANCH  18  28
ENDBRANCH  17  18
ENDBRANCH   3  17
TORSDOF 5
