REMARK  Name = ZINCrD000000fQ8s.0
REMARK                            x       y       z     vdW  Elec       q    Type
REMARK                         _______ _______ _______ _____ _____    ______ ____
ROOT
ATOM      1  N   LIG    1       -4.690   7.681   1.301  0.00  0.00    -0.680 N 
ATOM      2  H   LIG    1       -5.015   7.336   0.455  0.00  0.00    +0.410 HD
ATOM      3  C   LIG    1       -3.495   7.281   1.778  0.00  0.00    +0.730 C 
ATOM      4  N   LIG    1       -2.798   6.325   1.131  0.00  0.00    -0.630 N 
ATOM      5  C   LIG    1       -3.222   5.636  -0.102  0.00  0.00    +0.250 C 
ATOM      6  C   LIG    1       -1.907   5.138  -0.756  0.00  0.00    +0.090 C 
ATOM      7  C   LIG    1       -1.069   4.769   0.482  0.00  0.00    -0.070 C 
ATOM      8  C   LIG    1       -1.337   3.360   0.928  0.00  0.00    +0.540 C 
ATOM      9  N   LIG    1       -0.154   2.715   0.892  0.00  0.00    -0.660 N 
ATOM     10  H   LIG    1       -0.038   1.783   1.135  0.00  0.00    +0.420 HD
ATOM     11  C   LIG    1        0.885   3.543   0.459  0.00  0.00    +0.150 A 
ATOM     12  C   LIG    1        2.242   3.285   0.287  0.00  0.00    -0.010 A 
ATOM     13  C   LIG    1        3.087   4.283  -0.154  0.00  0.00    +0.050 A 
ATOM     14  C   LIG    1        2.595   5.546  -0.424  0.00  0.00    -0.010 A 
ATOM     15  C   LIG    1        1.249   5.813  -0.249  0.00  0.00    +0.070 A 
ATOM     16  O   LIG    1       -2.407   2.894   1.258  0.00  0.00    -0.480 OA
ATOM     17  C   LIG    1        0.401   4.822   0.191  0.00  0.00    -0.130 A 
ATOM     18  C   LIG    1       -1.485   5.795   1.540  0.00  0.00    +0.330 C 
ATOM     19  O   LIG    1       -3.045   7.782   2.790  0.00  0.00    -0.560 OA
ENDROOT
BRANCH   1  23
ATOM     20  C   LIG    1       -6.984  10.394   3.457  0.00  0.00    -0.200 A 
ATOM     21  C   LIG    1       -6.191   9.455   4.128  0.00  0.00    +0.090 A 
ATOM     22  C   LIG    1       -5.438   8.565   3.415  0.00  0.00    +0.000 A 
ATOM     23  C   LIG    1       -5.459   8.591   2.024  0.00  0.00    +0.210 A 
ATOM     24  C   LIG    1       -6.241   9.526   1.352  0.00  0.00    -0.040 A 
ATOM     25  C   LIG    1       -7.001  10.416   2.057  0.00  0.00    +0.000 A 
ATOM     26  C   LIG    1       -7.852  11.425   1.329  0.00  0.00    +0.110 C 
BRANCH  20  28
ATOM     27  C   LIG    1       -7.874  11.246   5.720  0.00  0.00    +0.070 C 
ATOM     28  C   LIG    1       -7.795  11.352   4.219  0.00  0.00    +0.390 C 
ATOM     29  O   LIG    1       -8.401  12.229   3.640  0.00  0.00    -0.460 OA
ENDBRANCH  20  28
ENDBRANCH   1  23
TORSDOF 2
