REMARK  Name = ZINCvU0000000CPP.0
REMARK                            x       y       z     vdW  Elec       q    Type
REMARK                         _______ _______ _______ _____ _____    ______ ____
ROOT
ATOM      1  C   LIG    1        0.132   6.390   4.021  0.00  0.00    +0.190 C 
ATOM      2  C   LIG    1        0.587   5.242   4.883  0.00  0.00    +0.150 A 
ATOM      3  N   LIG    1        1.085   5.328   6.080  0.00  0.00    -0.270 NA
ATOM      4  O   LIG    1        1.393   4.036   6.563  0.00  0.00    -0.080 OA
ATOM      5  C   LIG    1        1.072   3.119   5.628  0.00  0.00    +0.310 A 
ATOM      6  N   LIG    1        1.162   1.800   5.589  0.00  0.00    -0.460 NA
ATOM      7  C   LIG    1        0.774   1.101   4.534  0.00  0.00    +0.250 A 
ATOM      8  C   LIG    1        0.240   1.726   3.404  0.00  0.00    -0.010 A 
ATOM      9  C   LIG    1        0.127   3.113   3.386  0.00  0.00    +0.010 A 
ATOM     10  C   LIG    1        0.551   3.824   4.527  0.00  0.00    -0.210 A 
ENDROOT
BRANCH   9  11
ATOM     11  C   LIG    1       -0.426   3.819   2.209  0.00  0.00    +0.560 C 
ATOM     12  N   LIG    1        0.103   3.610   0.988  0.00  0.00    -0.600 N 
ATOM     13  C   LIG    1        1.306   2.782   0.825  0.00  0.00    +0.260 C 
ATOM     14  C   LIG    1        2.355   3.583   0.048  0.00  0.00    +0.010 C 
ATOM     15  C   LIG    1        1.746   4.073  -1.268  0.00  0.00    +0.020 C 
ATOM     16  C   LIG    1        0.559   4.992  -0.971  0.00  0.00    -0.020 C 
ATOM     17  C   LIG    1       -0.511   4.206  -0.207  0.00  0.00    +0.280 C 
ATOM     18  O   LIG    1       -1.359   4.587   2.344  0.00  0.00    -0.510 OA
BRANCH  16  19
ATOM     19  C   LIG    1       -0.029   5.507  -2.287  0.00  0.00    -0.020 C 
ATOM     20  C   LIG    1        1.041   6.288  -3.052  0.00  0.00    +0.020 C 
ATOM     21  C   LIG    1       -1.216   6.425  -1.990  0.00  0.00    +0.030 C 
ENDBRANCH  16  19
ENDBRANCH   9  11
BRANCH   7  22
ATOM     22  C   LIG    1        0.902  -0.376   4.554  0.00  0.00    -0.060 A 
ATOM     23  C   LIG    1        0.597  -1.120   3.416  0.00  0.00    +0.080 A 
ATOM     24  C   LIG    1        0.719  -2.495   3.441  0.00  0.00    +0.030 A 
ATOM     25  C   LIG    1        1.142  -3.134   4.592  0.00  0.00    +0.100 A 
ATOM     26  C   LIG    1        1.446  -2.400   5.725  0.00  0.00    -0.190 A 
ATOM     27  C   LIG    1        1.334  -1.025   5.710  0.00  0.00    +0.130 A 
BRANCH  26  28
ATOM     28  C   LIG    1        1.907  -3.103   6.975  0.00  0.00    +0.510 C 
ATOM     29  F   LIG    1        1.016  -2.830   8.019  0.00  0.00    -0.170 F 
ATOM     30  F   LIG    1        3.184  -2.651   7.321  0.00  0.00    -0.170 F 
ATOM     31  F   LIG    1        1.947  -4.483   6.746  0.00  0.00    -0.180 F 
ENDBRANCH  26  28
ENDBRANCH   7  22
TORSDOF 4
