REMARK  Name = ZINCvU000000094S.0
REMARK                            x       y       z     vdW  Elec       q    Type
REMARK                         _______ _______ _______ _____ _____    ______ ____
ROOT
ATOM      1  N   LIG    1        3.577   7.738   0.782  0.00  0.00    -0.450 N 
ATOM      2  C   LIG    1        2.748   6.704   0.451  0.00  0.00    +0.140 A 
ATOM      3  N   LIG    1        1.531   7.053   0.802  0.00  0.00    -0.290 NA
ATOM      4  N   LIG    1        1.541   8.229   1.321  0.00  0.00    -0.270 NA
ATOM      5  C   LIG    1        2.765   8.703   1.333  0.00  0.00    +0.230 A 
ENDROOT
BRANCH   5   6
ATOM      6  C   LIG    1        3.193  10.021   1.848  0.00  0.00    -0.030 A 
ATOM      7  C   LIG    1        2.359  10.743   2.704  0.00  0.00    +0.070 A 
ATOM      8  C   LIG    1        2.766  11.970   3.186  0.00  0.00    +0.020 A 
ATOM      9  C   LIG    1        3.993  12.491   2.813  0.00  0.00    -0.050 A 
ATOM     10  C   LIG    1        4.821  11.783   1.960  0.00  0.00    +0.020 A 
ATOM     11  C   LIG    1        4.429  10.552   1.476  0.00  0.00    +0.010 A 
BRANCH   9  12
ATOM     12  C   LIG    1        4.428  13.834   3.337  0.00  0.00    -0.030 C 
ATOM     13  C   LIG    1        5.728  13.676   4.129  0.00  0.00    +0.040 C 
ATOM     14  C   LIG    1        3.340  14.402   4.252  0.00  0.00    +0.030 C 
ATOM     15  C   LIG    1        4.658  14.790   2.165  0.00  0.00    +0.040 C 
ENDBRANCH   9  12
ENDBRANCH   5   6
BRANCH   1  17
ATOM     16  C   LIG    1        5.330   8.410  -0.786  0.00  0.00    +0.050 C 
ATOM     17  C   LIG    1        5.027   7.807   0.587  0.00  0.00    +0.300 C 
ENDBRANCH   1  17
BRANCH   2  18
ATOM     18  S   LIG    1        3.224   5.183  -0.299  0.00  0.00    +0.090 S 
BRANCH  18  19
ATOM     19  C   LIG    1        1.612   4.366  -0.402  0.00  0.00    +0.110 C 
BRANCH  19  20
ATOM     20  C   LIG    1        1.777   3.006  -1.031  0.00  0.00    +0.540 C 
ATOM     21  N   LIG    1        0.723   2.171  -1.117  0.00  0.00    -0.540 N 
ATOM     22  O   LIG    1        2.859   2.663  -1.460  0.00  0.00    -0.500 OA
BRANCH  21  23
ATOM     23  C   LIG    1        0.897   0.873  -1.611  0.00  0.00    +0.150 A 
ATOM     24  C   LIG    1       -0.149  -0.039  -1.552  0.00  0.00    -0.030 A 
ATOM     25  C   LIG    1        0.025  -1.318  -2.046  0.00  0.00    +0.030 A 
ATOM     26  C   LIG    1        1.240  -1.692  -2.587  0.00  0.00    -0.020 A 
ATOM     27  C   LIG    1        2.285  -0.788  -2.642  0.00  0.00    +0.020 A 
ATOM     28  C   LIG    1        2.116   0.494  -2.155  0.00  0.00    +0.010 A 
ENDBRANCH  21  23
BRANCH  21  29
ATOM     29  C   LIG    1       -0.606   2.623  -0.698  0.00  0.00    +0.220 C 
ATOM     30  C   LIG    1       -1.051   1.831   0.533  0.00  0.00    +0.040 C 
ATOM     31  C   LIG    1       -1.603   2.399  -1.837  0.00  0.00    +0.040 C 
ENDBRANCH  21  29
ENDBRANCH  19  20
ENDBRANCH  18  19
ENDBRANCH   2  18
TORSDOF 8
