REMARK  Name = ZINCrg00000bvC7m.0
REMARK                            x       y       z     vdW  Elec       q    Type
REMARK                         _______ _______ _______ _____ _____    ______ ____
ROOT
ATOM      1  C   LIG    1       -3.084   1.790   5.957  0.00  0.00    +0.520 C 
ATOM      2  N   LIG    1       -3.638   1.724   4.730  0.00  0.00    -0.610 N 
ATOM      3  C   LIG    1       -5.044   2.097   4.523  0.00  0.00    +0.260 C 
ATOM      4  C   LIG    1       -5.117   3.146   3.409  0.00  0.00    +0.030 C 
ATOM      5  C   LIG    1       -4.418   2.606   2.159  0.00  0.00    -0.020 C 
ATOM      6  C   LIG    1       -2.945   2.335   2.472  0.00  0.00    +0.240 C 
ATOM      7  C   LIG    1       -4.519   3.638   1.034  0.00  0.00    +0.030 C 
ATOM      8  C   LIG    1       -2.848   1.277   3.575  0.00  0.00    +0.270 C 
ATOM      9  O   LIG    1       -1.946   1.407   6.130  0.00  0.00    -0.500 OA
ENDROOT
BRANCH   6  10
ATOM     10  N   LIG    1       -2.271   1.848   1.266  0.00  0.00    -0.720 N 
ATOM     11  H   LIG    1       -2.781   1.407   0.570  0.00  0.00    +0.400 HD
ATOM     12  C   LIG    1       -0.941   2.014   1.124  0.00  0.00    +0.510 C 
ATOM     13  O   LIG    1       -0.302   2.566   1.995  0.00  0.00    -0.520 OA
BRANCH  12  14
ATOM     14  C   LIG    1       -0.247   1.513  -0.116  0.00  0.00    +0.230 C 
ATOM     15  C   LIG    1        0.004  -0.008  -0.011  0.00  0.00    +0.070 C 
ATOM     16  C   LIG    1        1.367  -0.152  -0.726  0.00  0.00    +0.060 C 
ATOM     17  C   LIG    1        2.008   1.210  -0.582  0.00  0.00    +0.520 C 
ATOM     18  O   LIG    1        3.185   1.446  -0.755  0.00  0.00    -0.520 OA
ATOM     19  N   LIG    1        1.083   2.122  -0.235  0.00  0.00    -0.710 N 
ATOM     20  H   LIG    1        1.271   3.061  -0.083  0.00  0.00    +0.420 HD
ENDBRANCH  12  14
ENDBRANCH   6  10
BRANCH   1  22
ATOM     21  C   LIG    1       -4.112   3.838   6.905  0.00  0.00    +0.060 C 
ATOM     22  C   LIG    1       -3.877   2.340   7.114  0.00  0.00    +0.170 C 
BRANCH  22  23
ATOM     23  O   LIG    1       -3.153   2.136   8.329  0.00  0.00    -0.280 OA
BRANCH  23  24
ATOM     24  C   LIG    1       -3.874   2.115   9.480  0.00  0.00    +0.130 A 
ATOM     25  C   LIG    1       -3.228   1.986  10.702  0.00  0.00    -0.020 A 
ATOM     26  C   LIG    1       -3.962   1.970  11.872  0.00  0.00    +0.050 A 
ATOM     27  C   LIG    1       -5.340   2.072  11.826  0.00  0.00    -0.030 A 
ATOM     28  C   LIG    1       -5.987   2.196  10.610  0.00  0.00    +0.050 A 
ATOM     29  C   LIG    1       -5.256   2.217   9.437  0.00  0.00    -0.080 A 
ENDBRANCH  23  24
ENDBRANCH  22  23
ENDBRANCH   1  22
TORSDOF 5
