REMARK  Name = ZINCbw0000000Hbx.0
REMARK                            x       y       z     vdW  Elec       q    Type
REMARK                         _______ _______ _______ _____ _____    ______ ____
ROOT
ATOM      1  C   LIG    1        0.046   1.820   2.478  0.00  0.00    -0.180 A 
ATOM      2  C   LIG    1        1.428   1.601   2.504  0.00  0.00    +0.120 A 
ATOM      3  C   LIG    1        2.139   1.841   3.659  0.00  0.00    -0.010 A 
ATOM      4  C   LIG    1        1.487   2.288   4.799  0.00  0.00    +0.150 A 
ATOM      5  C   LIG    1        0.117   2.503   4.784  0.00  0.00    -0.010 A 
ATOM      6  F   LIG    1        2.191   2.516   5.929  0.00  0.00    -0.120 F 
ATOM      7  C   LIG    1       -0.607   2.272   3.633  0.00  0.00    +0.040 A 
ATOM      8 CL   LIG    1       -2.322   2.541   3.615  0.00  0.00    -0.020 Cl
ENDROOT
BRANCH   1  10
ATOM      9  C   LIG    1       -0.013   1.086   0.008  0.00  0.00    +0.080 C 
ATOM     10  C   LIG    1       -0.718   1.572   1.248  0.00  0.00    +0.390 C 
ATOM     11  O   LIG    1       -1.916   1.758   1.230  0.00  0.00    -0.430 OA
ENDBRANCH   1  10
TORSDOF 1
