REMARK  Name = ZINCpe000000SQcQ.0
REMARK                            x       y       z     vdW  Elec       q    Type
REMARK                         _______ _______ _______ _____ _____    ______ ____
ROOT
ATOM      1  N   LIG    1        2.778   8.107   0.299  0.00  0.00    -0.710 N 
ATOM      2  H   LIG    1        1.899   8.507   0.201  0.00  0.00    +0.410 HD
ATOM      3  C   LIG    1        2.893   6.800   0.607  0.00  0.00    +0.530 C 
ATOM      4  O   LIG    1        3.991   6.300   0.730  0.00  0.00    -0.530 OA
ENDROOT
BRANCH   1   5
ATOM      5  C   LIG    1        3.979   8.924   0.113  0.00  0.00    +0.280 C 
BRANCH   5   7
ATOM      6  C   LIG    1        2.922  10.925   1.172  0.00  0.00    +0.060 C 
ATOM      7  C   LIG    1        3.575  10.384  -0.102  0.00  0.00    +0.090 C 
ATOM      8  C   LIG    1        4.818  11.214  -0.430  0.00  0.00    +0.020 C 
BRANCH   7   9
ATOM      9  N   LIG    1        2.621  10.469  -1.215  0.00  0.00    -0.530 NA
ATOM     10  C   LIG    1        3.196   9.908  -2.446  0.00  0.00    +0.150 C 
ATOM     11  C   LIG    1        2.150   9.962  -3.563  0.00  0.00    +0.220 C 
ATOM     12  O   LIG    1        1.714  11.313  -3.736  0.00  0.00    -0.380 OA
ATOM     13  C   LIG    1        1.148  11.891  -2.557  0.00  0.00    +0.220 C 
ATOM     14  C   LIG    1        2.184  11.857  -1.430  0.00  0.00    +0.150 C 
ENDBRANCH   7   9
ENDBRANCH   5   7
ENDBRANCH   1   5
BRANCH   3  15
ATOM     15  C   LIG    1        1.657   5.959   0.799  0.00  0.00    +0.110 C 
BRANCH  15  16
ATOM     16  S   LIG    1        2.138   4.261   1.201  0.00  0.00    +0.080 S 
BRANCH  16  17
ATOM     17  C   LIG    1        0.547   3.523   1.367  0.00  0.00    +0.380 A 
ATOM     18  N   LIG    1       -0.531   4.261   1.189  0.00  0.00    -0.590 NA
ATOM     19  C   LIG    1       -1.753   3.725   1.309  0.00  0.00    +0.510 A 
ATOM     20  C   LIG    1       -1.886   2.349   1.626  0.00  0.00    -0.120 A 
ATOM     21  C   LIG    1       -0.771   1.610   1.811  0.00  0.00    +0.310 A 
ATOM     22  O   LIG    1       -2.747   4.417   1.142  0.00  0.00    -0.510 OA
ATOM     23  N   LIG    1        0.452   2.202   1.677  0.00  0.00    -0.460 N 
BRANCH  23  24
ATOM     24  C   LIG    1        1.669   1.410   1.869  0.00  0.00    +0.180 C 
ATOM     25  C   LIG    1        1.510  -0.105   2.012  0.00  0.00    +0.060 C 
ATOM     26  C   LIG    1        1.872   0.745   3.232  0.00  0.00    +0.060 C 
ENDBRANCH  23  24
ENDBRANCH  16  17
ENDBRANCH  15  16
ENDBRANCH   3  15
TORSDOF 7
