REMARK  Name = ZINCpe00000MJJrH.0
REMARK                            x       y       z     vdW  Elec       q    Type
REMARK                         _______ _______ _______ _____ _____    ______ ____
ROOT
ATOM      1  C   LIG    1       -0.127  -0.159  -0.700  0.00  0.00    +0.180 C 
ATOM      2  C   LIG    1       -0.289   1.012  -1.369  0.00  0.00    -0.120 C 
ATOM      3  C   LIG    1        1.010   1.345  -1.962  0.00  0.00    +0.570 C 
ATOM      4  N   LIG    1        1.894   0.386  -1.639  0.00  0.00    -0.570 N 
ATOM      5  O   LIG    1        1.248   2.328  -2.635  0.00  0.00    -0.470 OA
ATOM      6  C   LIG    1        1.296  -0.553  -0.885  0.00  0.00    +0.570 C 
ATOM      7  O   LIG    1        1.824  -1.548  -0.433  0.00  0.00    -0.450 OA
ENDROOT
BRANCH   4   8
ATOM      8  C   LIG    1        3.301   0.366  -2.048  0.00  0.00    +0.280 C 
ATOM      9  C   LIG    1        3.390   0.357  -3.578  0.00  0.00    +0.070 C 
ATOM     10  C   LIG    1        4.864   0.450  -3.982  0.00  0.00    +0.110 C 
ATOM     11  C   LIG    1        5.475   1.673  -3.349  0.00  0.00    +0.520 C 
ATOM     12  N   LIG    1        5.018   2.155  -2.183  0.00  0.00    -0.670 N 
ATOM     13  H   LIG    1        5.443   2.940  -1.805  0.00  0.00    +0.420 HD
ATOM     14  O   LIG    1        6.396   2.232  -3.903  0.00  0.00    -0.490 OA
ATOM     15  C   LIG    1        3.996   1.594  -1.520  0.00  0.00    +0.520 C 
ATOM     16  O   LIG    1        3.624   2.084  -0.476  0.00  0.00    -0.480 OA
ENDBRANCH   4   8
BRANCH   1  17
ATOM     17  N   LIG    1       -1.089  -0.844   0.007  0.00  0.00    -0.530 N 
BRANCH  17  18
ATOM     18  C   LIG    1       -2.376  -0.317   0.128  0.00  0.00    +0.130 A 
ATOM     19  C   LIG    1       -2.693   0.504   1.203  0.00  0.00    +0.020 A 
ATOM     20  C   LIG    1       -3.966   1.028   1.316  0.00  0.00    +0.020 A 
ATOM     21  C   LIG    1       -4.926   0.728   0.367  0.00  0.00    +0.020 A 
ATOM     22  C   LIG    1       -4.615  -0.093  -0.701  0.00  0.00    -0.080 A 
ATOM     23  C   LIG    1       -5.665  -0.418  -1.732  0.00  0.00    +0.090 C 
ATOM     24  C   LIG    1       -3.343  -0.617  -0.824  0.00  0.00    +0.020 A 
ENDBRANCH  17  18
BRANCH  17  26
ATOM     25  C   LIG    1       -0.253  -1.886   2.056  0.00  0.00    +0.020 C 
ATOM     26  C   LIG    1       -0.762  -2.128   0.634  0.00  0.00    +0.300 C 
ENDBRANCH  17  26
ENDBRANCH   1  17
TORSDOF 4
