REMARK  Name = ZINCpk00000KfLIa.0
REMARK                            x       y       z     vdW  Elec       q    Type
REMARK                         _______ _______ _______ _____ _____    ______ ____
ROOT
ATOM      1  O   LIG    1        6.217   3.022   4.435  0.00  0.00    -0.530 OA
ATOM      2  C   LIG    1        5.511   3.185   3.459  0.00  0.00    +0.710 C 
ATOM      3  N   LIG    1        5.801   4.030   2.461  0.00  0.00    -0.680 N 
ATOM      4  H   LIG    1        6.597   4.583   2.429  0.00  0.00    +0.440 HD
ATOM      5  C   LIG    1        4.847   4.014   1.503  0.00  0.00    +0.540 C 
ATOM      6  C   LIG    1        3.828   3.019   1.983  0.00  0.00    +0.100 C 
ATOM      7  C   LIG    1        3.636   1.873   0.973  0.00  0.00    +0.090 C 
ATOM      8  C   LIG    1        2.200   1.394   1.323  0.00  0.00    +0.280 C 
ATOM      9  N   LIG    1        1.466   2.625   1.675  0.00  0.00    -0.620 N 
ATOM     10  C   LIG    1        0.131   2.790   1.607  0.00  0.00    +0.550 C 
ATOM     11  O   LIG    1       -0.359   3.873   1.847  0.00  0.00    -0.520 OA
ATOM     12  C   LIG    1        2.436   3.641   2.120  0.00  0.00    +0.310 C 
ATOM     13  O   LIG    1        4.819   4.662   0.479  0.00  0.00    -0.450 OA
ATOM     14  N   LIG    1        4.346   2.534   3.259  0.00  0.00    -0.710 N 
ATOM     15  H   LIG    1        3.935   1.878   3.844  0.00  0.00    +0.440 HD
ENDROOT
BRANCH  10  16
ATOM     16  C   LIG    1       -0.754   1.629   1.232  0.00  0.00    -0.040 C 
ATOM     17  C   LIG    1       -0.448   1.175  -0.210  0.00  0.00    +0.050 C 
ATOM     18  C   LIG    1       -1.502   1.909  -1.075  0.00  0.00    +0.020 C 
ATOM     19  C   LIG    1       -2.769   1.859  -0.185  0.00  0.00    +0.020 C 
ATOM     20  C   LIG    1       -2.233   2.064   1.247  0.00  0.00    +0.050 C 
BRANCH  16  21
ATOM     21  C   LIG    1       -0.539   0.485   2.190  0.00  0.00    -0.040 A 
ATOM     22  C   LIG    1        0.264   0.657   3.301  0.00  0.00    -0.010 A 
ATOM     23  C   LIG    1        0.462  -0.392   4.181  0.00  0.00    +0.050 A 
ATOM     24  C   LIG    1       -0.144  -1.612   3.950  0.00  0.00    -0.010 A 
ATOM     25  C   LIG    1       -0.949  -1.785   2.836  0.00  0.00    +0.110 A 
ATOM     26  F   LIG    1       -1.542  -2.977   2.609  0.00  0.00    -0.140 F 
ATOM     27  C   LIG    1       -1.150  -0.733   1.959  0.00  0.00    +0.000 A 
ENDBRANCH  16  21
ENDBRANCH  10  16
TORSDOF 2
