REMARK  Name = ZINCpe000000SAIG.0
REMARK                            x       y       z     vdW  Elec       q    Type
REMARK                         _______ _______ _______ _____ _____    ______ ____
ROOT
ATOM      1  N   LIG    1        0.002  -0.004   0.002  0.00  0.00    -0.640 NA
ATOM      2  C   LIG    1       -0.016   1.331   0.009  0.00  0.00    +0.480 A 
ATOM      3  C   LIG    1       -1.161   2.143   0.018  0.00  0.00    -0.070 A 
ATOM      4  C   LIG    1       -0.750   3.457   0.026  0.00  0.00    +0.240 A 
ATOM      5  N   LIG    1        0.623   3.480   0.014  0.00  0.00    -0.480 N 
ATOM      6  H   LIG    1        1.179   4.275   0.013  0.00  0.00    +0.450 HD
ATOM      7  N   LIG    1        1.082   2.156   0.003  0.00  0.00    -0.470 N 
ATOM      8  H   LIG    1        2.010   1.873  -0.007  0.00  0.00    +0.460 HD
ENDROOT
BRANCH   4   9
ATOM      9  C   LIG    1       -1.635   4.639   0.041  0.00  0.00    -0.050 A 
ATOM     10  C   LIG    1       -3.022   4.477   0.048  0.00  0.00    +0.060 A 
ATOM     11  C   LIG    1       -3.842   5.586   0.068  0.00  0.00    -0.080 A 
ATOM     12  C   LIG    1       -3.294   6.856   0.069  0.00  0.00    +0.030 A 
ATOM     13  C   LIG    1       -1.920   7.024   0.056  0.00  0.00    -0.080 A 
ATOM     14  C   LIG    1       -1.332   8.412   0.058  0.00  0.00    +0.100 C 
ATOM     15  C   LIG    1       -5.339   5.413   0.082  0.00  0.00    +0.100 C 
ATOM     16  C   LIG    1       -1.088   5.924   0.043  0.00  0.00    +0.010 A 
ENDBRANCH   4   9
BRANCH   1  17
ATOM     17  C   LIG    1        1.161  -0.652  -0.012  0.00  0.00    +0.480 C 
ATOM     18  O   LIG    1        2.206  -0.030  -0.018  0.00  0.00    -0.610 OA
BRANCH  17  19
ATOM     19  C   LIG    1        1.182  -2.159  -0.020  0.00  0.00    +0.320 C 
BRANCH  19  21
ATOM     20  C   LIG    1        2.833  -3.950  -0.045  0.00  0.00    +0.510 C 
ATOM     21  N   LIG    1        2.569  -2.629  -0.035  0.00  0.00    -0.720 N 
ATOM     22  H   LIG    1        3.298  -1.988  -0.039  0.00  0.00    +0.410 HD
ATOM     23  O   LIG    1        1.923  -4.751  -0.041  0.00  0.00    -0.540 OA
BRANCH  20  24
ATOM     24  C   LIG    1        4.261  -4.433  -0.061  0.00  0.00    +0.300 C 
BRANCH  24  27
ATOM     25  C   LIG    1        5.477  -8.063  -0.091  0.00  0.00    +0.100 C 
ATOM     26  C   LIG    1        5.457  -6.556  -0.083  0.00  0.00    +0.510 C 
ATOM     27  N   LIG    1        4.281  -5.898  -0.069  0.00  0.00    -0.720 N 
ATOM     28  H   LIG    1        3.447  -6.394  -0.064  0.00  0.00    +0.410 HD
ATOM     29  O   LIG    1        6.499  -5.935  -0.089  0.00  0.00    -0.550 OA
ENDBRANCH  24  27
ENDBRANCH  20  24
ENDBRANCH  19  21
ENDBRANCH  17  19
ENDBRANCH   1  17
TORSDOF 6
