REMARK  Name = ZINCtV00000L6kGx.0
REMARK                            x       y       z     vdW  Elec       q    Type
REMARK                         _______ _______ _______ _____ _____    ______ ____
ROOT
ATOM      1  C   LIG    1       -3.049   1.712   0.594  0.00  0.00    -0.130 A 
ATOM      2  C   LIG    1       -2.788   0.368   0.877  0.00  0.00    +0.050 A 
ATOM      3  C   LIG    1       -3.817  -0.547   0.869  0.00  0.00    +0.010 A 
ATOM      4  C   LIG    1       -5.112  -0.137   0.568  0.00  0.00    +0.140 A 
ATOM      5  C   LIG    1       -5.374   1.199   0.281  0.00  0.00    +0.080 A 
ATOM      6  C   LIG    1       -4.351   2.120   0.292  0.00  0.00    +0.090 A 
ENDROOT
BRANCH   1   9
ATOM      7  N   LIG    1       -0.694   2.301   0.897  0.00  0.00    -0.670 N 
ATOM      8  H   LIG    1       -0.502   1.361   1.036  0.00  0.00    +0.410 HD
ATOM      9  C   LIG    1       -1.950   2.696   0.606  0.00  0.00    +0.560 C 
ATOM     10  O   LIG    1       -2.176   3.864   0.354  0.00  0.00    -0.510 OA
BRANCH   7  14
ATOM     11  C   LIG    1        2.365   5.120   1.182  0.00  0.00    +0.120 A 
ATOM     12  C   LIG    1        2.361   4.014   2.019  0.00  0.00    +0.010 A 
ATOM     13  C   LIG    1        1.348   3.080   1.926  0.00  0.00    +0.030 A 
ATOM     14  C   LIG    1        0.333   3.248   0.993  0.00  0.00    +0.100 A 
ATOM     15  C   LIG    1        0.341   4.352   0.150  0.00  0.00    +0.060 A 
ATOM     16  C   LIG    1        1.352   5.288   0.249  0.00  0.00    -0.060 A 
BRANCH  11  18
ATOM     17  C   LIG    1        3.304   7.152   0.381  0.00  0.00    +0.250 C 
ATOM     18  O   LIG    1        3.363   6.038   1.274  0.00  0.00    -0.320 OA
ENDBRANCH  11  18
ENDBRANCH   7  14
ENDBRANCH   1   9
BRANCH   4  19
ATOM     19  N   LIG    1       -6.150  -1.067   0.555  0.00  0.00    -0.620 N 
ATOM     20  H   LIG    1       -6.228  -1.717   1.270  0.00  0.00    +0.410 HD
BRANCH  19  21
ATOM     21  C   LIG    1       -7.045  -1.064  -0.453  0.00  0.00    +0.550 C 
ATOM     22  S   LIG    1       -6.968   0.146  -1.662  0.00  0.00    -0.570 S 
BRANCH  21  23
ATOM     23  N   LIG    1       -8.001  -2.013  -0.509  0.00  0.00    -0.630 N 
ATOM     24  H   LIG    1       -8.093  -2.651   0.216  0.00  0.00    +0.410 HD
BRANCH  23  25
ATOM     25  C   LIG    1       -8.860  -2.077  -1.612  0.00  0.00    +0.140 A 
ATOM     26  C   LIG    1       -8.344  -2.022  -2.899  0.00  0.00    +0.100 A 
ATOM     27  C   LIG    1       -9.193  -2.090  -3.987  0.00  0.00    +0.060 A 
ATOM     28  C   LIG    1      -10.558  -2.203  -3.794  0.00  0.00    -0.010 A 
ATOM     29  C   LIG    1      -11.077  -2.252  -2.512  0.00  0.00    +0.050 A 
ATOM     30 CL   LIG    1      -11.623  -2.281  -5.163  0.00  0.00    -0.050 Cl
ATOM     31  C   LIG    1      -10.232  -2.190  -1.421  0.00  0.00    -0.030 A 
ATOM     32 CL   LIG    1      -10.883  -2.252   0.188  0.00  0.00    -0.050 Cl
ENDBRANCH  23  25
ENDBRANCH  21  23
ENDBRANCH  19  21
ENDBRANCH   4  19
TORSDOF 7
