REMARK  Name = ZINCrg00000fS4wF.0
REMARK                            x       y       z     vdW  Elec       q    Type
REMARK                         _______ _______ _______ _____ _____    ______ ____
ROOT
ATOM      1  O   LIG    1        5.300  -1.605  -1.718  0.00  0.00    -0.330 OA
ENDROOT
BRANCH   1   2
ATOM      2  C   LIG    1        4.144  -0.973  -1.459  0.00  0.00    +0.460 C 
ATOM      3  O   LIG    1        3.403  -0.673  -2.365  0.00  0.00    -0.490 OA
BRANCH   2   4
ATOM      4  C   LIG    1        3.771  -0.637  -0.038  0.00  0.00    +0.170 C 
BRANCH   4   5
ATOM      5  C   LIG    1        2.438   0.065  -0.021  0.00  0.00    -0.070 A 
ATOM      6  C   LIG    1        2.380   1.424  -0.013  0.00  0.00    +0.030 A 
ATOM      7  C   LIG    1        1.156   2.091   0.002  0.00  0.00    +0.010 A 
ATOM      8  C   LIG    1       -0.017   1.401   0.010  0.00  0.00    +0.030 A 
ATOM      9  C   LIG    1        0.002  -0.004   0.002  0.00  0.00    -0.050 A 
ATOM     10  C   LIG    1       -1.188  -0.750   0.010  0.00  0.00    +0.030 A 
ATOM     11  C   LIG    1       -1.131  -2.110   0.003  0.00  0.00    +0.000 A 
ATOM     12  C   LIG    1        0.093  -2.776  -0.013  0.00  0.00    +0.010 A 
ATOM     13  C   LIG    1        1.266  -2.087  -0.021  0.00  0.00    +0.010 A 
ATOM     14  C   LIG    1        1.247  -0.682  -0.013  0.00  0.00    -0.030 A 
ENDBRANCH   4   5
ENDBRANCH   2   4
ENDBRANCH   1   2
BRANCH   1  15
ATOM     15  C   LIG    1        5.594  -1.896  -3.110  0.00  0.00    +0.250 C 
BRANCH  15  21
ATOM     16  N   LIG    1        8.833  -2.597  -6.708  0.00  0.00    -1.000 NA
ATOM     17  C   LIG    1        9.592  -2.875  -5.481  0.00  0.00    +0.300 C 
ATOM     18  C   LIG    1        8.696  -3.663  -4.517  0.00  0.00    +0.290 C 
ATOM     19  N   LIG    1        7.403  -2.973  -4.409  0.00  0.00    -0.610 N 
ATOM     20  C   LIG    1        6.641  -2.700  -5.635  0.00  0.00    +0.260 C 
ATOM     21  C   LIG    1        6.922  -2.602  -3.206  0.00  0.00    +0.520 C 
ATOM     22  O   LIG    1        7.558  -2.837  -2.200  0.00  0.00    -0.510 OA
ATOM     23  C   LIG    1        7.540  -1.907  -6.599  0.00  0.00    +0.290 C 
BRANCH  16  25
ATOM     24  C   LIG    1        8.773  -4.727  -8.438  0.00  0.00    -0.280 C 
ATOM     25  S   LIG    1        9.424  -3.053  -8.186  0.00  0.00    +2.610 S 
ATOM     26  O   LIG    1       10.833  -3.088  -8.005  0.00  0.00    -0.950 OA
ATOM     27  O   LIG    1        8.825  -2.142  -9.098  0.00  0.00    -0.950 OA
ENDBRANCH  16  25
ENDBRANCH  15  21
ENDBRANCH   1  15
TORSDOF 6
