REMARK  Name = ZINCtV00000L6kvO.0
REMARK                            x       y       z     vdW  Elec       q    Type
REMARK                         _______ _______ _______ _____ _____    ______ ____
ROOT
ATOM      1  C   LIG    1        4.462  -5.932  -0.148  0.00  0.00    -0.130 A 
ATOM      2  C   LIG    1        3.371  -6.797  -0.022  0.00  0.00    +0.090 A 
ATOM      3  C   LIG    1        3.579  -8.156   0.072  0.00  0.00    +0.010 A 
ATOM      4  C   LIG    1        4.865  -8.671   0.043  0.00  0.00    +0.070 A 
ATOM      5  C   LIG    1        5.952  -7.831  -0.082  0.00  0.00    +0.010 A 
ATOM      6  C   LIG    1        5.764  -6.459  -0.184  0.00  0.00    +0.210 A 
ENDROOT
BRANCH   1   7
ATOM      7  C   LIG    1        4.247  -4.479  -0.249  0.00  0.00    +0.510 C 
ATOM      8  O   LIG    1        5.188  -3.739  -0.459  0.00  0.00    -0.480 OA
BRANCH   7   9
ATOM      9  O   LIG    1        3.007  -3.969  -0.109  0.00  0.00    -0.330 OA
BRANCH   9  10
ATOM     10  C   LIG    1        2.870  -2.528  -0.220  0.00  0.00    +0.240 C 
BRANCH  10  12
ATOM     11  O   LIG    1        0.590  -3.004   0.168  0.00  0.00    -0.420 OA
ATOM     12  C   LIG    1        1.424  -2.145  -0.037  0.00  0.00    +0.430 C 
BRANCH  12  13
ATOM     13  C   LIG    1        1.040  -0.789  -0.103  0.00  0.00    -0.310 A 
ATOM     14  C   LIG    1       -0.240  -0.316   0.046  0.00  0.00    +0.150 A 
ATOM     15  C   LIG    1       -0.329   1.048  -0.064  0.00  0.00    +0.020 A 
ATOM     16  C   LIG    1        0.833   1.678  -0.297  0.00  0.00    -0.150 A 
ATOM     17 CL   LIG    1        1.000   3.396  -0.479  0.00  0.00    +0.000 Cl
ATOM     18  S   LIG    1        2.123   0.566  -0.390  0.00  0.00    +0.280 S 
ENDBRANCH  12  13
ENDBRANCH  10  12
ENDBRANCH   9  10
ENDBRANCH   7   9
ENDBRANCH   1   7
BRANCH   6  19
ATOM     19  N   LIG    1        6.856  -5.612  -0.315  0.00  0.00    -0.690 N 
ATOM     20  H   LIG    1        7.269  -5.483  -1.183  0.00  0.00    +0.410 HD
BRANCH  19  21
ATOM     21  C   LIG    1        7.361  -4.943   0.807  0.00  0.00    +0.240 A 
ATOM     22  C   LIG    1        6.792  -5.154   2.056  0.00  0.00    -0.050 A 
ATOM     23  C   LIG    1        7.293  -4.498   3.163  0.00  0.00    +0.060 A 
ATOM     24  C   LIG    1        8.360  -3.619   3.025  0.00  0.00    -0.150 A 
ATOM     25  C   LIG    1        8.926  -3.404   1.775  0.00  0.00    +0.090 A 
ATOM     26  C   LIG    1        8.428  -4.064   0.669  0.00  0.00    -0.030 A 
BRANCH  24  27
ATOM     27  S   LIG    1        8.996  -2.777   4.436  0.00  0.00    -0.100 S 
BRANCH  27  28
ATOM     28  C   LIG    1        7.944  -3.386   5.783  0.00  0.00    +0.430 C 
ATOM     29  F   LIG    1        8.072  -4.775   5.883  0.00  0.00    -0.180 F 
ATOM     30  F   LIG    1        6.610  -3.059   5.517  0.00  0.00    -0.180 F 
ENDBRANCH  27  28
ENDBRANCH  24  27
ENDBRANCH  19  21
ENDBRANCH   6  19
TORSDOF 9
