REMARK  Name = ZINCnE000001QOSt.1
REMARK                            x       y       z     vdW  Elec       q    Type
REMARK                         _______ _______ _______ _____ _____    ______ ____
ROOT
ATOM      1  N   LIG    1       -5.215  -1.681   0.302  0.00  0.00    -0.700 NA
ATOM      2  C   LIG    1       -6.510  -1.467   0.611  0.00  0.00    +0.650 C 
ATOM      3  N   LIG    1       -7.350  -2.511   0.752  0.00  0.00    -0.740 N 
ATOM      4  H   LIG    1       -7.023  -3.417   0.632  0.00  0.00    +0.390 HD
ATOM      5  O   LIG    1       -6.919  -0.332   0.762  0.00  0.00    -0.620 OA
ENDROOT
BRANCH   1  10
ATOM      6  C   LIG    1       -3.981   3.020   0.266  0.00  0.00    +0.120 C 
ATOM      7  C   LIG    1       -3.738   1.539   0.129  0.00  0.00    +0.150 A 
ATOM      8  C   LIG    1       -2.531   1.022  -0.181  0.00  0.00    -0.330 A 
ATOM      9  S   LIG    1       -2.690  -0.732  -0.233  0.00  0.00    +0.030 S 
ATOM     10  C   LIG    1       -4.350  -0.605   0.156  0.00  0.00    +0.360 A 
ATOM     11  N   LIG    1       -4.685   0.641   0.296  0.00  0.00    -0.560 NA
BRANCH   8  12
ATOM     12  C   LIG    1       -1.293   1.790  -0.427  0.00  0.00    +0.050 A 
ATOM     13  C   LIG    1       -0.099   1.413   0.191  0.00  0.00    +0.000 A 
ATOM     14  C   LIG    1        1.054   2.131  -0.047  0.00  0.00    +0.000 A 
ATOM     15  C   LIG    1        1.029   3.226  -0.892  0.00  0.00    -0.040 A 
ATOM     16  C   LIG    1       -0.152   3.608  -1.504  0.00  0.00    +0.000 A 
ATOM     17  C   LIG    1       -1.312   2.899  -1.274  0.00  0.00    +0.000 A 
ENDBRANCH   8  12
ENDBRANCH   1  10
BRANCH   3  18
ATOM     18  C   LIG    1       -8.757  -2.279   1.089  0.00  0.00    +0.250 C 
BRANCH  18  19
ATOM     19  C   LIG    1       -9.485  -3.621   1.189  0.00  0.00    -0.020 C 
ATOM     20  C   LIG    1       -9.588  -4.285  -0.199  0.00  0.00    +0.020 C 
ATOM     21  C   LIG    1      -10.968  -4.962  -0.262  0.00  0.00    -0.030 C 
ATOM     22  C   LIG    1      -11.656  -4.685   1.091  0.00  0.00    +0.160 C 
ATOM     23  C   LIG    1      -10.957  -3.407   1.622  0.00  0.00    +0.040 C 
BRANCH  22  24
ATOM     24  O   LIG    1      -13.054  -4.454   0.904  0.00  0.00    -0.570 OA
ATOM     25  H   LIG    1      -13.529  -5.204   0.521  0.00  0.00    +0.370 HD
ENDBRANCH  22  24
ENDBRANCH  18  19
ENDBRANCH   3  18
TORSDOF 5
