REMARK  Name = ZINCrD000000AtpO.0
REMARK                            x       y       z     vdW  Elec       q    Type
REMARK                         _______ _______ _______ _____ _____    ______ ____
ROOT
ATOM      1  C   LIG    1        3.610   2.107  -0.043  0.00  0.00    +0.070 A 
ATOM      2  C   LIG    1        2.385   1.433   0.172  0.00  0.00    -0.060 A 
ATOM      3  C   LIG    1        1.177   2.107   0.378  0.00  0.00    +0.050 A 
ATOM      4  C   LIG    1        0.035   1.388   0.579  0.00  0.00    +0.050 A 
ATOM      5  C   LIG    1        0.055  -0.004   0.582  0.00  0.00    +0.050 A 
ATOM      6  C   LIG    1        1.217  -0.691   0.385  0.00  0.00    +0.050 A 
ATOM      7  C   LIG    1        2.405   0.015   0.176  0.00  0.00    -0.050 A 
ATOM      8  C   LIG    1        3.650  -0.627  -0.036  0.00  0.00    +0.150 A 
ATOM      9  N   LIG    1        4.728   0.115  -0.226  0.00  0.00    -0.240 NA
ATOM     10  N   LIG    1        4.709   1.396  -0.230  0.00  0.00    -0.270 NA
ENDROOT
BRANCH   8  11
ATOM     11  C   LIG    1        3.743  -2.105  -0.044  0.00  0.00    -0.050 A 
ATOM     12  C   LIG    1        4.784  -2.745   0.630  0.00  0.00    +0.050 A 
ATOM     13  C   LIG    1        4.862  -4.122   0.622  0.00  0.00    +0.010 A 
ATOM     14  C   LIG    1        3.918  -4.868  -0.060  0.00  0.00    +0.030 A 
ATOM     15  C   LIG    1        2.886  -4.239  -0.734  0.00  0.00    +0.010 A 
ATOM     16  C   LIG    1        2.794  -2.862  -0.730  0.00  0.00    +0.030 A 
ENDBRANCH   8  11
BRANCH   1  17
ATOM     17  S   LIG    1        3.670   3.868  -0.062  0.00  0.00    +0.070 S 
BRANCH  17  18
ATOM     18  C   LIG    1        5.436   4.119  -0.368  0.00  0.00    +0.100 C 
BRANCH  18  20
ATOM     19  O   LIG    1        4.836   6.399  -0.275  0.00  0.00    -0.450 OA
ATOM     20  C   LIG    1        5.731   5.596  -0.426  0.00  0.00    +0.540 C 
ATOM     21  N   LIG    1        6.990   6.024  -0.646  0.00  0.00    -0.690 N 
ATOM     22  H   LIG    1        7.707   5.381  -0.766  0.00  0.00    +0.410 HD
ATOM     23  C   LIG    1        7.254   7.344  -0.698  0.00  0.00    +0.700 C 
ATOM     24  N   LIG    1        8.513   7.772  -0.917  0.00  0.00    -0.710 N 
ATOM     25  H   LIG    1        9.229   7.129  -1.038  0.00  0.00    +0.400 HD
ATOM     26  O   LIG    1        6.356   8.150  -0.546  0.00  0.00    -0.520 OA
BRANCH  24  27
ATOM     27  C   LIG    1        8.800   9.207  -0.974  0.00  0.00    +0.230 C 
ATOM     28  C   LIG    1        9.725   9.700  -2.088  0.00  0.00    +0.020 C 
ATOM     29  C   LIG    1       10.224   9.657  -0.642  0.00  0.00    +0.020 C 
ENDBRANCH  24  27
ENDBRANCH  18  20
ENDBRANCH  17  18
ENDBRANCH   1  17
TORSDOF 5
