REMARK  Name = ZINCrH000004nsGi.1
REMARK                            x       y       z     vdW  Elec       q    Type
REMARK                         _______ _______ _______ _____ _____    ______ ____
ROOT
ATOM      1  N   LIG    1       -0.438   1.277  -0.604  0.00  0.00    -0.740 N 
ATOM      2  H   LIG    1       -0.368   0.328  -0.792  0.00  0.00    +0.400 HD
ATOM      3  C   LIG    1       -1.595   1.927  -0.840  0.00  0.00    +0.700 C 
ATOM      4  N   LIG    1       -2.655   1.259  -1.336  0.00  0.00    -0.740 N 
ATOM      5  H   LIG    1       -2.585   0.310  -1.524  0.00  0.00    +0.400 HD
ATOM      6  O   LIG    1       -1.683   3.117  -0.604  0.00  0.00    -0.570 OA
ENDROOT
BRANCH   1   7
ATOM      7  C   LIG    1        0.715   2.005  -0.069  0.00  0.00    +0.280 C 
BRANCH   7   8
ATOM      8  C   LIG    1        1.839   1.017   0.250  0.00  0.00    +0.200 C 
BRANCH   8  13
ATOM      9  C   LIG    1        5.248   2.643   0.354  0.00  0.00    +0.130 A 
ATOM     10  C   LIG    1        5.267   3.160   1.641  0.00  0.00    -0.080 A 
ATOM     11  C   LIG    1        4.177   2.981   2.472  0.00  0.00    +0.050 A 
ATOM     12  C   LIG    1        3.067   2.293   2.019  0.00  0.00    -0.010 A 
ATOM     13  C   LIG    1        3.048   1.772   0.738  0.00  0.00    -0.030 A 
ATOM     14  C   LIG    1        4.135   1.948  -0.096  0.00  0.00    -0.010 A 
BRANCH   9  16
ATOM     15  C   LIG    1        7.429   3.544   0.065  0.00  0.00    +0.250 C 
ATOM     16  O   LIG    1        6.318   2.818  -0.466  0.00  0.00    -0.320 OA
ENDBRANCH   9  16
ENDBRANCH   8  13
BRANCH   8  17
ATOM     17  N   LIG    1        1.389   0.085   1.293  0.00  0.00    -0.530 NA
ATOM     18  C   LIG    1        0.865  -1.153   0.702  0.00  0.00    +0.190 C 
ATOM     19  C   LIG    1        0.391   0.716   2.167  0.00  0.00    +0.200 C 
ENDBRANCH   8  17
ENDBRANCH   7   8
ENDBRANCH   1   7
BRANCH   4  20
ATOM     20  C   LIG    1       -3.912   1.966  -1.593  0.00  0.00    +0.270 C 
BRANCH  20  21
ATOM     21  C   LIG    1       -5.075   0.973  -1.539  0.00  0.00    -0.010 C 
ATOM     22  C   LIG    1       -6.407   1.704  -1.805  0.00  0.00    +0.030 C 
ATOM     23  C   LIG    1       -7.418   1.005  -0.862  0.00  0.00    +0.020 C 
ATOM     24  C   LIG    1       -6.575   0.742   0.410  0.00  0.00    +0.010 C 
ATOM     25  C   LIG    1       -5.182   0.360  -0.132  0.00  0.00    +0.030 C 
ENDBRANCH  20  21
BRANCH  20  26
ATOM     26  C   LIG    1       -3.859   2.615  -2.977  0.00  0.00    +0.430 C 
ATOM     27  F   LIG    1       -2.724   3.428  -3.067  0.00  0.00    -0.170 F 
ATOM     28  F   LIG    1       -5.006   3.393  -3.171  0.00  0.00    -0.180 F 
ATOM     29  F   LIG    1       -3.800   1.619  -3.957  0.00  0.00    -0.180 F 
ENDBRANCH  20  26
ENDBRANCH   4  20
TORSDOF 8
