REMARK  Name = ZINCvU0000000FO7.0
REMARK                            x       y       z     vdW  Elec       q    Type
REMARK                         _______ _______ _______ _____ _____    ______ ____
ROOT
ATOM      1  S   LIG    1        2.913  -2.749  -0.039  0.00  0.00    +0.110 S 
ENDROOT
BRANCH   1   2
ATOM      2  C   LIG    1        2.647  -4.491  -0.046  0.00  0.00    +0.150 A 
ATOM      3  N   LIG    1        1.484  -5.101  -0.033  0.00  0.00    -0.280 NA
ATOM      4  N   LIG    1        1.651  -6.375  -0.046  0.00  0.00    -0.260 NA
ATOM      5  C   LIG    1        2.934  -6.660  -0.060  0.00  0.00    +0.270 A 
ATOM      6  N   LIG    1        3.614  -5.460  -0.060  0.00  0.00    -0.410 N 
BRANCH   6   7
ATOM      7  C   LIG    1        5.003  -5.272  -0.073  0.00  0.00    +0.090 A 
ATOM      8  C   LIG    1        5.750  -5.682  -1.169  0.00  0.00    +0.030 A 
ATOM      9  C   LIG    1        7.118  -5.492  -1.181  0.00  0.00    +0.040 A 
ATOM     10  C   LIG    1        7.745  -4.903  -0.098  0.00  0.00    +0.040 A 
ATOM     11  C   LIG    1        7.004  -4.498   0.998  0.00  0.00    +0.040 A 
ATOM     12  C   LIG    1        5.635  -4.681   1.013  0.00  0.00    +0.040 A 
ENDBRANCH   6   7
BRANCH   5  13
ATOM     13  C   LIG    1        3.532  -8.005  -0.072  0.00  0.00    -0.140 A 
ATOM     14  C   LIG    1        2.880  -9.152   0.219  0.00  0.00    +0.080 A 
ATOM     15  C   LIG    1        3.653 -10.290   0.135  0.00  0.00    +0.010 A 
ATOM     16  C   LIG    1        4.927 -10.086  -0.211  0.00  0.00    -0.040 A 
ATOM     17  S   LIG    1        5.208  -8.368  -0.462  0.00  0.00    +0.150 S 
ENDBRANCH   5  13
ENDBRANCH   1   2
BRANCH   1  18
ATOM     18  C   LIG    1        1.199  -2.169  -0.021  0.00  0.00    +0.130 C 
BRANCH  18  21
ATOM     19  N   LIG    1        0.002  -0.004   0.002  0.00  0.00    -0.620 N 
ATOM     20  H   LIG    1       -0.831  -0.500   0.007  0.00  0.00    +0.420 HD
ATOM     21  C   LIG    1        1.178  -0.662  -0.012  0.00  0.00    +0.530 C 
ATOM     22  O   LIG    1        2.220  -0.041  -0.018  0.00  0.00    -0.480 OA
BRANCH  19  24
ATOM     23  C   LIG    1       -1.149   2.143   0.019  0.00  0.00    -0.090 A 
ATOM     24  C   LIG    1       -0.017   1.384   0.010  0.00  0.00    +0.050 A 
ATOM     25  S   LIG    1        1.370   2.369   0.002  0.00  0.00    +0.350 S 
ATOM     26  C   LIG    1        0.418   3.853   0.019  0.00  0.00    -0.270 A 
ATOM     27  C   LIG    1        0.644   5.360   0.025  0.00  0.00    +0.120 C 
ATOM     28  C   LIG    1       -0.708   5.965  -0.406  0.00  0.00    +0.040 C 
ATOM     29  C   LIG    1       -1.696   4.870   0.045  0.00  0.00    +0.110 C 
ATOM     30  C   LIG    1       -0.883   3.578   0.030  0.00  0.00    -0.070 A 
BRANCH  23  32
ATOM     31  N   LIG    1       -3.516   1.145   0.023  0.00  0.00    -0.420 NA
ATOM     32  C   LIG    1       -2.469   1.587   0.021  0.00  0.00    +0.270 C 
ENDBRANCH  23  32
ENDBRANCH  19  24
ENDBRANCH  18  21
ENDBRANCH   1  18
TORSDOF 7
