REMARK  Name = ZINCqH0000038BrV.0
REMARK                            x       y       z     vdW  Elec       q    Type
REMARK                         _______ _______ _______ _____ _____    ______ ____
ROOT
ATOM      1  C   LIG    1       -0.018   1.464   0.010  0.00  0.00    +0.610 C 
ATOM      2  N   LIG    1        1.003   1.961  -0.716  0.00  0.00    -0.540 N 
ATOM      3  C   LIG    1        0.893   3.265  -1.392  0.00  0.00    +0.270 C 
ATOM      4  C   LIG    1        1.518   3.125  -2.783  0.00  0.00    +0.110 C 
ATOM      5  O   LIG    1        2.876   2.700  -2.641  0.00  0.00    -0.300 OA
ATOM      6  C   LIG    1        3.125   1.637  -1.832  0.00  0.00    +0.100 A 
ATOM      7  C   LIG    1        4.310   0.931  -1.972  0.00  0.00    +0.010 A 
ATOM      8  C   LIG    1        4.574  -0.148  -1.150  0.00  0.00    +0.030 A 
ATOM      9  C   LIG    1        3.662  -0.529  -0.183  0.00  0.00    +0.000 A 
ATOM     10  C   LIG    1        2.478   0.170  -0.036  0.00  0.00    +0.050 A 
ATOM     11  C   LIG    1        0.738   2.085  -3.589  0.00  0.00    +0.030 C 
ATOM     12  C   LIG    1        1.476   4.474  -3.504  0.00  0.00    +0.090 C 
ATOM     13  C   LIG    1        2.207   1.251  -0.859  0.00  0.00    +0.080 A 
ATOM     14  O   LIG    1        0.114   0.409   0.603  0.00  0.00    -0.490 OA
ENDROOT
BRANCH   1  17
ATOM     15  C   LIG    1       -2.785   0.172  -0.138  0.00  0.00    +0.170 C 
ATOM     16  C   LIG    1       -2.541   1.650   0.028  0.00  0.00    +0.160 A 
ATOM     17  C   LIG    1       -1.287   2.197   0.090  0.00  0.00    -0.320 A 
ATOM     18  S   LIG    1       -1.470   3.939   0.277  0.00  0.00    +0.280 S 
ATOM     19  C   LIG    1       -3.171   3.774   0.261  0.00  0.00    +0.090 A 
ATOM     20  N   LIG    1       -3.507   2.523   0.128  0.00  0.00    -0.430 NA
BRANCH  19  21
ATOM     21  C   LIG    1       -4.128   4.896   0.383  0.00  0.00    +0.370 A 
ATOM     22  N   LIG    1       -3.664   6.131   0.520  0.00  0.00    -0.510 NA
ATOM     23  C   LIG    1       -4.492   7.156   0.625  0.00  0.00    +0.340 A 
ATOM     24  C   LIG    1       -5.860   6.926   0.602  0.00  0.00    -0.050 A 
ATOM     25  C   LIG    1       -6.311   5.621   0.463  0.00  0.00    +0.330 A 
ATOM     26  N   LIG    1       -5.430   4.642   0.357  0.00  0.00    -0.470 NA
ENDBRANCH  19  21
ENDBRANCH   1  17
TORSDOF 2
