REMARK  Name = ZINCrg000000tcLx.0
REMARK                            x       y       z     vdW  Elec       q    Type
REMARK                         _______ _______ _______ _____ _____    ______ ____
ROOT
ATOM      1  N   LIG    1       -4.234   4.679   2.782  0.00  0.00    -0.520 NA
ATOM      2  C   LIG    1       -4.073   6.003   2.164  0.00  0.00    +0.190 C 
ATOM      3  C   LIG    1       -5.429   6.711   2.120  0.00  0.00    +0.190 C 
ATOM      4  N   LIG    1       -5.960   6.831   3.485  0.00  0.00    -0.520 NA
ATOM      5  C   LIG    1       -6.121   5.508   4.103  0.00  0.00    +0.190 C 
ATOM      6  C   LIG    1       -4.765   4.800   4.147  0.00  0.00    +0.190 C 
ENDROOT
BRANCH   1   7
ATOM      7  C   LIG    1       -2.966   3.936   2.774  0.00  0.00    +0.220 C 
BRANCH   7   9
ATOM      8  O   LIG    1       -3.289   3.978   0.436  0.00  0.00    -0.520 OA
ATOM      9  C   LIG    1       -2.579   3.620   1.352  0.00  0.00    +0.520 C 
ATOM     10  N   LIG    1       -1.444   2.939   1.099  0.00  0.00    -0.730 N 
ATOM     11  H   LIG    1       -0.876   2.653   1.831  0.00  0.00    +0.400 HD
BRANCH  10  12
ATOM     12  C   LIG    1       -1.067   2.632  -0.283  0.00  0.00    +0.330 C 
BRANCH  12  13
ATOM     13  C   LIG    1        0.233   1.870  -0.292  0.00  0.00    -0.150 A 
ATOM     14  C   LIG    1        0.236   0.511  -0.542  0.00  0.00    +0.070 A 
ATOM     15  C   LIG    1        1.430  -0.187  -0.556  0.00  0.00    +0.000 A 
ATOM     16  C   LIG    1        2.621   0.473  -0.318  0.00  0.00    +0.060 A 
ATOM     17  C   LIG    1        2.620   1.832  -0.067  0.00  0.00    -0.020 A 
ATOM     18  C   LIG    1        1.426   2.532  -0.054  0.00  0.00    +0.110 A 
ATOM     19  F   LIG    1        1.424   3.861   0.191  0.00  0.00    -0.130 F 
ENDBRANCH  12  13
ENDBRANCH  10  12
ENDBRANCH   7   9
ENDBRANCH   1   7
BRANCH   4  20
ATOM     20  C   LIG    1       -7.227   7.574   3.493  0.00  0.00    +0.210 C 
BRANCH  20  21
ATOM     21  C   LIG    1       -7.613   7.894   4.915  0.00  0.00    +0.520 C 
ATOM     22  N   LIG    1       -8.806   8.463   5.177  0.00  0.00    -0.620 N 
ATOM     23  C   LIG    1       -9.738   8.784   4.088  0.00  0.00    +0.250 C 
ATOM     24  C   LIG    1      -11.097   8.140   4.403  0.00  0.00    +0.010 C 
ATOM     25  C   LIG    1      -11.565   8.600   5.786  0.00  0.00    +0.020 C 
ATOM     26  C   LIG    1      -10.558   8.142   6.845  0.00  0.00    +0.020 C 
ATOM     27  C   LIG    1       -9.196   8.781   6.558  0.00  0.00    +0.270 C 
ATOM     28  O   LIG    1       -6.850   7.639   5.822  0.00  0.00    -0.520 OA
ENDBRANCH  20  21
ENDBRANCH   4  20
TORSDOF 6
