REMARK  Name = ZINCnE000008J9Sy.0
REMARK                            x       y       z     vdW  Elec       q    Type
REMARK                         _______ _______ _______ _____ _____    ______ ____
ROOT
ATOM      1  C   LIG    1        4.761  -1.480  -1.424  0.00  0.00    +0.280 C 
ATOM      2  C   LIG    1        6.000  -1.906  -1.047  0.00  0.00    -0.260 C 
ATOM      3  S   LIG    1        6.907  -1.469   0.414  0.00  0.00    +0.120 S 
ATOM      4  C   LIG    1        8.310  -2.475   0.016  0.00  0.00    +0.260 C 
ATOM      5  N   LIG    1        8.041  -3.069  -1.152  0.00  0.00    -0.500 N 
ATOM      6  S   LIG    1        9.736  -2.652   0.947  0.00  0.00    -0.360 S 
ATOM      7  C   LIG    1        6.886  -2.835  -1.751  0.00  0.00    +0.550 C 
ATOM      8  O   LIG    1        6.582  -3.350  -2.812  0.00  0.00    -0.450 OA
ENDROOT
BRANCH   1  12
ATOM      9  C   LIG    1        3.623   0.940   0.932  0.00  0.00    +0.070 A 
ATOM     10  C   LIG    1        2.602   1.006   0.050  0.00  0.00    -0.050 A 
ATOM     11  C   LIG    1        2.886   0.099  -0.983  0.00  0.00    +0.040 A 
ATOM     12  C   LIG    1        4.091  -0.494  -0.664  0.00  0.00    -0.040 A 
ATOM     13  O   LIG    1        4.514   0.035   0.502  0.00  0.00    -0.150 OA
BRANCH   9  17
ATOM     14  C   LIG    1        4.751   3.995   3.075  0.00  0.00    +0.070 C 
ATOM     15  C   LIG    1        4.952   2.666   2.343  0.00  0.00    -0.020 C 
ATOM     16  C   LIG    1        4.861   1.383   3.171  0.00  0.00    +0.060 C 
ATOM     17  C   LIG    1        3.737   1.748   2.199  0.00  0.00    +0.040 C 
ENDBRANCH   9  17
ENDBRANCH   1  12
BRANCH   5  18
ATOM     18  C   LIG    1        9.017  -3.977  -1.760  0.00  0.00    +0.290 C 
BRANCH  18  19
ATOM     19  C   LIG    1        8.760  -5.404  -1.270  0.00  0.00    +0.030 C 
BRANCH  19  20
ATOM     20  C   LIG    1        9.779  -6.352  -1.905  0.00  0.00    -0.060 C 
BRANCH  20  21
ATOM     21  C   LIG    1        9.527  -7.757  -1.423  0.00  0.00    +0.490 C 
ATOM     22  O   LIG    1       10.233  -8.672  -1.812  0.00  0.00    -0.700 OA
ATOM     23  O   LIG    1        8.616  -7.980  -0.643  0.00  0.00    -0.700 OA
ENDBRANCH  20  21
ENDBRANCH  19  20
ENDBRANCH  18  19
ENDBRANCH   5  18
TORSDOF 6
