REMARK  Name = ZINCrH000004nfVl.0
REMARK                            x       y       z     vdW  Elec       q    Type
REMARK                         _______ _______ _______ _____ _____    ______ ____
ROOT
ATOM      1  C   LIG    1        2.236  -3.886   1.408  0.00  0.00    +0.610 C 
ATOM      2  N   LIG    1        2.311  -2.660   0.854  0.00  0.00    -0.710 N 
ATOM      3  H   LIG    1        3.076  -2.092   1.034  0.00  0.00    +0.410 HD
ATOM      4  O   LIG    1        1.276  -4.599   1.182  0.00  0.00    -0.510 OA
ENDROOT
BRANCH   1  10
ATOM      5  C   LIG    1        6.416  -6.275   5.073  0.00  0.00    +0.110 A 
ATOM      6  C   LIG    1        7.033  -5.048   4.843  0.00  0.00    -0.020 A 
ATOM      7  C   LIG    1        6.443  -4.105   4.030  0.00  0.00    +0.070 A 
ATOM      8  C   LIG    1        5.219  -4.373   3.429  0.00  0.00    +0.040 A 
ATOM      9  O   LIG    1        4.425  -3.664   2.602  0.00  0.00    -0.180 OA
ATOM     10  C   LIG    1        3.314  -4.363   2.286  0.00  0.00    -0.040 A 
ATOM     11  C   LIG    1        3.346  -5.575   2.897  0.00  0.00    -0.070 A 
ATOM     12  C   LIG    1        2.306  -6.663   2.807  0.00  0.00    +0.140 C 
ATOM     13  C   LIG    1        4.593  -5.612   3.660  0.00  0.00    -0.100 A 
ATOM     14  C   LIG    1        5.199  -6.561   4.487  0.00  0.00    +0.040 A 
BRANCH   5  16
ATOM     15  C   LIG    1        8.271  -6.833   6.453  0.00  0.00    +0.250 C 
ATOM     16  O   LIG    1        7.014  -7.194   5.878  0.00  0.00    -0.310 OA
ENDBRANCH   5  16
ENDBRANCH   1  10
BRANCH   2  17
ATOM     17  C   LIG    1        1.236  -2.185  -0.021  0.00  0.00    +0.290 C 
ATOM     18  C   LIG    1        1.481  -2.683  -1.447  0.00  0.00    +0.040 C 
BRANCH  17  19
ATOM     19  C   LIG    1        1.211  -0.678  -0.013  0.00  0.00    -0.110 A 
ATOM     20  C   LIG    1        2.396   0.035  -0.021  0.00  0.00    +0.050 A 
ATOM     21  C   LIG    1        2.380   1.415  -0.013  0.00  0.00    +0.000 A 
ATOM     22  C   LIG    1        1.167   2.100   0.002  0.00  0.00    +0.150 A 
ATOM     23  N   LIG    1        0.892   3.468   0.012  0.00  0.00    -0.660 N 
ATOM     24  H   LIG    1        1.575   4.157   0.009  0.00  0.00    +0.410 HD
ATOM     25  C   LIG    1       -0.427   3.721   0.025  0.00  0.00    +0.530 C 
ATOM     26  C   LIG    1       -1.138   2.385   0.020  0.00  0.00    +0.140 C 
ATOM     27  O   LIG    1       -0.951   4.816   0.035  0.00  0.00    -0.500 OA
ATOM     28  C   LIG    1       -0.017   1.372   0.010  0.00  0.00    -0.140 A 
ATOM     29  C   LIG    1        0.002  -0.004   0.002  0.00  0.00    +0.090 A 
ENDBRANCH  17  19
ENDBRANCH   2  17
TORSDOF 4
