REMARK  Name = ZINCvU0000000DKL.0
REMARK                            x       y       z     vdW  Elec       q    Type
REMARK                         _______ _______ _______ _____ _____    ______ ____
ROOT
ATOM      1  C   LIG    1       -1.743   6.045  -1.738  0.00  0.00    +0.610 C 
ATOM      2  N   LIG    1       -0.567   5.921  -1.092  0.00  0.00    -0.640 N 
ATOM      3  O   LIG    1       -1.998   7.067  -2.347  0.00  0.00    -0.500 OA
ENDROOT
BRANCH   1  11
ATOM      4  O   LIG    1       -1.246   3.523  -0.694  0.00  0.00    -0.510 OA
ATOM      5  C   LIG    1       -2.364   3.693  -1.151  0.00  0.00    +0.540 A 
ATOM      6  N   LIG    1       -3.262   2.691  -1.121  0.00  0.00    -0.590 N 
ATOM      7  H   LIG    1       -3.014   1.837  -0.734  0.00  0.00    +0.420 HD
ATOM      8  C   LIG    1       -4.520   2.861  -1.634  0.00  0.00    +0.280 A 
ATOM      9  C   LIG    1       -4.900   4.074  -2.193  0.00  0.00    -0.060 A 
ATOM     10  C   LIG    1       -4.001   5.126  -2.234  0.00  0.00    +0.220 A 
ATOM     11  C   LIG    1       -2.716   4.947  -1.708  0.00  0.00    -0.300 A 
BRANCH   8  12
ATOM     12  C   LIG    1       -5.474   1.751  -1.593  0.00  0.00    -0.030 A 
ATOM     13  C   LIG    1       -5.237   0.505  -1.081  0.00  0.00    +0.010 A 
ATOM     14  C   LIG    1       -6.421  -0.231  -1.248  0.00  0.00    -0.060 A 
ATOM     15  C   LIG    1       -7.314   0.583  -1.853  0.00  0.00    +0.230 A 
ATOM     16  O   LIG    1       -6.740   1.776  -2.060  0.00  0.00    -0.150 OA
ENDBRANCH   8  12
ENDBRANCH   1  11
BRANCH   2  17
ATOM     17  C   LIG    1       -0.546   5.594   0.336  0.00  0.00    +0.380 C 
BRANCH  17  18
ATOM     18  C   LIG    1        0.031   6.752   1.109  0.00  0.00    +0.110 A 
ATOM     19  C   LIG    1       -0.817   7.672   1.695  0.00  0.00    -0.030 A 
ATOM     20  C   LIG    1       -0.276   8.734   2.404  0.00  0.00    +0.060 A 
ATOM     21  C   LIG    1        1.104   8.830   2.496  0.00  0.00    -0.040 A 
ATOM     22  C   LIG    1        1.889   7.875   1.879  0.00  0.00    +0.260 A 
ATOM     23  N   LIG    1        1.339   6.875   1.217  0.00  0.00    -0.470 NA
ENDBRANCH  17  18
ENDBRANCH   2  17
BRANCH   2  24
ATOM     24  C   LIG    1        0.692   6.113  -1.817  0.00  0.00    +0.350 C 
BRANCH  24  25
ATOM     25  C   LIG    1        1.211   4.778  -2.286  0.00  0.00    -0.070 A 
ATOM     26  C   LIG    1        1.988   4.006  -1.444  0.00  0.00    +0.070 A 
ATOM     27  C   LIG    1        2.460   2.778  -1.870  0.00  0.00    +0.040 A 
ATOM     28  C   LIG    1        2.164   2.328  -3.144  0.00  0.00    -0.030 A 
ATOM     29  C   LIG    1        1.390   3.105  -3.989  0.00  0.00    -0.030 A 
ATOM     30 CL   LIG    1        1.017   2.541  -5.588  0.00  0.00    -0.050 Cl
ATOM     31 CL   LIG    1        2.763   0.790  -3.682  0.00  0.00    -0.050 Cl
ATOM     32  C   LIG    1        0.914   4.330  -3.559  0.00  0.00    +0.040 A 
ENDBRANCH  24  25
ENDBRANCH   2  24
TORSDOF 6
