REMARK  Name = ZINCpk000005FkLp.0
REMARK                            x       y       z     vdW  Elec       q    Type
REMARK                         _______ _______ _______ _____ _____    ______ ____
ROOT
ATOM      1  C   LIG    1        6.117  -5.182  -1.605  0.00  0.00    +0.040 C 
ATOM      2  C   LIG    1        5.688  -4.865  -0.171  0.00  0.00    -0.010 C 
ATOM      3  C   LIG    1        6.914  -4.842   0.779  0.00  0.00    +0.270 C 
ATOM      4  N   LIG    1        6.466  -3.972   1.892  0.00  0.00    -0.620 N 
ATOM      5  C   LIG    1        5.694  -2.882   1.268  0.00  0.00    +0.260 C 
ATOM      6  C   LIG    1        6.713  -4.143   3.206  0.00  0.00    +0.520 C 
ATOM      7  O   LIG    1        6.281  -3.348   4.013  0.00  0.00    -0.520 OA
ATOM      8  C   LIG    1        5.147  -3.421  -0.067  0.00  0.00    -0.010 C 
ENDROOT
BRANCH   6   9
ATOM      9  C   LIG    1        7.527  -5.323   3.672  0.00  0.00    +0.230 C 
ATOM     10  C   LIG    1        9.013  -5.025   3.468  0.00  0.00    +0.040 C 
ATOM     11  C   LIG    1        9.833  -6.128   4.147  0.00  0.00    +0.050 C 
ATOM     12  C   LIG    1        9.636  -6.015   5.661  0.00  0.00    +0.070 C 
ATOM     13  C   LIG    1        8.172  -5.907   5.979  0.00  0.00    +0.520 C 
ATOM     14  O   LIG    1        7.814  -6.133   7.116  0.00  0.00    -0.550 OA
ATOM     15  N   LIG    1        7.246  -5.576   5.080  0.00  0.00    -0.700 N 
ATOM     16  H   LIG    1        6.327  -5.498   5.381  0.00  0.00    +0.410 HD
ENDBRANCH   6   9
BRANCH   8  17
ATOM     17  C   LIG    1        3.618  -3.425  -0.052  0.00  0.00    +0.280 C 
BRANCH  17  18
ATOM     18  N   LIG    1        3.125  -2.045  -0.040  0.00  0.00    -0.720 N 
ATOM     19  H   LIG    1        3.753  -1.306  -0.042  0.00  0.00    +0.400 HD
ATOM     20  C   LIG    1        1.800  -1.803  -0.025  0.00  0.00    +0.590 C 
ATOM     21  O   LIG    1        1.012  -2.730  -0.023  0.00  0.00    -0.520 OA
BRANCH  20  22
ATOM     22  C   LIG    1        1.305  -0.416  -0.013  0.00  0.00    -0.210 A 
ATOM     23  C   LIG    1        0.002  -0.004   0.002  0.00  0.00    +0.100 A 
ATOM     24  O   LIG    1       -0.016   1.333   0.009  0.00  0.00    -0.170 OA
ATOM     25  C   LIG    1        1.232   1.829   0.000  0.00  0.00    +0.210 A 
ATOM     26 CL   LIG    1       -1.391  -1.039   0.010  0.00  0.00    +0.060 Cl
ATOM     27  C   LIG    1        2.109   0.815  -0.014  0.00  0.00    -0.020 A 
ENDBRANCH  20  22
ENDBRANCH  17  18
ENDBRANCH   8  17
TORSDOF 4
