REMARK  Name = ZINCqH0000050St2.0
REMARK                            x       y       z     vdW  Elec       q    Type
REMARK                         _______ _______ _______ _____ _____    ______ ____
ROOT
ATOM      1  C   LIG    1       -2.524   0.555  -2.418  0.00  0.00    +0.530 C 
ATOM      2  N   LIG    1       -2.575   0.208  -1.117  0.00  0.00    -0.600 N 
ATOM      3  C   LIG    1       -2.675  -1.169  -0.599  0.00  0.00    +0.250 C 
ATOM      4  C   LIG    1       -3.310  -1.018   0.806  0.00  0.00    +0.040 C 
ATOM      5  C   LIG    1       -2.651   0.294   1.307  0.00  0.00    +0.040 C 
ATOM      6  C   LIG    1       -2.540   1.139   0.020  0.00  0.00    +0.290 C 
ATOM      7  O   LIG    1       -2.443   1.724  -2.731  0.00  0.00    -0.530 OA
ENDROOT
BRANCH   6   8
ATOM      8  C   LIG    1       -1.241   1.902   0.018  0.00  0.00    -0.220 A 
ATOM      9  C   LIG    1       -1.243   3.266   0.032  0.00  0.00    +0.130 A 
ATOM     10  C   LIG    1       -0.022   3.954   0.024  0.00  0.00    -0.080 A 
ATOM     11  C   LIG    1        1.142   3.263   0.009  0.00  0.00    +0.290 A 
ATOM     12  N   LIG    1        1.143   1.905   0.001  0.00  0.00    -0.610 N 
ATOM     13  H   LIG    1        1.986   1.426  -0.009  0.00  0.00    +0.410 HD
ATOM     14  C   LIG    1       -0.015   1.216   0.009  0.00  0.00    +0.530 A 
ATOM     15  O   LIG    1        0.002  -0.004   0.002  0.00  0.00    -0.540 OA
ENDBRANCH   6   8
BRANCH   1  16
ATOM     16  C   LIG    1       -2.569  -0.509  -3.485  0.00  0.00    +0.170 C 
BRANCH  16  19
ATOM     17  C   LIG    1       -5.000   0.432  -5.207  0.00  0.00    +0.190 C 
ATOM     18  C   LIG    1       -3.545   0.543  -5.583  0.00  0.00    -0.020 A 
ATOM     19  C   LIG    1       -2.498   0.139  -4.844  0.00  0.00    +0.010 A 
ATOM     20  N   LIG    1       -1.378   0.409  -5.533  0.00  0.00    -0.450 NA
ATOM     21  C   LIG    1       -1.712   0.973  -6.673  0.00  0.00    +0.260 A 
ATOM     22  O   LIG    1       -3.053   1.070  -6.724  0.00  0.00    -0.190 OA
BRANCH  21  23
ATOM     23  C   LIG    1       -0.778   1.422  -7.715  0.00  0.00    -0.140 A 
ATOM     24  C   LIG    1       -1.133   2.006  -8.893  0.00  0.00    +0.050 A 
ATOM     25  C   LIG    1       -0.073   2.338  -9.707  0.00  0.00    +0.010 A 
ATOM     26  C   LIG    1        1.135   2.039  -9.219  0.00  0.00    -0.040 A 
ATOM     27  S   LIG    1        0.975   1.296  -7.634  0.00  0.00    +0.210 S 
ENDBRANCH  21  23
ENDBRANCH  16  19
ENDBRANCH   1  16
TORSDOF 4
