REMARK  Name = ZINCrD00000hQ561.1
REMARK                            x       y       z     vdW  Elec       q    Type
REMARK                         _______ _______ _______ _____ _____    ______ ____
ROOT
ATOM      1  O   LIG    1       -1.314  -0.101   3.768  0.00  0.00    -0.530 OA
ATOM      2  C   LIG    1       -0.508   0.233   2.922  0.00  0.00    +0.710 C 
ATOM      3  N   LIG    1       -0.856   0.229   1.620  0.00  0.00    -0.630 N 
ATOM      4  C   LIG    1        0.054   0.756   0.591  0.00  0.00    +0.260 C 
ATOM      5  C   LIG    1       -0.726   1.746  -0.282  0.00  0.00    +0.210 C 
ATOM      6  O   LIG    1       -1.921   1.119  -0.753  0.00  0.00    -0.370 OA
ATOM      7  C   LIG    1       -2.829   0.737   0.282  0.00  0.00    +0.240 C 
ATOM      8  C   LIG    1       -2.157  -0.304   1.185  0.00  0.00    +0.330 C 
ATOM      9  N   LIG    1        0.735   0.608   3.286  0.00  0.00    -0.680 N 
ATOM     10  H   LIG    1        1.369   0.902   2.614  0.00  0.00    +0.400 HD
ENDROOT
BRANCH   9  11
ATOM     11  C   LIG    1        1.110   0.574   4.636  0.00  0.00    +0.140 A 
ATOM     12  C   LIG    1        0.167   0.817   5.625  0.00  0.00    +0.090 A 
ATOM     13  C   LIG    1        0.535   0.778   6.956  0.00  0.00    -0.040 A 
ATOM     14  C   LIG    1        1.849   0.507   7.304  0.00  0.00    +0.130 A 
ATOM     15  C   LIG    1        2.795   0.269   6.316  0.00  0.00    -0.050 A 
ATOM     16 CL   LIG    1        4.441  -0.070   6.752  0.00  0.00    -0.050 Cl
ATOM     17  C   LIG    1        2.426   0.302   4.985  0.00  0.00    +0.040 A 
BRANCH  14  18
ATOM     18  O   LIG    1        2.213   0.474   8.614  0.00  0.00    -0.300 OA
BRANCH  18  19
ATOM     19  C   LIG    1        1.221   0.851   9.572  0.00  0.00    +0.160 C 
ATOM     20  C   LIG    1        1.247   2.378   9.785  0.00  0.00    +0.000 C 
ATOM     21  C   LIG    1        0.966   2.556  11.298  0.00  0.00    +0.020 C 
ATOM     22  C   LIG    1        1.741   1.373  11.930  0.00  0.00    +0.020 C 
ATOM     23  C   LIG    1        1.536   0.211  10.936  0.00  0.00    +0.040 C 
ENDBRANCH  18  19
ENDBRANCH  14  18
ENDBRANCH   9  11
BRANCH   8  24
ATOM     24  C   LIG    1       -3.026  -0.569   2.388  0.00  0.00    +0.170 A 
ATOM     25  N   LIG    1       -3.316   0.282   3.334  0.00  0.00    -0.220 NA
ATOM     26  N   LIG    1       -4.083  -0.280   4.200  0.00  0.00    -0.290 NA
ATOM     27  C   LIG    1       -4.309  -1.517   3.851  0.00  0.00    +0.370 A 
ATOM     28  N   LIG    1       -3.644  -1.736   2.690  0.00  0.00    -0.580 N 
ATOM     29  H   LIG    1       -3.617  -2.560   2.180  0.00  0.00    +0.420 HD
ENDBRANCH   8  24
TORSDOF 4
