REMARK  Name = ZINCrD00000hQ561.0
REMARK                            x       y       z     vdW  Elec       q    Type
REMARK                         _______ _______ _______ _____ _____    ______ ____
ROOT
ATOM      1  O   LIG    1        8.817   1.762  -3.665  0.00  0.00    -0.550 OA
ATOM      2  C   LIG    1        8.492   2.863  -4.065  0.00  0.00    +0.710 C 
ATOM      3  N   LIG    1        9.128   3.410  -5.120  0.00  0.00    -0.630 N 
ATOM      4  C   LIG    1        8.828   4.783  -5.557  0.00  0.00    +0.260 C 
ATOM      5  C   LIG    1        8.553   4.762  -7.064  0.00  0.00    +0.210 C 
ATOM      6  O   LIG    1        9.634   4.106  -7.731  0.00  0.00    -0.370 OA
ATOM      7  C   LIG    1        9.804   2.736  -7.362  0.00  0.00    +0.240 C 
ATOM      8  C   LIG    1       10.147   2.655  -5.866  0.00  0.00    +0.340 C 
ATOM      9  N   LIG    1        7.497   3.536  -3.455  0.00  0.00    -0.680 N 
ATOM     10  H   LIG    1        7.291   4.445  -3.722  0.00  0.00    +0.410 HD
ENDROOT
BRANCH   9  11
ATOM     11  C   LIG    1        6.760   2.922  -2.433  0.00  0.00    +0.140 A 
ATOM     12  C   LIG    1        5.404   3.189  -2.299  0.00  0.00    +0.030 A 
ATOM     13  C   LIG    1        4.676   2.580  -1.294  0.00  0.00    -0.040 A 
ATOM     14  C   LIG    1        5.302   1.710  -0.414  0.00  0.00    +0.130 A 
ATOM     15  C   LIG    1        6.657   1.442  -0.548  0.00  0.00    -0.050 A 
ATOM     16 CL   LIG    1        7.439   0.348   0.551  0.00  0.00    -0.050 Cl
ATOM     17  C   LIG    1        7.385   2.047  -1.555  0.00  0.00    +0.090 A 
BRANCH  14  18
ATOM     18  O   LIG    1        4.586   1.115   0.577  0.00  0.00    -0.290 OA
BRANCH  18  19
ATOM     19  C   LIG    1        3.174   1.336   0.580  0.00  0.00    +0.150 C 
ATOM     20  C   LIG    1        2.814   2.527   1.503  0.00  0.00    +0.000 C 
ATOM     21  C   LIG    1        1.335   2.244   1.865  0.00  0.00    +0.020 C 
ATOM     22  C   LIG    1        1.271   0.711   2.026  0.00  0.00    +0.020 C 
ATOM     23  C   LIG    1        2.440   0.134   1.210  0.00  0.00    +0.030 C 
ENDBRANCH  18  19
ENDBRANCH  14  18
ENDBRANCH   9  11
BRANCH   8  24
ATOM     24  C   LIG    1       10.141   1.216  -5.419  0.00  0.00    +0.240 A 
ATOM     25  N   LIG    1        9.136   0.388  -5.537  0.00  0.00    -0.280 NA
ATOM     26  N   LIG    1        9.556  -0.839  -5.000  0.00  0.00    -0.470 N 
ATOM     27  H   LIG    1        9.037  -1.657  -4.942  0.00  0.00    +0.440 HD
ATOM     28  C   LIG    1       10.818  -0.655  -4.576  0.00  0.00    +0.480 A 
ATOM     29  N   LIG    1       11.156   0.583  -4.833  0.00  0.00    -0.530 NA
ENDBRANCH   8  24
TORSDOF 4
