REMARK  Name = ZINCpe000000UnYZ.0
REMARK                            x       y       z     vdW  Elec       q    Type
REMARK                         _______ _______ _______ _____ _____    ______ ____
ROOT
ATOM      1  C   LIG    1       -0.612  -2.154  -1.056  0.00  0.00    +0.220 C 
ENDROOT
BRANCH   1   2
ATOM      2  C   LIG    1       -0.700  -0.654  -0.948  0.00  0.00    +0.510 C 
ATOM      3  N   LIG    1       -0.178  -0.023   0.123  0.00  0.00    -0.560 N 
ATOM      4  C   LIG    1        0.336  -0.829   1.227  0.00  0.00    +0.310 C 
ATOM      5  C   LIG    1       -0.334  -0.363   2.528  0.00  0.00    +0.100 C 
ATOM      6  S   LIG    1        0.219   1.336   2.859  0.00  0.00    -0.110 S 
ATOM      7  C   LIG    1        0.010   2.120   1.293  0.00  0.00    -0.120 A 
ATOM      8  C   LIG    1        0.014   3.509   1.231  0.00  0.00    +0.050 A 
ATOM      9  C   LIG    1       -0.133   4.153   0.018  0.00  0.00    +0.010 A 
ATOM     10  C   LIG    1       -0.285   3.414  -1.140  0.00  0.00    +0.030 A 
ATOM     11  C   LIG    1       -0.295   2.035  -1.088  0.00  0.00    +0.040 A 
ATOM     12  C   LIG    1       -0.151   1.374   0.130  0.00  0.00    +0.150 A 
ATOM     13  O   LIG    1       -1.240  -0.013  -1.825  0.00  0.00    -0.480 OA
ENDBRANCH   1   2
BRANCH   1  17
ATOM     14  N   LIG    1       -3.289  -4.184  -3.616  0.00  0.00    -0.530 NA
ATOM     15  C   LIG    1       -1.851  -4.436  -3.784  0.00  0.00    +0.190 C 
ATOM     16  C   LIG    1       -1.112  -4.026  -2.508  0.00  0.00    +0.190 C 
ATOM     17  N   LIG    1       -1.366  -2.606  -2.232  0.00  0.00    -0.520 NA
ATOM     18  C   LIG    1       -2.804  -2.354  -2.064  0.00  0.00    +0.190 C 
ATOM     19  C   LIG    1       -3.544  -2.764  -3.340  0.00  0.00    +0.200 C 
BRANCH  14  20
ATOM     20  C   LIG    1       -4.044  -4.636  -4.793  0.00  0.00    +0.210 C 
BRANCH  20  23
ATOM     21  C   LIG    1       -7.846  -4.920  -5.137  0.00  0.00    +0.280 C 
ATOM     22  N   LIG    1       -6.411  -4.964  -5.430  0.00  0.00    -0.630 N 
ATOM     23  C   LIG    1       -5.520  -4.591  -4.491  0.00  0.00    +0.510 C 
ATOM     24  O   LIG    1       -5.905  -4.220  -3.402  0.00  0.00    -0.520 OA
ATOM     25  C   LIG    1       -5.946  -5.412  -6.745  0.00  0.00    +0.280 C 
ENDBRANCH  20  23
ENDBRANCH  14  20
ENDBRANCH   1  17
TORSDOF 4
