REMARK  Name = ZINCrg00000SjSJa.0
REMARK                            x       y       z     vdW  Elec       q    Type
REMARK                         _______ _______ _______ _____ _____    ______ ____
ROOT
ATOM      1  C   LIG    1        1.152   3.186   0.018  0.00  0.00    +0.150 A 
ATOM      2  C   LIG    1       -0.059   3.860   0.036  0.00  0.00    +0.140 A 
ATOM      3  C   LIG    1       -1.246   3.150   0.052  0.00  0.00    -0.660 A 
ATOM      4  C   LIG    1       -1.229   1.768   0.046  0.00  0.00    +0.120 A 
ATOM      5  C   LIG    1       -0.026   1.087   0.034  0.00  0.00    -0.020 A 
ATOM      6  C   LIG    1        1.169   1.791   0.017  0.00  0.00    +0.110 A 
ENDROOT
BRANCH   1   8
ATOM      7  C   LIG    1        2.433   5.074  -0.664  0.00  0.00    +0.510 C 
ATOM      8  N   LIG    1        2.355   3.904   0.000  0.00  0.00    -0.660 N 
ATOM      9  H   LIG    1        3.133   3.558   0.466  0.00  0.00    +0.420 HD
ATOM     10  O   LIG    1        1.440   5.546  -1.179  0.00  0.00    -0.500 OA
BRANCH   7  11
ATOM     11  C   LIG    1        3.751   5.796  -0.768  0.00  0.00    +0.220 C 
BRANCH  11  15
ATOM     12  C   LIG    1        5.791  10.037  -2.209  0.00  0.00    +0.050 C 
ATOM     13  C   LIG    1        4.520   9.186  -2.219  0.00  0.00    +0.160 C 
ATOM     14  C   LIG    1        4.771   7.882  -1.458  0.00  0.00    +0.160 C 
ATOM     15  N   LIG    1        3.571   7.036  -1.535  0.00  0.00    -0.520 NA
ATOM     16  C   LIG    1        3.229   6.745  -2.935  0.00  0.00    +0.160 C 
ATOM     17  C   LIG    1        2.992   8.060  -3.681  0.00  0.00    +0.190 C 
ATOM     18  C   LIG    1        1.793   8.788  -3.069  0.00  0.00    +0.030 C 
ATOM     19  O   LIG    1        4.157   8.882  -3.569  0.00  0.00    -0.380 OA
ENDBRANCH  11  15
ENDBRANCH   7  11
ENDBRANCH   1   8
BRANCH   3  20
ATOM     20  S   LIG    1       -2.784   4.010   0.074  0.00  0.00    +2.700 S 
ATOM     21  O   LIG    1       -2.517   5.296   0.616  0.00  0.00    -0.950 OA
ATOM     22  O   LIG    1       -3.736   3.114   0.632  0.00  0.00    -0.950 OA
BRANCH  20  23
ATOM     23  N   LIG    1       -3.234   4.250  -1.501  0.00  0.00    -1.000 NA
ATOM     24  C   LIG    1       -2.814   5.463  -2.206  0.00  0.00    +0.310 C 
ATOM     25  C   LIG    1       -4.052   3.248  -2.190  0.00  0.00    +0.300 C 
ENDBRANCH  20  23
ENDBRANCH   3  20
BRANCH   6  26
ATOM     26  N   LIG    1        2.388   1.105  -0.002  0.00  0.00    -0.520 N 
ATOM     27  C   LIG    1        2.533   0.323  -1.237  0.00  0.00    +0.220 C 
ATOM     28  C   LIG    1        2.527   0.248   1.183  0.00  0.00    +0.210 C 
ENDBRANCH   6  26
TORSDOF 6
