REMARK  Name = ZINCpk00000xNY7r.0
REMARK                            x       y       z     vdW  Elec       q    Type
REMARK                         _______ _______ _______ _____ _____    ______ ____
ROOT
ATOM      1  N   LIG    1       -2.424   1.092   0.019  0.00  0.00    -0.710 N 
ATOM      2  H   LIG    1       -3.259   1.585   0.026  0.00  0.00    +0.410 HD
ENDROOT
BRANCH   1   3
ATOM      3  C   LIG    1       -1.216   1.773   0.017  0.00  0.00    +0.450 A 
ATOM      4  C   LIG    1       -0.013   1.076   0.008  0.00  0.00    -0.160 A 
ATOM      5  C   LIG    1        1.172   1.806   0.001  0.00  0.00    +0.370 A 
ATOM      6  N   LIG    1        1.111   3.136   0.008  0.00  0.00    -0.600 NA
ATOM      7  C   LIG    1       -0.049   3.760   0.023  0.00  0.00    +0.560 A 
ATOM      8  N   LIG    1       -1.192   3.105   0.030  0.00  0.00    -0.590 NA
BRANCH   5   9
ATOM      9  N   LIG    1        2.398   1.158  -0.015  0.00  0.00    -0.440 N 
ATOM     10  C   LIG    1        2.602   0.376   1.231  0.00  0.00    +0.190 C 
ATOM     11  C   LIG    1        4.131   0.180   1.321  0.00  0.00    +0.030 C 
ATOM     12  C   LIG    1        4.732   1.337   0.498  0.00  0.00    +0.040 C 
ATOM     13  C   LIG    1        3.517   2.135  -0.020  0.00  0.00    +0.170 C 
BRANCH  13  14
ATOM     14  C   LIG    1        3.776   2.641  -1.441  0.00  0.00    +0.190 C 
BRANCH  14  15
ATOM     15  O   LIG    1        4.229   1.559  -2.257  0.00  0.00    -0.560 OA
ATOM     16  H   LIG    1        4.414   1.808  -3.173  0.00  0.00    +0.380 HD
ENDBRANCH  14  15
ENDBRANCH  13  14
ENDBRANCH   5   9
ENDBRANCH   1   3
BRANCH   1  17
ATOM     17  C   LIG    1       -2.438  -0.373   0.011  0.00  0.00    +0.330 C 
BRANCH  17  22
ATOM     18  C   LIG    1       -5.841  -1.530  -1.173  0.00  0.00    -0.140 A 
ATOM     19  C   LIG    1       -6.489  -1.760   0.042  0.00  0.00    +0.050 A 
ATOM     20  C   LIG    1       -5.820  -1.540   1.229  0.00  0.00    +0.000 A 
ATOM     21  C   LIG    1       -4.510  -1.097   1.216  0.00  0.00    +0.060 A 
ATOM     22  C   LIG    1       -3.864  -0.861   0.015  0.00  0.00    -0.120 A 
ATOM     23  C   LIG    1       -4.521  -1.077  -1.178  0.00  0.00    +0.100 A 
BRANCH  18  27
ATOM     24  C   LIG    1       -8.529  -2.434  -3.704  0.00  0.00    +0.290 C 
ATOM     25  N   LIG    1       -7.826  -2.201  -2.440  0.00  0.00    -0.730 N 
ATOM     26  H   LIG    1       -8.278  -2.362  -1.597  0.00  0.00    +0.400 HD
ATOM     27  C   LIG    1       -6.551  -1.764  -2.448  0.00  0.00    +0.560 C 
ATOM     28  O   LIG    1       -5.985  -1.563  -3.505  0.00  0.00    -0.530 OA
ENDBRANCH  18  27
ENDBRANCH  17  22
ENDBRANCH   1  17
TORSDOF 7
