REMARK  Name = ZINCrD00000cg8Ie.0
REMARK                            x       y       z     vdW  Elec       q    Type
REMARK                         _______ _______ _______ _____ _____    ______ ____
ROOT
ATOM      1  C   LIG    1        4.286  -4.453  -0.429  0.00  0.00    +0.250 C 
ATOM      2  C   LIG    1        4.649  -4.894  -1.859  0.00  0.00    +0.050 C 
ATOM      3  C   LIG    1        5.404  -6.057  -1.214  0.00  0.00    -0.120 C 
ATOM      4  C   LIG    1        5.573  -7.395  -1.936  0.00  0.00    +0.290 C 
ATOM      5  N   LIG    1        6.949  -6.941  -2.225  0.00  0.00    -0.650 N 
ATOM      6  C   LIG    1        7.861  -7.240  -3.171  0.00  0.00    +0.610 C 
ATOM      7  O   LIG    1        8.948  -6.693  -3.163  0.00  0.00    -0.520 OA
ATOM      8  C   LIG    1        6.926  -6.028  -1.063  0.00  0.00    +0.310 C 
ATOM      9  C   LIG    1        4.484  -5.919  -0.002  0.00  0.00    +0.060 C 
ENDROOT
BRANCH   6  10
ATOM     10  C   LIG    1        7.544  -8.226  -4.210  0.00  0.00    -0.060 A 
ATOM     11  C   LIG    1        8.373  -8.623  -5.237  0.00  0.00    +0.050 A 
ATOM     12  C   LIG    1        7.674  -9.575  -5.986  0.00  0.00    -0.060 A 
ATOM     13  C   LIG    1        6.453  -9.732  -5.421  0.00  0.00    +0.190 A 
ATOM     14  N   LIG    1        6.361  -8.918  -4.341  0.00  0.00    -0.540 N 
ATOM     15  H   LIG    1        5.591  -8.837  -3.757  0.00  0.00    +0.410 HD
ENDBRANCH   6  10
BRANCH   1  17
ATOM     16  C   LIG    1        2.650  -2.668  -0.161  0.00  0.00    +0.530 C 
ATOM     17  N   LIG    1        2.905  -3.985  -0.293  0.00  0.00    -0.720 N 
ATOM     18  H   LIG    1        2.174  -4.622  -0.298  0.00  0.00    +0.400 HD
ATOM     19  O   LIG    1        3.564  -1.871  -0.155  0.00  0.00    -0.520 OA
BRANCH  16  21
ATOM     20  C   LIG    1        0.644  -2.700   1.296  0.00  0.00    +0.070 C 
ATOM     21  C   LIG    1        1.229  -2.185  -0.021  0.00  0.00    -0.040 C 
ATOM     22  C   LIG    1        0.394  -2.712  -1.190  0.00  0.00    +0.070 C 
BRANCH  21  23
ATOM     23  C   LIG    1        1.207  -0.679  -0.026  0.00  0.00    -0.050 A 
ATOM     24  C   LIG    1        1.581   0.014  -1.163  0.00  0.00    +0.030 A 
ATOM     25  C   LIG    1        1.561   1.397  -1.168  0.00  0.00    +0.020 A 
ATOM     26  C   LIG    1        1.169   2.087  -0.037  0.00  0.00    +0.020 A 
ATOM     27  C   LIG    1        0.795   1.394   1.101  0.00  0.00    -0.030 A 
ATOM     28 CL   LIG    1        0.295   2.260   2.520  0.00  0.00    -0.070 Cl
ATOM     29  C   LIG    1        0.814   0.011   1.106  0.00  0.00    +0.030 A 
ENDBRANCH  21  23
ENDBRANCH  16  21
ENDBRANCH   1  17
TORSDOF 4
