REMARK  Name = ZINCpk00000ebr8c.0
REMARK                            x       y       z     vdW  Elec       q    Type
REMARK                         _______ _______ _______ _____ _____    ______ ____
ROOT
ATOM      1  C   LIG    1        3.091  -5.262  -3.292  0.00  0.00    +0.450 A 
ATOM      2  C   LIG    1        2.623  -3.996  -2.943  0.00  0.00    -0.360 A 
ATOM      3  C   LIG    1        2.352  -3.309  -4.150  0.00  0.00    +0.320 A 
ATOM      4  N   LIG    1        2.644  -4.100  -5.143  0.00  0.00    -0.290 NA
ATOM      5  N   LIG    1        3.103  -5.322  -4.639  0.00  0.00    -0.390 N 
ENDROOT
BRANCH   1   6
ATOM      6  N   LIG    1        3.470  -6.264  -2.423  0.00  0.00    -0.830 N 
ATOM      7  H   LIG    1        3.783  -7.114  -2.771  0.00  0.00    +0.400 HD
ATOM      8  H   LIG    1        3.423  -6.119  -1.466  0.00  0.00    +0.430 HD
ENDBRANCH   1   6
BRANCH   2   9
ATOM      9  C   LIG    1        2.441  -3.477  -1.584  0.00  0.00    +0.560 C 
ATOM     10  O   LIG    1        2.708  -4.176  -0.625  0.00  0.00    -0.540 OA
BRANCH   9  11
ATOM     11  O   LIG    1        1.977  -2.225  -1.397  0.00  0.00    -0.350 OA
BRANCH  11  12
ATOM     12  C   LIG    1        1.822  -1.778  -0.024  0.00  0.00    +0.360 C 
BRANCH  12  13
ATOM     13  C   LIG    1        1.297  -0.365  -0.012  0.00  0.00    +0.280 A 
ATOM     14  N   LIG    1        2.022   0.724  -0.013  0.00  0.00    -0.520 NA
ATOM     15  C   LIG    1        1.229   1.795   0.000  0.00  0.00    +0.440 A 
ATOM     16  N   LIG    1       -0.017   1.400   0.010  0.00  0.00    -0.300 NA
ATOM     17  N   LIG    1        0.002  -0.004   0.002  0.00  0.00    -0.370 N 
BRANCH  17  18
ATOM     18  C   LIG    1       -1.159  -0.898   0.008  0.00  0.00    +0.320 C 
BRANCH  18  19
ATOM     19  C   LIG    1       -1.576  -1.201  -1.433  0.00  0.00    +0.230 C 
ATOM     20  F   LIG    1       -2.684  -2.054  -1.428  0.00  0.00    -0.200 F 
ENDBRANCH  18  19
ENDBRANCH  17  18
ENDBRANCH  12  13
ENDBRANCH  11  12
ENDBRANCH   9  11
ENDBRANCH   2   9
BRANCH   5  21
ATOM     21  C   LIG    1        3.524  -6.474  -5.440  0.00  0.00    +0.380 C 
BRANCH  21  22
ATOM     22  C   LIG    1        2.337  -7.364  -5.704  0.00  0.00    -0.120 A 
ATOM     23  C   LIG    1        2.031  -8.386  -4.826  0.00  0.00    +0.020 A 
ATOM     24  C   LIG    1        0.939  -9.200  -5.066  0.00  0.00    +0.010 A 
ATOM     25  C   LIG    1        0.160  -8.997  -6.189  0.00  0.00    +0.020 A 
ATOM     26  C   LIG    1        0.469  -7.977  -7.070  0.00  0.00    +0.010 A 
ATOM     27  C   LIG    1        1.558  -7.161  -6.828  0.00  0.00    +0.040 A 
ENDBRANCH  21  22
ENDBRANCH   5  21
TORSDOF 9
