REMARK  Name = ZINCpe000000VLY0.0
REMARK                            x       y       z     vdW  Elec       q    Type
REMARK                         _______ _______ _______ _____ _____    ______ ____
ROOT
ATOM      1  N   LIG    1        2.476  -0.098  -0.042  0.00  0.00    -0.590 N 
ATOM      2  C   LIG    1        2.477   1.226  -0.296  0.00  0.00    +0.570 C 
ATOM      3  O   LIG    1        3.528   1.834  -0.349  0.00  0.00    -0.510 OA
ATOM      4  C   LIG    1        1.220  -0.850  -0.079  0.00  0.00    +0.310 C 
ENDROOT
BRANCH   2   5
ATOM      5  C   LIG    1        1.199   1.938  -0.511  0.00  0.00    +0.010 A 
ATOM      6  C   LIG    1        0.903   3.130   0.185  0.00  0.00    -0.190 A 
ATOM      7  C   LIG    1        1.595   3.902   1.143  0.00  0.00    +0.120 A 
ATOM      8  N   LIG    1        0.856   4.926   1.463  0.00  0.00    -0.240 NA
ATOM      9  N   LIG    1       -0.345   4.886   0.745  0.00  0.00    -0.390 N 
ATOM     10  C   LIG    1       -1.432   5.865   0.833  0.00  0.00    +0.360 C 
ATOM     11  C   LIG    1        2.960   3.594   1.702  0.00  0.00    +0.170 C 
ATOM     12  C   LIG    1       -0.329   3.773  -0.054  0.00  0.00    +0.320 A 
ATOM     13  N   LIG    1       -1.191   3.260  -0.921  0.00  0.00    -0.490 NA
ATOM     14  C   LIG    1       -0.935   2.155  -1.586  0.00  0.00    +0.200 A 
ATOM     15  C   LIG    1       -1.958   1.632  -2.561  0.00  0.00    +0.140 C 
ATOM     16  C   LIG    1        0.248   1.455  -1.407  0.00  0.00    -0.040 A 
ENDBRANCH   2   5
BRANCH   1  17
ATOM     17  C   LIG    1        3.732  -0.785   0.271  0.00  0.00    +0.330 C 
BRANCH  17  20
ATOM     18  N   LIG    1        5.064  -1.330   2.282  0.00  0.00    -0.730 N 
ATOM     19  H   LIG    1        5.708  -1.763   1.700  0.00  0.00    +0.400 HD
ATOM     20  C   LIG    1        3.963  -0.755   1.760  0.00  0.00    +0.500 C 
ATOM     21  O   LIG    1        3.158  -0.213   2.488  0.00  0.00    -0.530 OA
BRANCH  18  22
ATOM     22  C   LIG    1        5.289  -1.301   3.730  0.00  0.00    +0.260 C 
BRANCH  22  23
ATOM     23  C   LIG    1        6.601  -2.018   4.057  0.00  0.00    +0.030 C 
BRANCH  23  24
ATOM     24  C   LIG    1        6.835  -1.987   5.568  0.00  0.00    +0.160 C 
BRANCH  24  26
ATOM     25  C   LIG    1        8.375  -2.686   7.267  0.00  0.00    +0.200 C 
ATOM     26  O   LIG    1        8.060  -2.657   5.874  0.00  0.00    -0.390 OA
ENDBRANCH  24  26
ENDBRANCH  23  24
ENDBRANCH  22  23
ENDBRANCH  18  22
ENDBRANCH  17  20
ENDBRANCH   1  17
TORSDOF 7
