REMARK  Name = ZINCrg000000nN7v.0
REMARK                            x       y       z     vdW  Elec       q    Type
REMARK                         _______ _______ _______ _____ _____    ______ ____
ROOT
ATOM      1  O   LIG    1       -3.112  -5.246   0.491  0.00  0.00    -0.330 OA
ENDROOT
BRANCH   1   2
ATOM      2  C   LIG    1       -3.673  -6.337  -0.053  0.00  0.00    +0.470 C 
ATOM      3  O   LIG    1       -2.991  -7.126  -0.663  0.00  0.00    -0.480 OA
BRANCH   2   4
ATOM      4  C   LIG    1       -5.153  -6.578   0.097  0.00  0.00    +0.220 C 
BRANCH   4   5
ATOM      5  C   LIG    1       -5.416  -7.298   1.394  0.00  0.00    -0.100 A 
ATOM      6  C   LIG    1       -5.226  -8.664   1.477  0.00  0.00    +0.060 A 
ATOM      7  C   LIG    1       -5.463  -9.324   2.669  0.00  0.00    +0.000 A 
ATOM      8  C   LIG    1       -5.899  -8.618   3.775  0.00  0.00    +0.010 A 
ATOM      9  C   LIG    1       -6.094  -7.253   3.690  0.00  0.00    +0.010 A 
ATOM     10  C   LIG    1       -5.853  -6.592   2.500  0.00  0.00    +0.030 A 
ENDBRANCH   4   5
BRANCH   4  11
ATOM     11  N   LIG    1       -5.632  -7.398  -1.024  0.00  0.00    -0.520 NA
ATOM     12  C   LIG    1       -7.047  -7.752  -0.851  0.00  0.00    +0.210 C 
BRANCH  11  14
ATOM     13  C   LIG    1       -5.539  -7.726  -3.449  0.00  0.00    +0.050 C 
ATOM     14  C   LIG    1       -5.412  -6.717  -2.307  0.00  0.00    +0.160 C 
ENDBRANCH  11  14
ENDBRANCH   4  11
ENDBRANCH   2   4
ENDBRANCH   1   2
BRANCH   1  15
ATOM     15  C   LIG    1       -1.682  -5.078   0.307  0.00  0.00    +0.180 C 
ATOM     16  C   LIG    1       -0.937  -5.752   1.461  0.00  0.00    +0.070 C 
BRANCH  15  17
ATOM     17  C   LIG    1       -1.347  -3.609   0.282  0.00  0.00    +0.520 C 
ATOM     18  N   LIG    1       -0.087  -3.209   0.021  0.00  0.00    -0.730 N 
ATOM     19  H   LIG    1        0.605  -3.867  -0.152  0.00  0.00    +0.400 HD
ATOM     20  O   LIG    1       -2.212  -2.786   0.498  0.00  0.00    -0.510 OA
BRANCH  18  21
ATOM     21  C   LIG    1        0.238  -1.781  -0.003  0.00  0.00    +0.270 C 
BRANCH  21  22
ATOM     22  C   LIG    1        1.724  -1.602  -0.321  0.00  0.00    +0.170 C 
BRANCH  22  23
ATOM     23  N   LIG    1        2.050  -0.170  -0.345  0.00  0.00    -0.530 NA
ATOM     24  C   LIG    1        1.376   0.506  -1.463  0.00  0.00    +0.150 C 
ATOM     25  C   LIG    1        1.695   2.002  -1.415  0.00  0.00    +0.220 C 
ATOM     26  O   LIG    1        3.113   2.184  -1.449  0.00  0.00    -0.380 OA
ATOM     27  C   LIG    1        3.802   1.540  -0.374  0.00  0.00    +0.220 C 
ATOM     28  C   LIG    1        3.504   0.039  -0.411  0.00  0.00    +0.160 C 
ENDBRANCH  22  23
ENDBRANCH  21  22
ENDBRANCH  18  21
ENDBRANCH  15  17
ENDBRANCH   1  15
TORSDOF 10
