REMARK  Name = ZINCrg00000wJjZ5.0
REMARK                            x       y       z     vdW  Elec       q    Type
REMARK                         _______ _______ _______ _____ _____    ______ ____
ROOT
ATOM      1  N   LIG    1       -0.044   3.288   3.351  0.00  0.00    -0.740 N 
ATOM      2  H   LIG    1        0.056   2.326   3.424  0.00  0.00    +0.410 HD
ATOM      3  C   LIG    1       -0.480   3.835   2.199  0.00  0.00    +0.710 C 
ATOM      4  N   LIG    1       -0.871   3.042   1.182  0.00  0.00    -0.630 N 
ATOM      5  C   LIG    1       -0.726   1.581   1.266  0.00  0.00    +0.280 C 
ATOM      6  C   LIG    1       -0.008   1.090   0.004  0.00  0.00    +0.210 C 
ATOM      7  N   LIG    1       -0.724   1.576  -1.184  0.00  0.00    -0.480 N 
ATOM      8  C   LIG    1       -0.709   3.044  -1.251  0.00  0.00    +0.190 C 
ATOM      9  C   LIG    1       -1.456   3.615  -0.040  0.00  0.00    +0.320 C 
ATOM     10  O   LIG    1       -0.519   5.045   2.076  0.00  0.00    -0.590 OA
ENDROOT
BRANCH   7  11
ATOM     11  C   LIG    1       -0.200   1.019  -2.344  0.00  0.00    +0.310 A 
ATOM     12  C   LIG    1       -0.749   1.353  -3.578  0.00  0.00    -0.050 A 
ATOM     13  C   LIG    1       -0.214   0.795  -4.725  0.00  0.00    -0.020 A 
ATOM     14  C   LIG    1        0.849  -0.089  -4.599  0.00  0.00    -0.070 A 
ATOM     15  C   LIG    1        1.341  -0.380  -3.342  0.00  0.00    +0.290 A 
ATOM     16  C   LIG    1       -0.777   1.134  -6.082  0.00  0.00    +0.100 C 
ATOM     17  N   LIG    1        0.815   0.172  -2.265  0.00  0.00    -0.530 NA
ENDBRANCH   7  11
BRANCH   1  18
ATOM     18  C   LIG    1        0.278   4.147   4.493  0.00  0.00    +0.320 C 
BRANCH  18  24
ATOM     19  C   LIG    1        0.763   4.916   9.422  0.00  0.00    +0.120 C 
ATOM     20  C   LIG    1        0.694   3.407   9.176  0.00  0.00    +0.020 C 
ATOM     21  C   LIG    1        1.540   3.055   7.949  0.00  0.00    +0.280 C 
ATOM     22  N   LIG    1        1.089   3.873   6.814  0.00  0.00    -0.610 N 
ATOM     23  C   LIG    1        1.036   5.332   6.972  0.00  0.00    +0.270 C 
ATOM     24  C   LIG    1        0.738   3.295   5.648  0.00  0.00    +0.510 C 
ATOM     25  O   LIG    1        0.791   2.089   5.529  0.00  0.00    -0.540 OA
ATOM     26  C   LIG    1        0.190   5.659   8.213  0.00  0.00    +0.020 C 
BRANCH  19  28
ATOM     27  C   LIG    1       -0.648   5.523  11.577  0.00  0.00    +0.020 C 
ATOM     28  C   LIG    1       -0.022   5.254  10.621  0.00  0.00    -0.190 C 
ENDBRANCH  19  28
ENDBRANCH  18  24
ENDBRANCH   1  18
TORSDOF 4
