REMARK  Name = ZINCrD00000hQ45Y.0
REMARK                            x       y       z     vdW  Elec       q    Type
REMARK                         _______ _______ _______ _____ _____    ______ ____
ROOT
ATOM      1  C   LIG    1       -3.903  -2.997   2.310  0.00  0.00    +0.540 C 
ATOM      2  N   LIG    1       -3.334  -2.235   1.356  0.00  0.00    -0.610 N 
ATOM      3  C   LIG    1       -2.707  -2.852   0.179  0.00  0.00    +0.270 C 
ATOM      4  C   LIG    1       -1.272  -2.328   0.053  0.00  0.00    +0.040 C 
ATOM      5  C   LIG    1       -1.294  -0.798   0.024  0.00  0.00    -0.030 C 
ATOM      6  C   LIG    1       -1.888  -0.269   1.332  0.00  0.00    +0.060 C 
ATOM      7  C   LIG    1       -3.329  -0.770   1.472  0.00  0.00    +0.290 C 
ATOM      8  O   LIG    1       -4.498  -2.474   3.232  0.00  0.00    -0.540 OA
ENDROOT
BRANCH   5   9
ATOM      9  C   LIG    1       -2.135  -0.329  -1.135  0.00  0.00    +0.530 C 
ATOM     10  N   LIG    1       -1.722  -0.547  -2.399  0.00  0.00    -0.600 N 
ATOM     11  C   LIG    1       -0.501  -1.320  -2.665  0.00  0.00    +0.260 C 
ATOM     12  C   LIG    1       -0.838  -2.455  -3.636  0.00  0.00    +0.010 C 
ATOM     13  C   LIG    1       -1.498  -1.872  -4.888  0.00  0.00    +0.030 C 
ATOM     14  C   LIG    1       -2.799  -1.166  -4.499  0.00  0.00    +0.000 C 
ATOM     15  C   LIG    1       -2.487  -0.021  -3.538  0.00  0.00    +0.280 C 
ATOM     16  O   LIG    1       -3.184   0.244  -0.930  0.00  0.00    -0.530 OA
BRANCH  14  17
ATOM     17  C   LIG    1       -3.474  -0.611  -5.755  0.00  0.00    -0.040 C 
ATOM     18  C   LIG    1       -4.947  -0.958  -5.977  0.00  0.00    +0.000 C 
ATOM     19  C   LIG    1       -3.868  -1.610  -6.845  0.00  0.00    +0.000 C 
ENDBRANCH  14  17
ENDBRANCH   5   9
BRANCH   5  20
ATOM     20  C   LIG    1        0.113  -0.279  -0.134  0.00  0.00    -0.080 A 
ATOM     21  C   LIG    1        0.333   1.071  -0.333  0.00  0.00    +0.010 A 
ATOM     22  C   LIG    1        1.623   1.547  -0.478  0.00  0.00    +0.010 A 
ATOM     23  C   LIG    1        2.692   0.672  -0.425  0.00  0.00    +0.000 A 
ATOM     24  C   LIG    1        2.472  -0.678  -0.226  0.00  0.00    +0.020 A 
ATOM     25  C   LIG    1        1.182  -1.153  -0.080  0.00  0.00    +0.010 A 
ENDBRANCH   5  20
BRANCH   1  27
ATOM     26  C   LIG    1       -4.275  -5.212   3.228  0.00  0.00    +0.140 C 
ATOM     27  C   LIG    1       -3.805  -4.463   2.235  0.00  0.00    -0.090 C 
ENDBRANCH   1  27
TORSDOF 4
