REMARK  Name = ZINCrD000000BBd5.0
REMARK                            x       y       z     vdW  Elec       q    Type
REMARK                         _______ _______ _______ _____ _____    ______ ____
ROOT
ATOM      1  C   LIG    1        0.528   4.937  -0.415  0.00  0.00    -0.140 A 
ATOM      2  C   LIG    1       -0.780   4.452  -0.403  0.00  0.00    +0.120 A 
ATOM      3  C   LIG    1       -1.010   3.097  -0.277  0.00  0.00    +0.020 A 
ATOM      4  C   LIG    1        0.055   2.221  -0.154  0.00  0.00    +0.080 A 
ATOM      5  C   LIG    1        1.356   2.696  -0.166  0.00  0.00    -0.680 A 
ATOM      6 CL   LIG    1       -0.241   0.518   0.010  0.00  0.00    -0.020 Cl
ATOM      7  C   LIG    1        1.598   4.048  -0.295  0.00  0.00    +0.220 A 
ENDROOT
BRANCH   1   9
ATOM      8  O   LIG    1        1.921   6.807  -0.564  0.00  0.00    -0.500 OA
ATOM      9  C   LIG    1        0.781   6.386  -0.554  0.00  0.00    +0.570 C 
ATOM     10  N   LIG    1       -0.254   7.242  -0.669  0.00  0.00    -0.600 N 
ATOM     11  H   LIG    1       -1.164   6.907  -0.661  0.00  0.00    +0.410 HD
BRANCH  10  12
ATOM     12  O   LIG    1       -0.012   8.631  -0.802  0.00  0.00    -0.130 OA
BRANCH  12  13
ATOM     13  C   LIG    1       -1.199   9.420  -0.915  0.00  0.00    +0.210 C 
BRANCH  13  14
ATOM     14  C   LIG    1       -0.825  10.873  -1.051  0.00  0.00    -0.100 A 
ATOM     15  C   LIG    1       -0.693  11.661   0.077  0.00  0.00    +0.040 A 
ATOM     16  C   LIG    1       -0.345  12.993  -0.047  0.00  0.00    +0.010 A 
ATOM     17  C   LIG    1       -0.140  13.540  -1.300  0.00  0.00    +0.020 A 
ATOM     18  C   LIG    1       -0.278  12.754  -2.428  0.00  0.00    +0.010 A 
ATOM     19  C   LIG    1       -0.620  11.420  -2.304  0.00  0.00    +0.040 A 
ENDBRANCH  13  14
ENDBRANCH  12  13
ENDBRANCH  10  12
ENDBRANCH   1   9
BRANCH   5  20
ATOM     20  S   LIG    1        2.705   1.573  -0.015  0.00  0.00    +2.690 S 
ATOM     21  O   LIG    1        2.377   0.693   1.052  0.00  0.00    -0.930 OA
ATOM     22  O   LIG    1        3.888   2.360  -0.037  0.00  0.00    -0.940 OA
BRANCH  20  23
ATOM     23  N   LIG    1        2.731   0.650  -1.390  0.00  0.00    -0.990 NA
ATOM     24  C   LIG    1        2.118  -0.685  -1.407  0.00  0.00    +0.290 C 
ATOM     25  C   LIG    1        1.124  -0.751  -2.577  0.00  0.00    +0.010 C 
ATOM     26  C   LIG    1        1.844  -0.373  -3.873  0.00  0.00    +0.020 C 
ATOM     27  C   LIG    1        2.369   1.060  -3.768  0.00  0.00    +0.010 C 
ATOM     28  C   LIG    1        3.373   1.149  -2.614  0.00  0.00    +0.290 C 
ENDBRANCH  20  23
ENDBRANCH   5  20
TORSDOF 6
