REMARK  Name = ZINCvU0000000HSb.0
REMARK                            x       y       z     vdW  Elec       q    Type
REMARK                         _______ _______ _______ _____ _____    ______ ____
ROOT
ATOM      1  C   LIG    1       -2.840   0.948   0.047  0.00  0.00    +0.550 C 
ATOM      2  N   LIG    1       -2.695  -0.381   0.221  0.00  0.00    -0.710 N 
ATOM      3  H   LIG    1       -1.816  -0.754   0.393  0.00  0.00    +0.410 HD
ATOM      4  O   LIG    1       -3.941   1.417  -0.169  0.00  0.00    -0.510 OA
ENDROOT
BRANCH   1  10
ATOM      5  C   LIG    1       -1.810   3.219  -0.056  0.00  0.00    -0.060 A 
ATOM      6  C   LIG    1       -0.692   4.042   0.008  0.00  0.00    -0.010 A 
ATOM      7  C   LIG    1        0.553   3.499   0.247  0.00  0.00    +0.060 A 
ATOM      8  C   LIG    1        0.701   2.132   0.426  0.00  0.00    +0.000 A 
ATOM      9  C   LIG    1       -0.396   1.300   0.367  0.00  0.00    +0.070 A 
ATOM     10  C   LIG    1       -1.663   1.833   0.119  0.00  0.00    -0.130 A 
BRANCH   5  11
ATOM     11  S   LIG    1       -3.402   3.910  -0.362  0.00  0.00    +0.110 S 
BRANCH  11  17
ATOM     12  C   LIG    1       -2.932   6.289   0.935  0.00  0.00    +0.020 A 
ATOM     13  C   LIG    1       -2.687   7.664   0.968  0.00  0.00    +0.060 A 
ATOM     14  C   LIG    1       -2.623   8.380  -0.208  0.00  0.00    +0.050 A 
ATOM     15  C   LIG    1       -2.795   7.742  -1.426  0.00  0.00    +0.040 A 
ATOM     16  C   LIG    1       -3.031   6.383  -1.476  0.00  0.00    +0.080 A 
ATOM     17  C   LIG    1       -3.099   5.645  -0.302  0.00  0.00    -0.150 A 
BRANCH  12  19
ATOM     18  N   LIG    1       -3.063   4.947   3.120  0.00  0.00    -0.390 NA
ATOM     19  C   LIG    1       -3.005   5.541   2.154  0.00  0.00    +0.240 C 
ENDBRANCH  12  19
ENDBRANCH  11  17
ENDBRANCH   5  11
ENDBRANCH   1  10
BRANCH   2  20
ATOM     20  C   LIG    1       -3.864  -1.260   0.150  0.00  0.00    +0.290 C 
BRANCH  20  21
ATOM     21  C   LIG    1       -3.427  -2.709   0.380  0.00  0.00    +0.280 C 
BRANCH  21  22
ATOM     22  N   LIG    1       -2.370  -3.060  -0.578  0.00  0.00    -0.520 NA
ATOM     23  C   LIG    1       -2.807  -2.809  -1.958  0.00  0.00    +0.180 C 
ATOM     24  C   LIG    1       -1.637  -3.046  -2.915  0.00  0.00    +0.030 C 
ATOM     25  C   LIG    1       -1.149  -4.490  -2.769  0.00  0.00    +0.000 C 
ATOM     26  C   LIG    1       -0.746  -4.740  -1.313  0.00  0.00    +0.020 C 
ATOM     27  C   LIG    1       -1.942  -4.453  -0.402  0.00  0.00    +0.180 C 
ENDBRANCH  21  22
BRANCH  21  28
ATOM     28  C   LIG    1       -4.607  -3.626   0.185  0.00  0.00    -0.050 A 
ATOM     29  C   LIG    1       -5.326  -4.201   1.166  0.00  0.00    -0.040 A 
ATOM     30  C   LIG    1       -6.329  -4.974   0.538  0.00  0.00    -0.060 A 
ATOM     31  C   LIG    1       -6.163  -4.827  -0.788  0.00  0.00    +0.160 A 
ATOM     32  O   LIG    1       -5.121  -4.004  -0.996  0.00  0.00    -0.170 OA
ENDBRANCH  21  28
ENDBRANCH  20  21
ENDBRANCH   2  20
TORSDOF 8
