REMARK  Name = ZINCpe000000Yi18.0
REMARK                            x       y       z     vdW  Elec       q    Type
REMARK                         _______ _______ _______ _____ _____    ______ ____
ROOT
ATOM      1  N   LIG    1        1.653   3.103  -0.810  0.00  0.00    -0.720 N 
ATOM      2  H   LIG    1        1.026   3.314  -1.520  0.00  0.00    +0.410 HD
ATOM      3  C   LIG    1        2.697   3.921  -0.568  0.00  0.00    +0.490 C 
ATOM      4  O   LIG    1        3.480   3.657   0.319  0.00  0.00    -0.520 OA
ENDROOT
BRANCH   1   7
ATOM      5  N   LIG    1        0.002  -0.004   0.002  0.00  0.00    -0.530 N 
ATOM      6  C   LIG    1       -0.018   1.463   0.010  0.00  0.00    +0.290 C 
ATOM      7  C   LIG    1        1.465   1.896  -0.002  0.00  0.00    +0.260 C 
ATOM      8  C   LIG    1        2.144   0.675  -0.664  0.00  0.00    +0.060 C 
ATOM      9  C   LIG    1        1.203  -0.474  -0.379  0.00  0.00    +0.520 C 
ATOM     10  O   LIG    1        1.489  -1.649  -0.478  0.00  0.00    -0.520 OA
BRANCH   5  14
ATOM     11  C   LIG    1       -2.820  -3.944   0.892  0.00  0.00    +0.360 C 
ATOM     12  N   LIG    1       -2.356  -2.562   0.747  0.00  0.00    -0.370 N 
ATOM     13  C   LIG    1       -1.117  -2.172   0.348  0.00  0.00    +0.230 A 
ATOM     14  C   LIG    1       -1.095  -0.815   0.349  0.00  0.00    +0.000 A 
ATOM     15  C   LIG    1       -2.361  -0.365   0.750  0.00  0.00    +0.230 A 
ATOM     16  N   LIG    1       -3.113  -1.409   0.987  0.00  0.00    -0.280 NA
ENDBRANCH   5  14
ENDBRANCH   1   7
BRANCH   3  17
ATOM     17  C   LIG    1        2.890   5.162  -1.400  0.00  0.00    +0.230 C 
BRANCH  17  18
ATOM     18  O   LIG    1        4.117   5.796  -1.032  0.00  0.00    -0.530 OA
ATOM     19  H   LIG    1        4.159   6.064  -0.104  0.00  0.00    +0.380 HD
ENDBRANCH  17  18
BRANCH  17  20
ATOM     20  C   LIG    1        1.726   6.126  -1.156  0.00  0.00    +0.070 C 
BRANCH  20  21
ATOM     21  C   LIG    1        1.854   7.312  -2.077  0.00  0.00    -0.070 A 
ATOM     22  C   LIG    1        1.265   7.282  -3.327  0.00  0.00    +0.020 A 
ATOM     23  C   LIG    1        1.381   8.370  -4.172  0.00  0.00    +0.030 A 
ATOM     24  C   LIG    1        2.087   9.487  -3.768  0.00  0.00    +0.020 A 
ATOM     25  C   LIG    1        2.678   9.517  -2.517  0.00  0.00    -0.030 A 
ATOM     26 CL   LIG    1        3.565  10.920  -2.008  0.00  0.00    -0.070 Cl
ATOM     27  C   LIG    1        2.556   8.431  -1.669  0.00  0.00    +0.040 A 
ENDBRANCH  20  21
ENDBRANCH  17  20
ENDBRANCH   3  17
TORSDOF 6
