REMARK  Name = ZINCpk00000ebFZ7.0
REMARK                            x       y       z     vdW  Elec       q    Type
REMARK                         _______ _______ _______ _____ _____    ______ ____
ROOT
ATOM      1  O   LIG    1       -6.729   1.705  -2.235  0.00  0.00    -0.560 OA
ATOM      2  C   LIG    1       -6.113   1.212  -1.310  0.00  0.00    +0.710 C 
ATOM      3  N   LIG    1       -4.884   1.669  -0.998  0.00  0.00    -0.630 N 
ATOM      4  C   LIG    1       -4.347   2.873  -1.647  0.00  0.00    +0.310 C 
ATOM      5  C   LIG    1       -2.999   2.524  -2.289  0.00  0.00    +0.290 C 
ATOM      6  N   LIG    1       -2.172   1.826  -1.295  0.00  0.00    -0.610 N 
ATOM      7  C   LIG    1       -2.706   0.619  -0.651  0.00  0.00    +0.270 C 
ATOM      8  C   LIG    1       -0.942   2.283  -0.984  0.00  0.00    +0.530 C 
ATOM      9  O   LIG    1       -0.532   3.309  -1.483  0.00  0.00    -0.520 OA
ATOM     10  C   LIG    1       -4.057   0.971  -0.004  0.00  0.00    +0.260 C 
ATOM     11  N   LIG    1       -6.660   0.208  -0.596  0.00  0.00    -0.680 N 
ATOM     12  H   LIG    1       -6.126  -0.270   0.058  0.00  0.00    +0.410 HD
ENDROOT
BRANCH   8  13
ATOM     13  C   LIG    1       -0.077   1.517  -0.017  0.00  0.00    +0.010 C 
ATOM     14  C   LIG    1        1.046   2.423   0.518  0.00  0.00    +0.100 C 
ATOM     15  C   LIG    1        2.098   1.544   1.222  0.00  0.00    -0.300 C 
ATOM     16  S   LIG    1        1.988  -0.085   0.396  0.00  0.00    +2.390 S 
ATOM     17  O   LIG    1        3.172  -0.311  -0.357  0.00  0.00    -0.930 OA
ATOM     18  O   LIG    1        1.544  -1.058   1.331  0.00  0.00    -0.930 OA
ATOM     19  C   LIG    1        0.615   0.335  -0.743  0.00  0.00    -0.300 C 
ENDBRANCH   8  13
BRANCH  11  20
ATOM     20  C   LIG    1       -7.999  -0.145  -0.797  0.00  0.00    +0.170 A 
ATOM     21  C   LIG    1       -8.705  -0.796   0.206  0.00  0.00    -0.020 A 
ATOM     22  C   LIG    1      -10.027  -1.144   0.005  0.00  0.00    +0.060 A 
ATOM     23  C   LIG    1      -10.648  -0.844  -1.193  0.00  0.00    +0.000 A 
ATOM     24  C   LIG    1       -9.948  -0.194  -2.195  0.00  0.00    -0.010 A 
ATOM     25 CL   LIG    1      -10.731   0.181  -3.698  0.00  0.00    -0.060 Cl
ATOM     26  C   LIG    1       -8.627   0.161  -1.997  0.00  0.00    +0.030 A 
ENDBRANCH  11  20
TORSDOF 2
