REMARK  Name = ZINCpk00000ka7Mt.0
REMARK                            x       y       z     vdW  Elec       q    Type
REMARK                         _______ _______ _______ _____ _____    ______ ____
ROOT
ATOM      1  C   LIG    1        9.320   1.078   0.223  0.00  0.00    +0.550 C 
ATOM      2  N   LIG    1        7.978   1.175   0.152  0.00  0.00    -0.640 N 
ATOM      3  C   LIG    1        6.905   1.414   1.137  0.00  0.00    +0.330 C 
ATOM      4  C   LIG    1        6.080   1.948  -0.047  0.00  0.00    -0.010 C 
ATOM      5  C   LIG    1        6.233   3.453  -0.276  0.00  0.00    +0.100 C 
ATOM      6  C   LIG    1        6.990   1.089  -0.944  0.00  0.00    +0.330 C 
ATOM      7  O   LIG    1        9.882   1.197   1.291  0.00  0.00    -0.520 OA
ENDROOT
BRANCH   4   8
ATOM      8  C   LIG    1        4.641   1.500  -0.036  0.00  0.00    +0.170 A 
ATOM      9  N   LIG    1        4.220   0.267  -0.039  0.00  0.00    -0.270 NA
ATOM     10  N   LIG    1        2.933   0.251  -0.026  0.00  0.00    -0.280 NA
ATOM     11  C   LIG    1        2.486   1.485  -0.014  0.00  0.00    +0.270 A 
ATOM     12  O   LIG    1        3.560   2.300  -0.025  0.00  0.00    -0.200 OA
BRANCH  11  13
ATOM     13  C   LIG    1        1.069   1.903   0.002  0.00  0.00    +0.040 A 
ATOM     14  C   LIG    1       -0.013   1.076   0.008  0.00  0.00    +0.240 A 
ATOM     15  N   LIG    1       -1.119   1.875   0.017  0.00  0.00    -0.460 N 
ATOM     16  C   LIG    1       -0.689   3.163   0.025  0.00  0.00    +0.420 A 
ATOM     17  C   LIG    1       -2.513   1.427   0.020  0.00  0.00    +0.350 C 
ATOM     18  N   LIG    1        0.614   3.175   0.013  0.00  0.00    -0.470 NA
ENDBRANCH  11  13
ENDBRANCH   4   8
BRANCH   1  19
ATOM     19  C   LIG    1       10.124   0.820  -1.026  0.00  0.00    +0.000 C 
ATOM     20  C   LIG    1        9.688  -0.509  -1.647  0.00  0.00    +0.050 C 
BRANCH  19  21
ATOM     21  C   LIG    1       11.611   0.754  -0.671  0.00  0.00    +0.020 C 
ATOM     22  C   LIG    1       12.046   2.083  -0.050  0.00  0.00    +0.020 C 
BRANCH  21  23
ATOM     23  C   LIG    1       12.426   0.493  -1.939  0.00  0.00    +0.160 C 
BRANCH  23  25
ATOM     24  C   LIG    1       14.655   0.064  -2.711  0.00  0.00    +0.200 C 
ATOM     25  O   LIG    1       13.801   0.316  -1.593  0.00  0.00    -0.390 OA
ENDBRANCH  23  25
ENDBRANCH  21  23
ENDBRANCH  19  21
ENDBRANCH   1  19
TORSDOF 6
