REMARK  Name = ZINCrD00000l5yZR.0
REMARK                            x       y       z     vdW  Elec       q    Type
REMARK                         _______ _______ _______ _____ _____    ______ ____
ROOT
ATOM      1  C   LIG    1        1.350  -2.019  -0.057  0.00  0.00    +0.270 C 
ATOM      2  C   LIG    1        1.742  -2.373  -1.507  0.00  0.00    +0.050 C 
ATOM      3  C   LIG    1        2.711  -3.570  -1.322  0.00  0.00    +0.040 C 
ATOM      4  C   LIG    1        3.441  -3.181  -0.013  0.00  0.00    +0.250 C 
ATOM      5  N   LIG    1        2.405  -2.544   0.822  0.00  0.00    -0.610 N 
ATOM      6  C   LIG    1        2.424  -2.457   2.166  0.00  0.00    +0.570 C 
ATOM      7  O   LIG    1        1.547  -1.848   2.748  0.00  0.00    -0.520 OA
ENDROOT
BRANCH   1  12
ATOM      8  C   LIG    1       -0.075   1.469   0.242  0.00  0.00    +0.130 A 
ATOM      9  C   LIG    1        1.079   2.225   0.380  0.00  0.00    -0.080 A 
ATOM     10  C   LIG    1        2.315   1.607   0.377  0.00  0.00    +0.040 A 
ATOM     11  C   LIG    1        2.401   0.234   0.236  0.00  0.00    -0.020 A 
ATOM     12  C   LIG    1        1.252  -0.523   0.097  0.00  0.00    -0.050 A 
ATOM     13  C   LIG    1        0.015   0.091   0.100  0.00  0.00    -0.010 A 
BRANCH   8  15
ATOM     14  C   LIG    1       -1.306   3.497   0.390  0.00  0.00    +0.250 C 
ATOM     15  O   LIG    1       -1.290   2.076   0.240  0.00  0.00    -0.320 OA
ENDBRANCH   8  15
ENDBRANCH   1  12
BRANCH   6  16
ATOM     16  C   LIG    1        3.511  -3.101   2.934  0.00  0.00    -0.130 A 
ATOM     17  C   LIG    1        3.291  -3.513   4.249  0.00  0.00    +0.070 A 
ATOM     18  C   LIG    1        4.308  -4.117   4.959  0.00  0.00    +0.010 A 
ATOM     19  C   LIG    1        5.547  -4.306   4.372  0.00  0.00    -0.060 A 
ATOM     20  C   LIG    1        5.773  -3.895   3.071  0.00  0.00    +0.010 A 
ATOM     21  C   LIG    1        4.763  -3.294   2.349  0.00  0.00    +0.040 A 
BRANCH  19  22
ATOM     22  C   LIG    1        6.656  -4.961   5.155  0.00  0.00    +0.070 C 
BRANCH  22  23
ATOM     23  C   LIG    1        7.455  -3.891   5.902  0.00  0.00    +0.260 C 
BRANCH  23  24
ATOM     24  N   LIG    1        8.532  -4.528   6.663  0.00  0.00    -0.740 N 
ATOM     25  H   LIG    1        8.642  -5.491   6.635  0.00  0.00    +0.400 HD
ATOM     26  C   LIG    1        9.371  -3.775   7.402  0.00  0.00    +0.510 C 
ATOM     27  O   LIG    1        9.234  -2.571   7.437  0.00  0.00    -0.540 OA
ATOM     28  C   LIG    1       10.479  -4.431   8.185  0.00  0.00    +0.090 C 
ENDBRANCH  23  24
ENDBRANCH  22  23
ENDBRANCH  19  22
ENDBRANCH   6  16
TORSDOF 6
