REMARK  Name = ZINCpe00000RcaQN.0
REMARK                            x       y       z     vdW  Elec       q    Type
REMARK                         _______ _______ _______ _____ _____    ______ ____
ROOT
ATOM      1  N   LIG    1       -0.723   1.572  -1.182  0.00  0.00    -0.510 NA
ATOM      2  C   LIG    1       -0.013   1.086   0.008  0.00  0.00    +0.180 C 
ATOM      3  C   LIG    1       -0.729   1.579   1.267  0.00  0.00    +0.040 C 
ATOM      4  C   LIG    1       -0.764   3.110   1.262  0.00  0.00    +0.000 C 
ATOM      5  C   LIG    1       -1.466   3.591  -0.011  0.00  0.00    +0.230 C 
ATOM      6  C   LIG    1       -0.729   3.040  -1.234  0.00  0.00    +0.220 C 
ENDROOT
BRANCH   5   7
ATOM      7  C   LIG    1       -1.454   5.098  -0.054  0.00  0.00    -0.020 A 
ATOM      8  N   LIG    1       -0.905   5.859  -0.973  0.00  0.00    -0.270 NA
ATOM      9  N   LIG    1       -1.107   7.091  -0.663  0.00  0.00    -0.250 N 
ATOM     10  H   LIG    1       -0.800   7.848  -1.186  0.00  0.00    +0.470 HD
ATOM     11  N   LIG    1       -1.767   7.182   0.437  0.00  0.00    -0.280 NA
ATOM     12  C   LIG    1       -2.021   5.970   0.878  0.00  0.00    +0.190 A 
ENDBRANCH   5   7
BRANCH   5  13
ATOM     13  O   LIG    1       -2.817   3.124  -0.017  0.00  0.00    -0.520 OA
ATOM     14  H   LIG    1       -3.344   3.436   0.731  0.00  0.00    +0.370 HD
ENDBRANCH   5  13
BRANCH   1  15
ATOM     15  C   LIG    1       -0.145   1.005  -2.408  0.00  0.00    +0.200 C 
BRANCH  15  18
ATOM     16  C   LIG    1        0.778  -0.573  -4.573  0.00  0.00    +0.270 C 
ATOM     17  N   LIG    1        0.064  -1.220  -3.470  0.00  0.00    -0.620 N 
ATOM     18  C   LIG    1       -0.382  -0.483  -2.432  0.00  0.00    +0.520 C 
ATOM     19  O   LIG    1       -0.973  -1.019  -1.519  0.00  0.00    -0.510 OA
BRANCH  17  20
ATOM     20  C   LIG    1       -0.166  -2.666  -3.494  0.00  0.00    +0.350 C 
BRANCH  20  21
ATOM     21  C   LIG    1       -1.478  -2.955  -4.178  0.00  0.00    -0.120 A 
ATOM     22  C   LIG    1       -2.643  -3.021  -3.438  0.00  0.00    +0.080 A 
ATOM     23  C   LIG    1       -3.847  -3.280  -4.065  0.00  0.00    -0.020 A 
ATOM     24  C   LIG    1       -3.884  -3.485  -5.434  0.00  0.00    +0.100 A 
ATOM     25  C   LIG    1       -2.715  -3.425  -6.173  0.00  0.00    -0.020 A 
ATOM     26  F   LIG    1       -5.059  -3.744  -6.047  0.00  0.00    -0.140 F 
ATOM     27  C   LIG    1       -1.513  -3.160  -5.545  0.00  0.00    +0.050 A 
ENDBRANCH  20  21
ENDBRANCH  17  20
ENDBRANCH  15  18
ENDBRANCH   1  15
TORSDOF 6
