REMARK  Name = ZINCvU00000007bi.0
REMARK                            x       y       z     vdW  Elec       q    Type
REMARK                         _______ _______ _______ _____ _____    ______ ____
ROOT
ATOM      1  C   LIG    1       -6.685   5.829   2.519  0.00  0.00    +0.240 C 
ENDROOT
BRANCH   1   2
ATOM      2  C   LIG    1       -6.517   5.574   3.995  0.00  0.00    -0.130 A 
ATOM      3  C   LIG    1       -5.251   5.518   4.547  0.00  0.00    +0.010 A 
ATOM      4  C   LIG    1       -5.097   5.289   5.902  0.00  0.00    +0.020 A 
ATOM      5  C   LIG    1       -6.209   5.106   6.702  0.00  0.00    +0.020 A 
ATOM      6  C   LIG    1       -7.475   5.156   6.150  0.00  0.00    +0.020 A 
ATOM      7  C   LIG    1       -7.629   5.390   4.796  0.00  0.00    +0.020 A 
ENDBRANCH   1   2
BRANCH   1   9
ATOM      8  O   LIG    1       -5.677   7.705   1.504  0.00  0.00    -0.490 OA
ATOM      9  C   LIG    1       -6.549   7.304   2.246  0.00  0.00    +0.520 C 
ATOM     10  N   LIG    1       -7.395   8.179   2.826  0.00  0.00    -0.670 N 
ATOM     11  H   LIG    1       -8.133   7.854   3.365  0.00  0.00    +0.410 HD
BRANCH  10  12
ATOM     12  C   LIG    1       -7.208   9.555   2.650  0.00  0.00    +0.140 A 
ATOM     13  C   LIG    1       -7.507  10.435   3.682  0.00  0.00    +0.020 A 
ATOM     14  C   LIG    1       -7.317  11.792   3.508  0.00  0.00    +0.010 A 
ATOM     15  C   LIG    1       -6.840  12.276   2.301  0.00  0.00    +0.080 A 
ATOM     16  C   LIG    1       -6.547  11.401   1.269  0.00  0.00    +0.010 A 
ATOM     17  F   LIG    1       -6.661  13.604   2.131  0.00  0.00    -0.140 F 
ATOM     18  C   LIG    1       -6.730  10.043   1.441  0.00  0.00    +0.060 A 
ENDBRANCH  10  12
ENDBRANCH   1   9
BRANCH   1  19
ATOM     19  N   LIG    1       -5.653   5.095   1.775  0.00  0.00    -0.660 NA
ATOM     20  H   LIG    1       -4.769   5.121   2.261  0.00  0.00    +0.350 HD
BRANCH  19  21
ATOM     21  C   LIG    1       -6.072   3.711   1.520  0.00  0.00    +0.240 C 
BRANCH  21  22
ATOM     22  C   LIG    1       -4.991   2.991   0.756  0.00  0.00    -0.070 A 
ATOM     23  C   LIG    1       -4.998   3.004  -0.626  0.00  0.00    +0.070 A 
ATOM     24  C   LIG    1       -4.008   2.345  -1.335  0.00  0.00    -0.040 A 
ATOM     25  C   LIG    1       -3.009   1.671  -0.651  0.00  0.00    +0.080 A 
ATOM     26  O   LIG    1       -2.026   1.017  -1.337  0.00  0.00    -0.310 OA
ATOM     27  C   LIG    1       -0.715   1.574  -1.233  0.00  0.00    +0.230 C 
ATOM     28  C   LIG    1       -0.015   1.078   0.022  0.00  0.00    -0.010 C 
ATOM     29  C   LIG    1       -0.705   1.551   1.292  0.00  0.00    +0.230 C 
ATOM     30  O   LIG    1       -2.013   0.992   1.399  0.00  0.00    -0.310 OA
ATOM     31  C   LIG    1       -3.002   1.658   0.736  0.00  0.00    +0.080 A 
ATOM     32 CL   LIG    1       -4.018   2.364  -3.070  0.00  0.00    -0.040 Cl
ATOM     33  C   LIG    1       -3.994   2.319   1.441  0.00  0.00    +0.040 A 
ENDBRANCH  21  22
ENDBRANCH  19  21
ENDBRANCH   1  19
TORSDOF 6
