REMARK  Name = ZINCpk00000l7AAL.0
REMARK                            x       y       z     vdW  Elec       q    Type
REMARK                         _______ _______ _______ _____ _____    ______ ____
ROOT
ATOM      1  O   LIG    1        2.699  -2.164  -2.433  0.00  0.00    -0.520 OA
ATOM      2  C   LIG    1        3.794  -1.659  -2.276  0.00  0.00    +0.570 C 
ATOM      3  N   LIG    1        3.944  -0.626  -1.425  0.00  0.00    -0.610 N 
ATOM      4  C   LIG    1        5.279  -0.088  -1.129  0.00  0.00    +0.270 C 
ATOM      5  C   LIG    1        5.494  -0.115   0.389  0.00  0.00    +0.290 C 
ATOM      6  N   LIG    1        4.325   0.494   1.040  0.00  0.00    -0.610 N 
ATOM      7  C   LIG    1        2.990  -0.048   0.748  0.00  0.00    +0.280 C 
ATOM      8  C   LIG    1        4.475   1.527   1.892  0.00  0.00    +0.560 C 
ATOM      9  O   LIG    1        5.569   2.022   2.057  0.00  0.00    -0.530 OA
ATOM     10  C   LIG    1        2.775  -0.017  -0.774  0.00  0.00    +0.290 C 
ENDROOT
BRANCH   2  11
ATOM     11  C   LIG    1        4.961  -2.179  -3.021  0.00  0.00    -0.240 A 
ATOM     12  C   LIG    1        5.937  -1.313  -3.524  0.00  0.00    +0.360 A 
ATOM     13  N   LIG    1        6.967  -1.821  -4.178  0.00  0.00    -0.520 NA
ATOM     14  C   LIG    1        7.075  -3.122  -4.369  0.00  0.00    +0.530 A 
ATOM     15  N   LIG    1        6.175  -3.973  -3.916  0.00  0.00    -0.520 NA
ATOM     16  C   LIG    1        5.117  -3.552  -3.246  0.00  0.00    +0.390 A 
ENDBRANCH   2  11
BRANCH   8  17
ATOM     17  C   LIG    1        3.283   2.066   2.640  0.00  0.00    -0.120 C 
ATOM     18  C   LIG    1        3.276   3.558   2.978  0.00  0.00    +0.090 C 
ATOM     19  C   LIG    1        2.349   3.017   1.889  0.00  0.00    +0.050 C 
BRANCH  17  20
ATOM     20  C   LIG    1        2.660   1.123   3.638  0.00  0.00    -0.040 A 
ATOM     21  C   LIG    1        3.441   0.175   4.272  0.00  0.00    +0.010 A 
ATOM     22  C   LIG    1        2.870  -0.689   5.188  0.00  0.00    +0.010 A 
ATOM     23  C   LIG    1        1.518  -0.609   5.464  0.00  0.00    +0.000 A 
ATOM     24  C   LIG    1        0.739   0.342   4.832  0.00  0.00    +0.020 A 
ATOM     25  C   LIG    1        1.309   1.207   3.917  0.00  0.00    +0.010 A 
ENDBRANCH  17  20
ENDBRANCH   8  17
TORSDOF 3
