REMARK  Name = ZINCrD000000BnKe.0
REMARK                            x       y       z     vdW  Elec       q    Type
REMARK                         _______ _______ _______ _____ _____    ______ ____
ROOT
ATOM      1  C   LIG    1        2.659   5.691   0.006  0.00  0.00    -0.180 A 
ATOM      2  C   LIG    1        3.596   4.667  -0.008  0.00  0.00    +0.130 A 
ATOM      3  C   LIG    1        3.144   3.359  -0.010  0.00  0.00    -0.040 A 
ATOM      4  C   LIG    1        1.776   3.116   0.002  0.00  0.00    +0.370 A 
ATOM      5  N   LIG    1        0.914   4.119   0.010  0.00  0.00    -0.500 NA
ATOM      6  C   LIG    1        1.314   5.376   0.018  0.00  0.00    +0.330 A 
ENDROOT
BRANCH   4   7
ATOM      7  N   LIG    1        1.308   1.800  -0.001  0.00  0.00    -0.440 N 
ATOM      8  C   LIG    1        2.070   0.670  -0.014  0.00  0.00    +0.490 A 
ATOM      9  N   LIG    1        1.306  -0.384  -0.013  0.00  0.00    -0.470 NA
ATOM     10  C   LIG    1        0.002  -0.004   0.002  0.00  0.00    +0.040 A 
ATOM     11  C   LIG    1       -1.205  -0.708   0.010  0.00  0.00    +0.060 A 
ATOM     12  C   LIG    1       -2.397  -0.020   0.025  0.00  0.00    +0.010 A 
ATOM     13  C   LIG    1       -2.410   1.367   0.032  0.00  0.00    +0.030 A 
ATOM     14  C   LIG    1       -1.228   2.077   0.030  0.00  0.00    +0.050 A 
ATOM     15  C   LIG    1       -0.017   1.401   0.010  0.00  0.00    +0.060 A 
ENDBRANCH   4   7
BRANCH   1  16
ATOM     16  C   LIG    1        3.104   7.131   0.010  0.00  0.00    +0.350 C 
BRANCH  16  21
ATOM     17  O   LIG    1        3.866   9.622  -0.688  0.00  0.00    -0.590 OA
ATOM     18  C   LIG    1        3.624   8.872  -1.613  0.00  0.00    +0.700 C 
ATOM     19  N   LIG    1        3.745   9.308  -2.883  0.00  0.00    -0.750 N 
ATOM     20  H   LIG    1        3.552   8.709  -3.622  0.00  0.00    +0.400 HD
ATOM     21  N   LIG    1        3.235   7.604  -1.370  0.00  0.00    -0.750 N 
ATOM     22  H   LIG    1        3.042   7.006  -2.109  0.00  0.00    +0.400 HD
BRANCH  19  23
ATOM     23  C   LIG    1        4.168  10.685  -3.147  0.00  0.00    +0.280 C 
BRANCH  23  24
ATOM     24  C   LIG    1        4.224  10.920  -4.658  0.00  0.00    -0.030 C 
ATOM     25  C   LIG    1        5.291  10.015  -5.268  0.00  0.00    +0.030 C 
ATOM     26  C   LIG    1        5.179  10.031  -6.795  0.00  0.00    +0.110 C 
ATOM     27  S   LIG    1        5.506  11.717  -7.390  0.00  0.00    -0.260 S 
ATOM     28  C   LIG    1        4.337  12.705  -6.410  0.00  0.00    +0.110 C 
ATOM     29  C   LIG    1        4.544  12.388  -4.927  0.00  0.00    +0.040 C 
ENDBRANCH  23  24
ENDBRANCH  19  23
ENDBRANCH  16  21
ENDBRANCH   1  16
TORSDOF 5
