REMARK  Name = ZINCqH0000001yLx.0
REMARK                            x       y       z     vdW  Elec       q    Type
REMARK                         _______ _______ _______ _____ _____    ______ ____
ROOT
ATOM      1  C   LIG    1        1.027   1.867  -0.059  0.00  0.00    +0.140 A 
ATOM      2  C   LIG    1       -0.133   1.111   0.015  0.00  0.00    +0.030 A 
ATOM      3  C   LIG    1       -1.370   1.742   0.019  0.00  0.00    +0.160 A 
ATOM      4  C   LIG    1       -1.443   3.127  -0.040  0.00  0.00    +0.030 A 
ATOM      5  C   LIG    1       -0.285   3.879  -0.113  0.00  0.00    +0.030 A 
ATOM      6  C   LIG    1        0.949   3.255  -0.123  0.00  0.00    +0.050 A 
ATOM      7  F   LIG    1        2.078   3.992  -0.196  0.00  0.00    -0.140 F 
ENDROOT
BRANCH   1   9
ATOM      8  C   LIG    1        2.386  -0.033  -0.513  0.00  0.00    +0.530 C 
ATOM      9  N   LIG    1        2.276   1.235  -0.069  0.00  0.00    -0.660 N 
ATOM     10  H   LIG    1        3.062   1.709   0.245  0.00  0.00    +0.420 HD
ATOM     11  O   LIG    1        1.394  -0.651  -0.835  0.00  0.00    -0.490 OA
BRANCH   8  12
ATOM     12  C   LIG    1        3.743  -0.682  -0.610  0.00  0.00    +0.110 C 
BRANCH  12  13
ATOM     13  S   LIG    1        3.560  -2.375  -1.236  0.00  0.00    -0.170 S 
BRANCH  13  15
ATOM     14  C   LIG    1        5.822  -3.054   0.143  0.00  0.00    +0.040 C 
ATOM     15  C   LIG    1        5.269  -2.980  -1.282  0.00  0.00    +0.010 C 
ATOM     16  C   LIG    1        5.300  -4.374  -1.913  0.00  0.00    +0.080 C 
ENDBRANCH  13  15
ENDBRANCH  12  13
ENDBRANCH   8  12
ENDBRANCH   1   9
BRANCH   3  17
ATOM     17  N   LIG    1       -2.543   0.981   0.088  0.00  0.00    -0.670 N 
ATOM     18  H   LIG    1       -2.561   0.162   0.607  0.00  0.00    +0.410 HD
ATOM     19  C   LIG    1       -3.649   1.387  -0.566  0.00  0.00    +0.480 C 
ATOM     20  O   LIG    1       -3.602   2.357  -1.293  0.00  0.00    -0.510 OA
BRANCH  19  21
ATOM     21  C   LIG    1       -4.945   0.636  -0.395  0.00  0.00    +0.260 C 
BRANCH  21  22
ATOM     22  N   LIG    1       -5.990   1.273  -1.207  0.00  0.00    -0.510 NA
ATOM     23  C   LIG    1       -5.697   1.141  -2.640  0.00  0.00    +0.170 C 
ATOM     24  C   LIG    1       -6.873   1.684  -3.454  0.00  0.00    +0.030 C 
ATOM     25  C   LIG    1       -7.102   3.155  -3.094  0.00  0.00    +0.000 C 
ATOM     26  C   LIG    1       -7.357   3.269  -1.589  0.00  0.00    +0.020 C 
ATOM     27  C   LIG    1       -6.167   2.681  -0.828  0.00  0.00    +0.140 C 
ATOM     28  C   LIG    1       -6.427   2.775   0.677  0.00  0.00    +0.020 C 
ENDBRANCH  21  22
ENDBRANCH  19  21
ENDBRANCH   3  17
TORSDOF 7
