REMARK  Name = ZINCnE000004TgtW.0
REMARK                            x       y       z     vdW  Elec       q    Type
REMARK                         _______ _______ _______ _____ _____    ______ ____
ROOT
ATOM      1  C   LIG    1       -0.773  -0.677   2.837  0.00  0.00    +0.600 C 
ATOM      2  N   LIG    1       -1.868  -1.312   3.301  0.00  0.00    -0.650 N 
ATOM      3  H   LIG    1       -2.606  -0.802   3.669  0.00  0.00    +0.420 HD
ATOM      4  O   LIG    1        0.190  -1.319   2.465  0.00  0.00    -0.520 OA
ENDROOT
BRANCH   2   5
ATOM      5  C   LIG    1       -1.939  -2.708   3.253  0.00  0.00    +0.130 A 
ATOM      6  C   LIG    1       -1.341  -3.400   2.208  0.00  0.00    -0.020 A 
ATOM      7  C   LIG    1       -1.408  -4.779   2.165  0.00  0.00    +0.010 A 
ATOM      8  C   LIG    1       -2.081  -5.470   3.156  0.00  0.00    -0.020 A 
ATOM      9  C   LIG    1       -2.683  -4.784   4.195  0.00  0.00    -0.000 A 
ATOM     10  C   LIG    1       -2.614  -3.406   4.247  0.00  0.00    +0.020 A 
BRANCH   9  11
ATOM     11  C   LIG    1       -3.415  -5.542   5.273  0.00  0.00    -0.110 C 
ATOM     12  C   LIG    1       -2.766  -5.254   6.628  0.00  0.00    +0.040 C 
ATOM     13  C   LIG    1       -3.342  -7.042   4.981  0.00  0.00    +0.030 C 
BRANCH  11  14
ATOM     14  C   LIG    1       -4.857  -5.105   5.303  0.00  0.00    +0.510 C 
ATOM     15  O   LIG    1       -5.627  -5.600   6.109  0.00  0.00    -0.690 OA
ATOM     16  O   LIG    1       -5.253  -4.258   4.521  0.00  0.00    -0.690 OA
ENDBRANCH  11  14
ENDBRANCH   9  11
ENDBRANCH   2   5
BRANCH   1  18
ATOM     17  C   LIG    1        0.285   1.568   2.338  0.00  0.00    +0.060 A 
ATOM     18  C   LIG    1       -0.745   0.795   2.781  0.00  0.00    -0.070 A 
ATOM     19  N   LIG    1       -1.742   1.639   3.163  0.00  0.00    -0.460 NA
ATOM     20  C   LIG    1       -1.349   2.860   2.959  0.00  0.00    +0.430 A 
ATOM     21  O   LIG    1       -0.108   2.847   2.453  0.00  0.00    -0.200 OA
BRANCH  17  23
ATOM     22  C   LIG    1        2.740   1.638   2.683  0.00  0.00    +0.040 C 
ATOM     23  C   LIG    1        1.611   1.080   1.813  0.00  0.00    +0.110 C 
ATOM     24  C   LIG    1        1.795   1.557   0.371  0.00  0.00    +0.040 C 
ENDBRANCH  17  23
ENDBRANCH   1  18
TORSDOF 5
