REMARK  Name = ZINCrD000000Dclc.0
REMARK                            x       y       z     vdW  Elec       q    Type
REMARK                         _______ _______ _______ _____ _____    ______ ____
ROOT
ATOM      1  O   LIG    1       -2.271   1.876   0.022  0.00  0.00    -0.470 OA
ATOM      2  C   LIG    1       -1.113   2.250   0.019  0.00  0.00    +0.610 A 
ATOM      3  O   LIG    1       -0.690   3.525   0.026  0.00  0.00    -0.260 OA
ATOM      4  C   LIG    1        0.660   3.538   0.014  0.00  0.00    +0.270 A 
ATOM      5  N   LIG    1        1.097   2.312   0.004  0.00  0.00    -0.230 NA
ATOM      6  N   LIG    1       -0.018   1.461   0.010  0.00  0.00    -0.440 N 
ENDROOT
BRANCH   4   7
ATOM      7  C   LIG    1        1.507   4.750   0.013  0.00  0.00    +0.020 A 
ATOM      8  C   LIG    1        2.898   4.634   0.006  0.00  0.00    +0.090 A 
ATOM      9  C   LIG    1        3.682   5.769  -0.000  0.00  0.00    +0.120 A 
ATOM     10  C   LIG    1        3.093   7.021   0.012  0.00  0.00    -0.020 A 
ATOM     11  C   LIG    1        1.715   7.143   0.024  0.00  0.00    +0.120 A 
ATOM     12  C   LIG    1        0.919   6.016   0.024  0.00  0.00    +0.090 A 
BRANCH  10  13
ATOM     13  N   LIG    1        3.941   8.234   0.011  0.00  0.00    +0.020 N 
ATOM     14  O   LIG    1        5.154   8.130   0.001  0.00  0.00    -0.150 OA
ATOM     15  O   LIG    1        3.425   9.338   0.021  0.00  0.00    -0.150 OA
ENDBRANCH  10  13
ENDBRANCH   4   7
BRANCH   6  16
ATOM     16  C   LIG    1        0.002  -0.004   0.002  0.00  0.00    +0.300 C 
ATOM     17  C   LIG    1        1.136  -0.609   0.846  0.00  0.00    +0.040 C 
ATOM     18  C   LIG    1        1.310  -1.647  -0.275  0.00  0.00    +0.160 C 
ATOM     19  C   LIG    1        0.704  -0.604  -1.228  0.00  0.00    +0.050 C 
BRANCH  18  20
ATOM     20  O   LIG    1        0.498  -2.811  -0.109  0.00  0.00    -0.360 OA
BRANCH  20  21
ATOM     21  C   LIG    1        1.239  -4.003   0.162  0.00  0.00    +0.220 C 
BRANCH  21  22
ATOM     22  C   LIG    1        0.288  -5.161   0.318  0.00  0.00    -0.100 A 
ATOM     23  C   LIG    1       -0.219  -5.476   1.565  0.00  0.00    +0.020 A 
ATOM     24  C   LIG    1       -1.096  -6.535   1.707  0.00  0.00    +0.000 A 
ATOM     25  C   LIG    1       -1.457  -7.287   0.605  0.00  0.00    +0.010 A 
ATOM     26  C   LIG    1       -0.945  -6.976  -0.641  0.00  0.00    +0.000 A 
ATOM     27  C   LIG    1       -0.073  -5.913  -0.784  0.00  0.00    +0.020 A 
ENDBRANCH  21  22
ENDBRANCH  20  21
ENDBRANCH  18  20
ENDBRANCH   6  16
TORSDOF 6
