REMARK  Name = ZINCrD000000CRqW.1
REMARK                            x       y       z     vdW  Elec       q    Type
REMARK                         _______ _______ _______ _____ _____    ______ ____
ROOT
ATOM      1  C   LIG    1       -2.574   0.004  -4.107  0.00  0.00    +0.170 A 
ATOM      2  C   LIG    1       -1.945   1.185  -4.485  0.00  0.00    +0.020 A 
ATOM      3  C   LIG    1       -2.060   1.644  -5.780  0.00  0.00    +0.080 A 
ATOM      4  C   LIG    1       -2.818   0.929  -6.708  0.00  0.00    -0.060 A 
ATOM      5  C   LIG    1       -3.453  -0.253  -6.324  0.00  0.00    +0.040 A 
ATOM      6  C   LIG    1       -3.330  -0.710  -5.029  0.00  0.00    -0.010 A 
ENDROOT
BRANCH   4   7
ATOM      7  C   LIG    1       -2.948   1.423  -8.096  0.00  0.00    +0.150 A 
ATOM      8  C   LIG    1       -2.389   2.560  -8.607  0.00  0.00    -0.040 A 
ATOM      9  C   LIG    1       -2.756   2.651  -9.950  0.00  0.00    -0.010 A 
ATOM     10  N   LIG    1       -3.511   1.624 -10.247  0.00  0.00    -0.220 NA
ATOM     11  N   LIG    1       -3.652   0.830  -9.102  0.00  0.00    -0.450 N 
ATOM     12  H   LIG    1       -4.160   0.006  -9.036  0.00  0.00    +0.450 HD
BRANCH   9  13
ATOM     13  C   LIG    1       -2.354   3.751 -10.899  0.00  0.00    +0.560 C 
ATOM     14  F   LIG    1       -0.970   3.715 -11.097  0.00  0.00    -0.160 F 
ATOM     15  F   LIG    1       -2.715   4.989 -10.356  0.00  0.00    -0.160 F 
ATOM     16  F   LIG    1       -3.006   3.571 -12.124  0.00  0.00    -0.170 F 
ENDBRANCH   9  13
ENDBRANCH   4   7
BRANCH   1  18
ATOM     17  C   LIG    1       -1.309  -0.256  -2.110  0.00  0.00    +0.510 C 
ATOM     18  N   LIG    1       -2.452  -0.462  -2.795  0.00  0.00    -0.680 N 
ATOM     19  H   LIG    1       -3.189  -0.934  -2.377  0.00  0.00    +0.410 HD
ATOM     20  O   LIG    1       -0.354   0.249  -2.662  0.00  0.00    -0.500 OA
BRANCH  17  21
ATOM     21  C   LIG    1       -1.218  -0.652  -0.659  0.00  0.00    +0.060 C 
BRANCH  21  25
ATOM     22  O   LIG    1        2.317   1.946  -1.259  0.00  0.00    -0.540 OA
ATOM     23  C   LIG    1        1.848   1.503  -0.232  0.00  0.00    +0.520 C 
ATOM     24  C   LIG    1        0.366   1.206  -0.145  0.00  0.00    +0.050 C 
ATOM     25  C   LIG    1        0.174  -0.312  -0.124  0.00  0.00    +0.010 C 
ATOM     26  C   LIG    1        0.313  -0.852   1.288  0.00  0.00    +0.020 C 
ATOM     27  C   LIG    1        1.713  -0.723   1.859  0.00  0.00    +0.010 C 
ATOM     28  C   LIG    1        2.083   0.746   2.071  0.00  0.00    +0.280 C 
ATOM     29  N   LIG    1        2.640   1.278   0.817  0.00  0.00    -0.730 N 
ATOM     30  H   LIG    1        3.590   1.466   0.753  0.00  0.00    +0.400 HD
ENDBRANCH  21  25
ENDBRANCH  17  21
ENDBRANCH   1  18
TORSDOF 5
