REMARK  Name = ZINCrD000000CRqW.0
REMARK                            x       y       z     vdW  Elec       q    Type
REMARK                         _______ _______ _______ _____ _____    ______ ____
ROOT
ATOM      1  C   LIG    1       -2.574   0.004  -4.107  0.00  0.00    +0.160 A 
ATOM      2  C   LIG    1       -1.945   1.184  -4.486  0.00  0.00    +0.020 A 
ATOM      3  C   LIG    1       -2.061   1.644  -5.781  0.00  0.00    +0.060 A 
ATOM      4  C   LIG    1       -2.818   0.929  -6.708  0.00  0.00    -0.040 A 
ATOM      5  C   LIG    1       -3.453  -0.251  -6.324  0.00  0.00    +0.060 A 
ATOM      6  C   LIG    1       -3.330  -0.710  -5.030  0.00  0.00    -0.020 A 
ENDROOT
BRANCH   4   7
ATOM      7  C   LIG    1       -2.949   1.425  -8.100  0.00  0.00    +0.130 A 
ATOM      8  N   LIG    1       -3.632   0.848  -9.066  0.00  0.00    -0.240 NA
ATOM      9  N   LIG    1       -3.501   1.631 -10.220  0.00  0.00    -0.440 N 
ATOM     10  H   LIG    1       -3.900   1.444 -11.084  0.00  0.00    +0.450 HD
ATOM     11  C   LIG    1       -2.722   2.693  -9.921  0.00  0.00    -0.010 A 
ATOM     12  C   LIG    1       -2.370   2.599  -8.620  0.00  0.00    -0.010 A 
BRANCH  11  13
ATOM     13  C   LIG    1       -2.321   3.793 -10.869  0.00  0.00    +0.540 C 
ATOM     14  F   LIG    1       -0.927   3.829 -10.980  0.00  0.00    -0.160 F 
ATOM     15  F   LIG    1       -2.782   5.021 -10.381  0.00  0.00    -0.160 F 
ATOM     16  F   LIG    1       -2.883   3.552 -12.128  0.00  0.00    -0.170 F 
ENDBRANCH  11  13
ENDBRANCH   4   7
BRANCH   1  18
ATOM     17  C   LIG    1       -1.309  -0.255  -2.110  0.00  0.00    +0.510 C 
ATOM     18  N   LIG    1       -2.452  -0.462  -2.795  0.00  0.00    -0.680 N 
ATOM     19  H   LIG    1       -3.189  -0.934  -2.377  0.00  0.00    +0.410 HD
ATOM     20  O   LIG    1       -0.354   0.249  -2.662  0.00  0.00    -0.500 OA
BRANCH  17  21
ATOM     21  C   LIG    1       -1.218  -0.651  -0.659  0.00  0.00    +0.060 C 
BRANCH  21  25
ATOM     22  O   LIG    1        2.316   1.948  -1.258  0.00  0.00    -0.540 OA
ATOM     23  C   LIG    1        1.847   1.504  -0.231  0.00  0.00    +0.520 C 
ATOM     24  C   LIG    1        0.365   1.207  -0.145  0.00  0.00    +0.050 C 
ATOM     25  C   LIG    1        0.174  -0.311  -0.124  0.00  0.00    +0.010 C 
ATOM     26  C   LIG    1        0.312  -0.851   1.288  0.00  0.00    +0.020 C 
ATOM     27  C   LIG    1        1.713  -0.722   1.859  0.00  0.00    +0.010 C 
ATOM     28  C   LIG    1        2.082   0.747   2.072  0.00  0.00    +0.280 C 
ATOM     29  N   LIG    1        2.639   1.280   0.818  0.00  0.00    -0.730 N 
ATOM     30  H   LIG    1        3.588   1.468   0.754  0.00  0.00    +0.400 HD
ENDBRANCH  21  25
ENDBRANCH  17  21
ENDBRANCH   1  18
TORSDOF 5
