REMARK  Name = ZINCqH00000099Fh.0
REMARK                            x       y       z     vdW  Elec       q    Type
REMARK                         _______ _______ _______ _____ _____    ______ ____
ROOT
ATOM      1  N   LIG    1        7.833  -2.206   0.499  0.00  0.00    -0.740 N 
ATOM      2  H   LIG    1        7.337  -3.039   0.478  0.00  0.00    +0.400 HD
ATOM      3  C   LIG    1        9.061  -2.166   1.054  0.00  0.00    +0.720 C 
ATOM      4  N   LIG    1        9.599  -3.284   1.580  0.00  0.00    -0.630 N 
ATOM      5  C   LIG    1        8.874  -4.563   1.565  0.00  0.00    +0.300 C 
ATOM      6  C   LIG    1        9.035  -5.237   2.899  0.00  0.00    -0.060 C 
ATOM      7  C   LIG    1        9.872  -4.844   3.805  0.00  0.00    -0.090 C 
ATOM      8  C   LIG    1       10.783  -3.661   3.667  0.00  0.00    +0.070 C 
ATOM      9  C   LIG    1       10.941  -3.277   2.188  0.00  0.00    +0.300 C 
ATOM     10  O   LIG    1        9.683  -1.122   1.079  0.00  0.00    -0.590 OA
ENDROOT
BRANCH   7  11
ATOM     11  C   LIG    1        9.937  -5.632   5.088  0.00  0.00    -0.040 C 
ATOM     12  C   LIG    1        9.588  -4.719   6.265  0.00  0.00    +0.030 C 
ATOM     13  C   LIG    1       11.350  -6.189   5.274  0.00  0.00    +0.040 C 
ATOM     14  C   LIG    1        8.937  -6.789   5.027  0.00  0.00    +0.030 C 
ENDBRANCH   7  11
BRANCH   1  16
ATOM     15  C   LIG    1        7.734  -0.821  -1.514  0.00  0.00    +0.040 C 
ATOM     16  C   LIG    1        7.249  -0.991  -0.073  0.00  0.00    +0.360 C 
BRANCH  16  17
ATOM     17  C   LIG    1        5.746  -1.102  -0.059  0.00  0.00    -0.020 A 
ATOM     18  C   LIG    1        4.859  -0.079  -0.045  0.00  0.00    +0.170 A 
ATOM     19  N   LIG    1        3.624  -0.652  -0.037  0.00  0.00    -0.240 N 
ATOM     20  N   LIG    1        3.776  -1.931  -0.040  0.00  0.00    -0.070 NA
ATOM     21  N   LIG    1        5.027  -2.230  -0.058  0.00  0.00    -0.250 NA
BRANCH  19  22
ATOM     22  C   LIG    1        2.399   0.031  -0.021  0.00  0.00    +0.120 A 
ATOM     23  C   LIG    1        1.207  -0.680  -0.013  0.00  0.00    +0.040 A 
ATOM     24  C   LIG    1        0.002  -0.004   0.002  0.00  0.00    +0.040 A 
ATOM     25  C   LIG    1       -0.017   1.379   0.010  0.00  0.00    +0.030 A 
ATOM     26  C   LIG    1        1.170   2.089   0.002  0.00  0.00    +0.040 A 
ATOM     27  C   LIG    1        2.377   1.419  -0.013  0.00  0.00    +0.020 A 
ENDBRANCH  19  22
ENDBRANCH  16  17
ENDBRANCH   1  16
TORSDOF 4
