REMARK  Name = ZINCrD00000kZGk7.0
REMARK                            x       y       z     vdW  Elec       q    Type
REMARK                         _______ _______ _______ _____ _____    ______ ____
ROOT
ATOM      1  C   LIG    1       -1.570   5.336   2.686  0.00  0.00    -0.010 C 
ATOM      2  C   LIG    1       -2.396   5.831   1.502  0.00  0.00    +0.030 C 
ATOM      3  C   LIG    1       -3.594   6.686   1.971  0.00  0.00    +0.090 C 
ATOM      4  C   LIG    1       -4.359   5.807   2.948  0.00  0.00    -0.080 A 
ATOM      5  C   LIG    1       -5.674   5.461   2.816  0.00  0.00    +0.010 A 
ATOM      6  C   LIG    1       -6.249   4.649   3.785  0.00  0.00    +0.000 A 
ATOM      7  C   LIG    1       -5.502   4.200   4.857  0.00  0.00    +0.000 A 
ATOM      8  C   LIG    1       -4.165   4.556   4.982  0.00  0.00    +0.030 A 
ATOM      9  C   LIG    1       -3.606   5.355   4.026  0.00  0.00    -0.080 A 
ATOM     10  C   LIG    1       -2.990   7.792   2.822  0.00  0.00    -0.080 A 
ATOM     11  C   LIG    1       -3.144   9.129   2.589  0.00  0.00    +0.010 A 
ATOM     12  C   LIG    1       -2.534  10.033   3.449  0.00  0.00    +0.000 A 
ATOM     13  C   LIG    1       -1.786   9.585   4.521  0.00  0.00    +0.000 A 
ATOM     14  C   LIG    1       -1.634   8.223   4.753  0.00  0.00    +0.030 A 
ATOM     15  C   LIG    1       -2.236   7.340   3.903  0.00  0.00    -0.080 A 
ATOM     16  C   LIG    1       -2.160   5.826   4.026  0.00  0.00    +0.110 C 
ENDROOT
BRANCH   1  17
ATOM     17  C   LIG    1       -1.549   3.806   2.677  0.00  0.00    +0.260 C 
BRANCH  17  19
ATOM     18  C   LIG    1       -0.724   2.012   1.250  0.00  0.00    +0.510 C 
ATOM     19  N   LIG    1       -0.863   3.334   1.472  0.00  0.00    -0.730 N 
ATOM     20  H   LIG    1       -0.509   3.973   0.834  0.00  0.00    +0.400 HD
ATOM     21  O   LIG    1       -1.167   1.213   2.049  0.00  0.00    -0.540 OA
BRANCH  18  22
ATOM     22  C   LIG    1       -0.019   1.526   0.010  0.00  0.00    +0.060 C 
BRANCH  22  23
ATOM     23  C   LIG    1        0.002  -0.004   0.002  0.00  0.00    +0.040 C 
BRANCH  23  24
ATOM     24  C   LIG    1        0.718  -0.497  -1.257  0.00  0.00    +0.260 C 
BRANCH  24  27
ATOM     25  C   LIG    1        1.341  -4.130  -2.293  0.00  0.00    +0.090 C 
ATOM     26  C   LIG    1        1.321  -2.623  -2.285  0.00  0.00    +0.510 C 
ATOM     27  N   LIG    1        0.738  -1.962  -1.265  0.00  0.00    -0.730 N 
ATOM     28  H   LIG    1        0.332  -2.457  -0.536  0.00  0.00    +0.400 HD
ATOM     29  O   LIG    1        1.829  -2.004  -3.196  0.00  0.00    -0.550 OA
ENDBRANCH  24  27
ENDBRANCH  23  24
ENDBRANCH  22  23
ENDBRANCH  18  22
ENDBRANCH  17  19
ENDBRANCH   1  17
TORSDOF 6
