REMARK  Name = ZINCrg00000SjSpP.0
REMARK                            x       y       z     vdW  Elec       q    Type
REMARK                         _______ _______ _______ _____ _____    ______ ____
ROOT
ATOM      1  C   LIG    1        3.330  -2.648  -0.389  0.00  0.00    +0.260 C 
ATOM      2  C   LIG    1        3.865  -2.104   0.938  0.00  0.00    +0.060 C 
ENDROOT
BRANCH   1   3
ATOM      3  N   LIG    1        4.068  -3.860  -0.753  0.00  0.00    -0.730 N 
ATOM      4  H   LIG    1        3.715  -4.732  -0.519  0.00  0.00    +0.410 HD
ATOM      5  C   LIG    1        5.239  -3.762  -1.414  0.00  0.00    +0.730 C 
ATOM      6  N   LIG    1        5.918  -4.877  -1.749  0.00  0.00    -0.630 N 
ATOM      7  C   LIG    1        5.495  -6.254  -1.455  0.00  0.00    +0.280 C 
ATOM      8  C   LIG    1        6.769  -7.126  -1.570  0.00  0.00    +0.190 C 
ATOM      9  O   LIG    1        7.415  -7.117  -0.297  0.00  0.00    -0.370 OA
ATOM     10  C   LIG    1        8.770  -7.586  -0.333  0.00  0.00    +0.220 C 
ATOM     11  C   LIG    1        9.596  -6.666  -1.230  0.00  0.00    +0.160 C 
ATOM     12  N   LIG    1        9.013  -6.591  -2.562  0.00  0.00    -0.550 NA
ATOM     13  C   LIG    1        9.727  -5.615  -3.396  0.00  0.00    +0.210 C 
ATOM     14  C   LIG    1        7.589  -6.385  -2.631  0.00  0.00    +0.160 C 
ATOM     15  C   LIG    1        7.198  -4.910  -2.472  0.00  0.00    +0.240 C 
ATOM     16  O   LIG    1        5.682  -2.669  -1.707  0.00  0.00    -0.590 OA
ENDBRANCH   1   3
BRANCH   1  27
ATOM     17  C   LIG    1        1.822  -0.286  -1.716  0.00  0.00    +0.040 C 
ATOM     18  C   LIG    1        1.255  -0.558  -0.322  0.00  0.00    +0.220 C 
ATOM     19  C   LIG    1       -0.095   0.157  -0.146  0.00  0.00    +0.110 C 
ATOM     20  C   LIG    1       -1.086  -0.957   0.107  0.00  0.00    -0.130 A 
ATOM     21  C   LIG    1       -2.448  -0.923   0.337  0.00  0.00    +0.050 A 
ATOM     22  C   LIG    1       -3.146  -2.098   0.545  0.00  0.00    -0.010 A 
ATOM     23  C   LIG    1       -2.479  -3.308   0.522  0.00  0.00    +0.040 A 
ATOM     24  C   LIG    1       -1.119  -3.347   0.294  0.00  0.00    +0.010 A 
ATOM     25  C   LIG    1       -0.407  -2.165   0.083  0.00  0.00    +0.140 A 
ATOM     26  N   LIG    1        0.958  -1.984  -0.163  0.00  0.00    -0.550 N 
ATOM     27  C   LIG    1        1.866  -2.977  -0.243  0.00  0.00    +0.530 C 
ATOM     28  O   LIG    1        1.506  -4.134  -0.198  0.00  0.00    -0.510 OA
ENDBRANCH   1  27
TORSDOF 2
