REMARK  Name = ZINCrH00000No4Gj.0
REMARK                            x       y       z     vdW  Elec       q    Type
REMARK                         _______ _______ _______ _____ _____    ______ ____
ROOT
ATOM      1  C   LIG    1       -3.063   3.298  -1.707  0.00  0.00    +0.200 A 
ATOM      2  N   LIG    1       -2.154   2.488  -2.197  0.00  0.00    -0.320 NA
ATOM      3  N   LIG    1       -0.904   3.069  -1.925  0.00  0.00    -0.330 N 
ATOM      4  C   LIG    1       -1.153   4.218  -1.268  0.00  0.00    +0.310 A 
ATOM      5  N   LIG    1       -2.450   4.347  -1.148  0.00  0.00    -0.500 NA
ENDROOT
BRANCH   4   6
ATOM      6  C   LIG    1       -0.118   5.189  -0.761  0.00  0.00    +0.080 C 
ATOM      7  C   LIG    1       -0.248   5.327   0.757  0.00  0.00    +0.030 C 
ATOM      8  C   LIG    1        0.803   6.313   1.271  0.00  0.00    +0.010 C 
ATOM      9  C   LIG    1        0.588   7.678   0.614  0.00  0.00    +0.020 C 
ATOM     10  C   LIG    1        0.718   7.539  -0.904  0.00  0.00    +0.010 C 
ATOM     11  C   LIG    1       -0.333   6.553  -1.419  0.00  0.00    +0.030 C 
ENDBRANCH   4   6
BRANCH   3  12
ATOM     12  C   LIG    1        0.353   2.553  -2.265  0.00  0.00    +0.140 A 
ATOM     13  C   LIG    1        1.383   3.411  -2.624  0.00  0.00    +0.010 A 
ATOM     14  C   LIG    1        2.620   2.899  -2.964  0.00  0.00    +0.040 A 
ATOM     15  C   LIG    1        2.833   1.532  -2.947  0.00  0.00    +0.020 A 
ATOM     16  C   LIG    1        1.808   0.675  -2.590  0.00  0.00    +0.040 A 
ATOM     17  C   LIG    1        0.569   1.181  -2.249  0.00  0.00    +0.030 A 
ENDBRANCH   3  12
BRANCH   1  18
ATOM     18  S   LIG    1       -4.806   3.045  -1.774  0.00  0.00    +0.090 S 
BRANCH  18  19
ATOM     19  C   LIG    1       -4.955   1.463  -2.649  0.00  0.00    +0.060 C 
BRANCH  19  20
ATOM     20  C   LIG    1       -6.411   1.102  -2.789  0.00  0.00    +0.440 C 
ATOM     21  O   LIG    1       -7.265   1.839  -2.342  0.00  0.00    -0.480 OA
BRANCH  20  24
ATOM     22  C   LIG    1       -8.526  -1.712  -4.233  0.00  0.00    +0.140 C 
ATOM     23  C   LIG    1       -8.118  -0.370  -3.681  0.00  0.00    +0.350 C 
ATOM     24  C   LIG    1       -6.783  -0.098  -3.442  0.00  0.00    -0.310 C 
BRANCH  23  25
ATOM     25  N   LIG    1       -9.055   0.565  -3.419  0.00  0.00    -0.790 N 
ATOM     26  H   LIG    1       -9.968   0.297  -3.232  0.00  0.00    +0.410 HD
ATOM     27  H   LIG    1       -8.814   1.505  -3.418  0.00  0.00    +0.420 HD
ENDBRANCH  23  25
BRANCH  24  28
ATOM     28  C   LIG    1       -5.777  -1.030  -3.856  0.00  0.00    +0.270 C 
ATOM     29  N   LIG    1       -4.979  -1.769  -4.184  0.00  0.00    -0.440 NA
ENDBRANCH  24  28
ENDBRANCH  20  24
ENDBRANCH  19  20
ENDBRANCH  18  19
ENDBRANCH   1  18
TORSDOF 8
