REMARK  Name = ZINCqH0000036O1y.0
REMARK                            x       y       z     vdW  Elec       q    Type
REMARK                         _______ _______ _______ _____ _____    ______ ____
ROOT
ATOM      1  C   LIG    1       -3.425   7.222  -0.317  0.00  0.00    +0.170 A 
ATOM      2  N   LIG    1       -2.128   7.045  -0.226  0.00  0.00    -0.440 NA
ATOM      3  C   LIG    1       -1.942   5.713  -0.252  0.00  0.00    +0.180 A 
ATOM      4  N   LIG    1       -3.113   5.159  -0.361  0.00  0.00    -0.360 NA
ATOM      5  O   LIG    1       -3.978   6.008  -0.395  0.00  0.00    +0.100 OA
ENDROOT
BRANCH   3   6
ATOM      6  C   LIG    1       -0.620   4.995  -0.175  0.00  0.00    +0.070 C 
ATOM      7  C   LIG    1        0.304   5.508  -1.282  0.00  0.00    +0.080 C 
ATOM      8  C   LIG    1        0.024   5.257   1.188  0.00  0.00    +0.070 C 
BRANCH   6   9
ATOM      9  C   LIG    1       -0.840   3.515  -0.351  0.00  0.00    -0.080 A 
ATOM     10  C   LIG    1       -1.549   2.804   0.600  0.00  0.00    +0.050 A 
ATOM     11  C   LIG    1       -1.751   1.447   0.439  0.00  0.00    +0.030 A 
ATOM     12  C   LIG    1       -1.245   0.799  -0.673  0.00  0.00    -0.030 A 
ATOM     13  C   LIG    1       -0.532   1.510  -1.622  0.00  0.00    +0.030 A 
ATOM     14 CL   LIG    1       -1.498  -0.907  -0.876  0.00  0.00    -0.070 Cl
ATOM     15  C   LIG    1       -0.334   2.868  -1.463  0.00  0.00    +0.040 A 
ENDBRANCH   6   9
ENDBRANCH   3   6
BRANCH   1  17
ATOM     16  C   LIG    1       -4.826   8.768   1.022  0.00  0.00    +0.120 C 
ATOM     17  C   LIG    1       -4.151   8.542  -0.332  0.00  0.00    -0.310 C 
BRANCH  17  18
ATOM     18  S   LIG    1       -5.408   8.526  -1.639  0.00  0.00    +2.420 S 
ATOM     19  O   LIG    1       -5.987   9.821  -1.726  0.00  0.00    -0.910 OA
ATOM     20  O   LIG    1       -6.252   7.400  -1.442  0.00  0.00    -0.900 OA
BRANCH  18  21
ATOM     21  C   LIG    1       -4.403   8.242  -3.122  0.00  0.00    -0.440 C 
ATOM     22  C   LIG    1       -3.420   9.403  -3.305  0.00  0.00    +0.040 C 
ATOM     23  C   LIG    1       -2.633   9.195  -4.602  0.00  0.00    +0.230 C 
ATOM     24  O   LIG    1       -3.541   9.094  -5.700  0.00  0.00    -0.370 OA
ATOM     25  C   LIG    1       -4.452   7.997  -5.606  0.00  0.00    +0.240 C 
ATOM     26  C   LIG    1       -5.314   8.158  -4.351  0.00  0.00    +0.050 C 
ENDBRANCH  18  21
ENDBRANCH  17  18
ENDBRANCH   1  17
TORSDOF 5
