REMARK  Name = ZINCvU0000000Id3.0
REMARK                            x       y       z     vdW  Elec       q    Type
REMARK                         _______ _______ _______ _____ _____    ______ ____
ROOT
ATOM      1  C   LIG    1       -1.330   3.545   0.246  0.00  0.00    +0.300 C 
ENDROOT
BRANCH   1   2
ATOM      2  C   LIG    1       -1.081   4.238   1.560  0.00  0.00    -0.110 A 
ATOM      3  C   LIG    1       -1.720   3.799   2.705  0.00  0.00    +0.030 A 
ATOM      4  C   LIG    1       -1.488   4.432   3.912  0.00  0.00    +0.000 A 
ATOM      5  C   LIG    1       -0.626   5.511   3.972  0.00  0.00    +0.010 A 
ATOM      6  C   LIG    1        0.009   5.953   2.827  0.00  0.00    +0.020 A 
ATOM      7  C   LIG    1       -0.219   5.317   1.621  0.00  0.00    +0.020 A 
ENDBRANCH   1   2
BRANCH   1  10
ATOM      8  N   LIG    1       -2.807   5.331  -0.620  0.00  0.00    -0.660 N 
ATOM      9  H   LIG    1       -2.070   5.952  -0.511  0.00  0.00    +0.410 HD
ATOM     10  C   LIG    1       -2.635   4.024  -0.336  0.00  0.00    +0.520 C 
ATOM     11  O   LIG    1       -3.530   3.234  -0.550  0.00  0.00    -0.510 OA
BRANCH   8  15
ATOM     12  C   LIG    1       -6.508   6.702  -1.964  0.00  0.00    +0.130 A 
ATOM     13  C   LIG    1       -6.052   5.450  -2.347  0.00  0.00    -0.040 A 
ATOM     14  C   LIG    1       -4.824   4.997  -1.906  0.00  0.00    +0.080 A 
ATOM     15  C   LIG    1       -4.050   5.792  -1.071  0.00  0.00    +0.120 A 
ATOM     16  C   LIG    1       -4.507   7.046  -0.687  0.00  0.00    +0.050 A 
ATOM     17  C   LIG    1       -5.733   7.500  -1.133  0.00  0.00    -0.050 A 
ATOM     18 CL   LIG    1       -6.305   9.068  -0.654  0.00  0.00    -0.050 Cl
BRANCH  12  20
ATOM     19  C   LIG    1       -8.460   6.277  -3.255  0.00  0.00    +0.250 C 
ATOM     20  O   LIG    1       -7.715   7.150  -2.403  0.00  0.00    -0.300 OA
ENDBRANCH  12  20
ENDBRANCH   8  15
ENDBRANCH   1  10
BRANCH   1  21
ATOM     21  N   LIG    1       -1.394   2.097   0.462  0.00  0.00    -0.730 N 
ATOM     22  H   LIG    1       -2.252   1.663   0.588  0.00  0.00    +0.410 HD
BRANCH  21  23
ATOM     23  C   LIG    1       -0.217   1.340   0.485  0.00  0.00    +0.220 A 
ATOM     24  C   LIG    1        1.012   1.961   0.298  0.00  0.00    -0.070 A 
ATOM     25  C   LIG    1        2.172   1.213   0.316  0.00  0.00    +0.080 A 
ATOM     26  C   LIG    1        2.112  -0.159   0.521  0.00  0.00    +0.020 A 
ATOM     27  C   LIG    1        0.884  -0.779   0.707  0.00  0.00    +0.020 A 
ATOM     28  C   LIG    1       -0.277  -0.032   0.690  0.00  0.00    -0.060 A 
BRANCH  26  29
ATOM     29  N   LIG    1        3.289  -0.917   0.539  0.00  0.00    -0.480 N 
ATOM     30  C   LIG    1        3.497  -1.545   1.869  0.00  0.00    +0.170 C 
ATOM     31  C   LIG    1        4.476  -2.706   1.563  0.00  0.00    +0.030 C 
ATOM     32  C   LIG    1        3.991  -3.214   0.186  0.00  0.00    +0.010 C 
ATOM     33  C   LIG    1        3.215  -2.034  -0.427  0.00  0.00    +0.170 C 
ENDBRANCH  26  29
ENDBRANCH  21  23
ENDBRANCH   1  21
TORSDOF 7
