REMARK  Name = ZINCrD00000rSVrw.0
REMARK                            x       y       z     vdW  Elec       q    Type
REMARK                         _______ _______ _______ _____ _____    ______ ____
ROOT
ATOM      1  C   LIG    1       -2.064   1.338  -1.322  0.00  0.00    +0.010 C 
ATOM      2  C   LIG    1       -1.351   1.766  -0.104  0.00  0.00    +0.050 C 
ATOM      3  C   LIG    1       -0.070   0.990   0.087  0.00  0.00    -0.050 C 
ATOM      4  C   LIG    1        1.151   1.544   0.087  0.00  0.00    -0.020 C 
ATOM      5  C   LIG    1        1.231   3.035   0.018  0.00  0.00    +0.190 C 
ATOM      6  O   LIG    1        2.583   3.446  -0.025  0.00  0.00    -0.380 OA
ATOM      7  C   LIG    1        2.781   4.880  -0.091  0.00  0.00    +0.210 C 
ATOM      8  C   LIG    1        2.614   5.375  -1.541  0.00  0.00    +0.030 C 
ATOM      9  C   LIG    1        1.480   6.416  -1.554  0.00  0.00    +0.070 C 
ATOM     10  C   LIG    1        0.482   5.946  -2.545  0.00  0.00    +0.510 C 
ATOM     11  N   LIG    1       -0.888   6.205  -2.247  0.00  0.00    -0.750 N 
ATOM     12  H   LIG    1       -1.075   6.559  -1.386  0.00  0.00    +0.400 HD
ATOM     13  C   LIG    1       -1.810   5.852  -3.223  0.00  0.00    +0.300 C 
ATOM     14  C   LIG    1       -2.861   4.882  -2.621  0.00  0.00    +0.240 C 
ATOM     15  N   LIG    1       -2.146   3.732  -2.031  0.00  0.00    -0.700 N 
ATOM     16  H   LIG    1       -1.302   3.854  -1.710  0.00  0.00    +0.400 HD
ATOM     17  O   LIG    1        0.745   5.495  -3.630  0.00  0.00    -0.490 OA
ATOM     18  C   LIG    1       -2.857   2.612  -1.837  0.00  0.00    +0.520 C 
ATOM     19  O   LIG    1       -4.009   2.438  -2.159  0.00  0.00    -0.520 OA
ENDROOT
BRANCH  14  20
ATOM     20  C   LIG    1       -3.737   5.672  -1.583  0.00  0.00    -0.100 A 
ATOM     21  C   LIG    1       -3.259   5.899  -0.306  0.00  0.00    -0.010 A 
ATOM     22  C   LIG    1       -4.027   6.598   0.606  0.00  0.00    +0.000 A 
ATOM     23  C   LIG    1       -5.279   7.061   0.244  0.00  0.00    +0.000 A 
ATOM     24  C   LIG    1       -5.759   6.829  -1.031  0.00  0.00    +0.010 A 
ATOM     25  C   LIG    1       -4.989   6.135  -1.945  0.00  0.00    +0.020 A 
ENDBRANCH  14  20
BRANCH   1  26
ATOM     26  C   LIG    1       -1.083   0.831  -2.426  0.00  0.00    +0.050 C 
BRANCH  26  28
ATOM     27  C   LIG    1       -0.924  -0.012  -4.773  0.00  0.00    +0.010 C 
ATOM     28  C   LIG    1       -1.884   0.349  -3.638  0.00  0.00    -0.030 C 
ATOM     29  C   LIG    1       -2.703  -0.884  -3.249  0.00  0.00    +0.010 C 
ENDBRANCH  26  28
ENDBRANCH   1  26
TORSDOF 3
