REMARK  Name = ZINCpk00000e9abP.0
REMARK                            x       y       z     vdW  Elec       q    Type
REMARK                         _______ _______ _______ _____ _____    ______ ____
ROOT
ATOM      1  C   LIG    1       -0.875   1.840  -2.204  0.00  0.00    +0.020 C 
ATOM      2  C   LIG    1       -0.419   1.282  -0.854  0.00  0.00    +0.110 C 
ATOM      3  C   LIG    1        0.930   1.902  -0.475  0.00  0.00    +0.260 C 
ATOM      4  N   LIG    1        1.999   1.237  -1.233  0.00  0.00    -0.610 N 
ATOM      5  C   LIG    1        2.071  -0.230  -1.167  0.00  0.00    +0.280 C 
ATOM      6  C   LIG    1        0.702  -0.810  -1.517  0.00  0.00    +0.090 C 
ATOM      7  C   LIG    1        0.680  -2.303  -1.099  0.00  0.00    +0.050 C 
ATOM      8  C   LIG    1        0.192  -3.022  -2.379  0.00  0.00    +0.220 C 
ATOM      9  O   LIG    1        0.721  -2.212  -3.452  0.00  0.00    -0.370 OA
ATOM     10  C   LIG    1        0.520  -0.844  -3.042  0.00  0.00    +0.190 C 
ATOM     11  C   LIG    1        2.888   1.948  -1.956  0.00  0.00    +0.570 C 
ATOM     12  O   LIG    1        3.810   1.383  -2.511  0.00  0.00    -0.520 OA
ATOM     13  C   LIG    1       -1.452   1.709   0.207  0.00  0.00    +0.080 C 
ATOM     14  O   LIG    1       -0.348  -0.130  -0.870  0.00  0.00    -0.360 OA
ENDROOT
BRANCH  11  15
ATOM     15  C   LIG    1        2.741   3.412  -2.073  0.00  0.00    -0.120 A 
ATOM     16  C   LIG    1        2.564   4.191  -0.927  0.00  0.00    +0.060 A 
ATOM     17  C   LIG    1        2.428   5.559  -1.035  0.00  0.00    +0.040 A 
ATOM     18  C   LIG    1        2.466   6.165  -2.282  0.00  0.00    +0.100 A 
ATOM     19  O   LIG    1        2.335   7.512  -2.399  0.00  0.00    -0.300 OA
ATOM     20  C   LIG    1        3.058   8.139  -3.462  0.00  0.00    +0.310 C 
ATOM     21  C   LIG    1        2.860   7.360  -4.737  0.00  0.00    +0.490 C 
ATOM     22  N   LIG    1        2.678   6.022  -4.684  0.00  0.00    -0.660 N 
ATOM     23  H   LIG    1        2.573   5.506  -5.499  0.00  0.00    +0.420 HD
ATOM     24  O   LIG    1        2.864   7.932  -5.807  0.00  0.00    -0.500 OA
ATOM     25  C   LIG    1        2.643   5.391  -3.432  0.00  0.00    +0.090 A 
ATOM     26  C   LIG    1        2.786   4.022  -3.330  0.00  0.00    +0.070 A 
ENDBRANCH  11  15
TORSDOF 1
