REMARK  Name = ZINCtV00000rknPK.0
REMARK                            x       y       z     vdW  Elec       q    Type
REMARK                         _______ _______ _______ _____ _____    ______ ____
ROOT
ATOM      1  O   LIG    1        0.995   4.481  -2.840  0.00  0.00    -0.550 OA
ATOM      2  C   LIG    1       -0.165   4.118  -2.875  0.00  0.00    +0.700 C 
ATOM      3  N   LIG    1       -1.091   4.746  -2.123  0.00  0.00    -0.730 N 
ATOM      4  H   LIG    1       -2.016   4.456  -2.152  0.00  0.00    +0.400 HD
ATOM      5  N   LIG    1       -0.525   3.088  -3.667  0.00  0.00    -0.690 N 
ATOM      6  H   LIG    1       -1.460   2.846  -3.753  0.00  0.00    +0.410 HD
ENDROOT
BRANCH   5   7
ATOM      7  C   LIG    1        0.451   2.368  -4.365  0.00  0.00    +0.200 A 
ATOM      8  C   LIG    1        1.569   3.019  -4.870  0.00  0.00    +0.030 A 
ATOM      9  C   LIG    1        2.532   2.304  -5.554  0.00  0.00    +0.090 A 
ATOM     10  C   LIG    1        2.380   0.943  -5.745  0.00  0.00    -0.200 A 
ATOM     11  C   LIG    1        1.265   0.292  -5.248  0.00  0.00    +0.090 A 
ATOM     12  C   LIG    1        0.301   1.001  -4.559  0.00  0.00    -0.010 A 
BRANCH  10  13
ATOM     13  C   LIG    1        3.430   0.167  -6.497  0.00  0.00    +0.510 C 
ATOM     14  F   LIG    1        3.471  -1.147  -6.018  0.00  0.00    -0.180 F 
ATOM     15  F   LIG    1        4.679   0.770  -6.309  0.00  0.00    -0.180 F 
ATOM     16  F   LIG    1        3.117   0.157  -7.860  0.00  0.00    -0.180 F 
ENDBRANCH  10  13
ENDBRANCH   5   7
BRANCH   3  17
ATOM     17  C   LIG    1       -0.699   5.865  -1.263  0.00  0.00    +0.270 C 
ATOM     18  C   LIG    1       -1.921   6.762  -0.975  0.00  0.00    +0.020 C 
ATOM     19  C   LIG    1       -1.727   7.207   0.496  0.00  0.00    +0.030 C 
ATOM     20  C   LIG    1       -1.151   5.934   1.165  0.00  0.00    +0.020 C 
ATOM     21  C   LIG    1       -0.210   5.338   0.097  0.00  0.00    +0.000 C 
BRANCH  21  22
ATOM     22  C   LIG    1       -0.284   3.833   0.125  0.00  0.00    -0.010 A 
ATOM     23  C   LIG    1       -1.497   3.198  -0.058  0.00  0.00    +0.010 A 
ATOM     24  C   LIG    1       -1.564   1.817  -0.036  0.00  0.00    +0.040 A 
ATOM     25  C   LIG    1       -0.419   1.073   0.176  0.00  0.00    +0.010 A 
ATOM     26  C   LIG    1        0.795   1.708   0.358  0.00  0.00    +0.070 A 
ATOM     27  C   LIG    1        0.863   3.089   0.333  0.00  0.00    -0.170 A 
BRANCH  27  28
ATOM     28  C   LIG    1        2.186   3.782   0.532  0.00  0.00    +0.500 C 
ATOM     29  F   LIG    1        2.113   4.611   1.656  0.00  0.00    -0.180 F 
ATOM     30  F   LIG    1        2.483   4.552  -0.598  0.00  0.00    -0.160 F 
ATOM     31  F   LIG    1        3.189   2.826   0.722  0.00  0.00    -0.180 F 
ENDBRANCH  27  28
ENDBRANCH  21  22
ENDBRANCH   3  17
TORSDOF 5
