REMARK  Name = ZINCqH0000008yOR.1
REMARK                            x       y       z     vdW  Elec       q    Type
REMARK                         _______ _______ _______ _____ _____    ______ ____
ROOT
ATOM      1  N   LIG    1        2.123   0.034   1.224  0.00  0.00    -0.520 NA
ATOM      2  C   LIG    1        0.757  -0.508   1.234  0.00  0.00    +0.200 C 
ATOM      3  C   LIG    1        0.002  -0.004   0.002  0.00  0.00    +0.190 C 
ATOM      4  N   LIG    1       -0.018   1.465   0.010  0.00  0.00    -0.540 NA
ATOM      5  C   LIG    1        1.348   2.008   0.000  0.00  0.00    +0.190 C 
ATOM      6  C   LIG    1        2.103   1.504   1.232  0.00  0.00    +0.170 C 
ENDROOT
BRANCH   1   8
ATOM      7  C   LIG    1        3.195  -1.973   2.128  0.00  0.00    +0.090 C 
ATOM      8  C   LIG    1        2.905  -0.488   2.352  0.00  0.00    +0.260 C 
BRANCH   8   9
ATOM      9  C   LIG    1        4.205   0.267   2.455  0.00  0.00    +0.170 A 
ATOM     10  N   LIG    1        5.001   0.566   1.467  0.00  0.00    -0.250 NA
ATOM     11  N   LIG    1        6.017   1.217   1.912  0.00  0.00    -0.270 NA
ATOM     12  C   LIG    1        5.908   1.350   3.216  0.00  0.00    +0.240 A 
ATOM     13  O   LIG    1        4.757   0.750   3.583  0.00  0.00    -0.220 OA
BRANCH  12  14
ATOM     14  C   LIG    1        6.862   2.027   4.108  0.00  0.00    -0.150 A 
ATOM     15  C   LIG    1        8.019   2.627   3.713  0.00  0.00    +0.100 A 
ATOM     16  C   LIG    1        8.745   3.194   4.737  0.00  0.00    +0.020 A 
ATOM     17  C   LIG    1        8.205   3.070   5.954  0.00  0.00    -0.010 A 
ATOM     18  S   LIG    1        6.683   2.196   5.849  0.00  0.00    +0.170 S 
ENDBRANCH  12  14
ENDBRANCH   8   9
ENDBRANCH   1   8
BRANCH   4  19
ATOM     19  C   LIG    1       -0.800   1.987  -1.118  0.00  0.00    +0.180 C 
BRANCH  19  20
ATOM     20  C   LIG    1       -1.008   3.493  -0.941  0.00  0.00    +0.070 C 
BRANCH  20  21
ATOM     21  C   LIG    1       -1.811   4.028  -2.099  0.00  0.00    -0.080 A 
ATOM     22  C   LIG    1       -1.167   4.490  -3.232  0.00  0.00    +0.000 A 
ATOM     23  C   LIG    1       -1.903   4.977  -4.295  0.00  0.00    +0.000 A 
ATOM     24  C   LIG    1       -3.283   5.012  -4.223  0.00  0.00    +0.000 A 
ATOM     25  C   LIG    1       -3.927   4.555  -3.088  0.00  0.00    +0.000 A 
ATOM     26  C   LIG    1       -3.191   4.063  -2.026  0.00  0.00    +0.000 A 
ENDBRANCH  20  21
ENDBRANCH  19  20
ENDBRANCH   4  19
TORSDOF 6
