REMARK  Name = ZINCvU00000009aJ.0
REMARK                            x       y       z     vdW  Elec       q    Type
REMARK                         _______ _______ _______ _____ _____    ______ ____
ROOT
ATOM      1  C   LIG    1       -1.053   2.677   4.735  0.00  0.00    +0.450 C 
ATOM      2  O   LIG    1       -2.027   3.023   5.370  0.00  0.00    -0.460 OA
ENDROOT
BRANCH   1   6
ATOM      3  N   LIG    1       -2.058   1.822   1.350  0.00  0.00    -0.390 N 
ATOM      4  C   LIG    1       -0.718   1.572   1.248  0.00  0.00    +0.020 A 
ATOM      5  C   LIG    1       -0.129   1.833   2.427  0.00  0.00    +0.000 A 
ATOM      6  C   LIG    1       -1.196   2.277   3.334  0.00  0.00    -0.260 A 
ATOM      7  C   LIG    1       -0.013   1.086   0.008  0.00  0.00    +0.130 C 
ATOM      8  C   LIG    1       -2.363   2.240   2.594  0.00  0.00    +0.130 A 
ATOM      9  C   LIG    1       -3.737   2.609   3.090  0.00  0.00    +0.150 C 
BRANCH   3  13
ATOM     10  C   LIG    1       -4.812   1.350  -1.746  0.00  0.00    +0.140 A 
ATOM     11  C   LIG    1       -4.151   0.245  -1.232  0.00  0.00    +0.000 A 
ATOM     12  C   LIG    1       -3.239   0.400  -0.207  0.00  0.00    +0.080 A 
ATOM     13  C   LIG    1       -2.984   1.664   0.309  0.00  0.00    +0.060 A 
ATOM     14  C   LIG    1       -3.650   2.769  -0.202  0.00  0.00    +0.070 A 
ATOM     15  C   LIG    1       -4.558   2.613  -1.231  0.00  0.00    -0.060 A 
BRANCH  10  17
ATOM     16  C   LIG    1       -6.354   2.378  -3.236  0.00  0.00    +0.250 C 
ATOM     17  O   LIG    1       -5.710   1.197  -2.756  0.00  0.00    -0.310 OA
ENDBRANCH  10  17
ENDBRANCH   3  13
ENDBRANCH   1   6
BRANCH   1  18
ATOM     18  C   LIG    1        0.305   2.658   5.389  0.00  0.00    +0.090 C 
BRANCH  18  19
ATOM     19  S   LIG    1        0.153   3.201   7.109  0.00  0.00    +0.040 S 
BRANCH  19  20
ATOM     20  C   LIG    1        1.837   3.086   7.616  0.00  0.00    +0.200 A 
ATOM     21  C   LIG    1        2.219   3.424   8.940  0.00  0.00    -0.140 A 
ATOM     22  C   LIG    1        3.563   3.311   9.278  0.00  0.00    +0.100 A 
ATOM     23  S   LIG    1        3.790   3.779  10.953  0.00  0.00    +0.200 S 
ATOM     24  C   LIG    1        2.074   4.120  11.169  0.00  0.00    -0.190 A 
ATOM     25  C   LIG    1        1.142   4.603  12.277  0.00  0.00    +0.130 C 
ATOM     26  C   LIG    1       -0.135   5.063  11.546  0.00  0.00    +0.050 C 
ATOM     27  C   LIG    1       -0.090   4.197  10.272  0.00  0.00    +0.110 C 
ATOM     28  N   LIG    1        4.436   2.892   8.350  0.00  0.00    -0.490 NA
ATOM     29  C   LIG    1        4.037   2.590   7.136  0.00  0.00    +0.540 A 
ATOM     30  C   LIG    1        1.392   3.893  10.055  0.00  0.00    -0.090 A 
ATOM     31  N   LIG    1        2.771   2.675   6.768  0.00  0.00    -0.530 NA
ENDBRANCH  19  20
ENDBRANCH  18  19
ENDBRANCH   1  18
TORSDOF 6
