REMARK  Name = ZINCrg00000xafo4.0
REMARK                            x       y       z     vdW  Elec       q    Type
REMARK                         _______ _______ _______ _____ _____    ______ ____
ROOT
ATOM      1  C   LIG    1        0.002  -0.004   0.002  0.00  0.00    +0.510 C 
ATOM      2  N   LIG    1        0.585  -0.664  -1.018  0.00  0.00    -0.600 N 
ATOM      3  C   LIG    1        1.194   0.118  -2.111  0.00  0.00    +0.260 C 
ATOM      4  C   LIG    1        0.884  -0.480  -3.495  0.00  0.00    +0.020 C 
ATOM      5  C   LIG    1       -0.549  -0.949  -3.548  0.00  0.00    +0.030 C 
ATOM      6  C   LIG    1       -0.615  -2.418  -3.141  0.00  0.00    -0.010 C 
ATOM      7  C   LIG    1       -0.690  -2.643  -1.690  0.00  0.00    +0.010 C 
ATOM      8  C   LIG    1        0.593  -2.110  -0.993  0.00  0.00    +0.290 C 
ATOM      9  O   LIG    1       -0.506  -0.622   0.913  0.00  0.00    -0.530 OA
ENDROOT
BRANCH   1  10
ATOM     10  C   LIG    1       -0.018   1.503   0.010  0.00  0.00    +0.300 C 
BRANCH  10  13
ATOM     11  C   LIG    1       -1.548   3.783   2.677  0.00  0.00    +0.110 C 
ATOM     12  C   LIG    1       -0.843   3.297   1.437  0.00  0.00    +0.510 C 
ATOM     13  N   LIG    1       -0.704   1.975   1.216  0.00  0.00    -0.720 N 
ATOM     14  H   LIG    1       -1.058   1.337   1.854  0.00  0.00    +0.410 HD
ATOM     15  O   LIG    1       -0.401   4.096   0.639  0.00  0.00    -0.550 OA
ENDBRANCH  10  13
ENDBRANCH   1  10
BRANCH   6  16
ATOM     16  C   LIG    1       -1.847  -3.048  -3.795  0.00  0.00    +0.020 C 
BRANCH  16  17
ATOM     17  C   LIG    1       -1.866  -4.550  -3.504  0.00  0.00    +0.320 C 
BRANCH  17  18
ATOM     18  N   LIG    1       -3.046  -5.154  -4.130  0.00  0.00    -0.290 N 
ATOM     19  C   LIG    1       -3.039  -6.191  -4.998  0.00  0.00    +0.140 A 
ATOM     20  C   LIG    1       -4.333  -6.421  -5.321  0.00  0.00    -0.010 A 
ATOM     21  N   LIG    1       -5.058  -5.521  -4.648  0.00  0.00    -0.260 NA
ATOM     22  N   LIG    1       -4.266  -4.784  -3.952  0.00  0.00    -0.080 NA
BRANCH  20  23
ATOM     23  C   LIG    1       -4.854  -7.481  -6.257  0.00  0.00    +0.100 C 
ATOM     24  C   LIG    1       -3.953  -8.732  -6.194  0.00  0.00    +0.030 C 
ATOM     25  C   LIG    1       -3.914  -9.245  -7.655  0.00  0.00    +0.020 C 
ATOM     26  C   LIG    1       -3.870  -7.934  -8.477  0.00  0.00    -0.020 C 
ATOM     27  C   LIG    1       -4.801  -6.974  -7.709  0.00  0.00    +0.170 C 
BRANCH  27  28
ATOM     28  O   LIG    1       -6.110  -6.996  -8.283  0.00  0.00    -0.560 OA
ATOM     29  H   LIG    1       -6.143  -6.687  -9.199  0.00  0.00    +0.380 HD
ENDBRANCH  27  28
ENDBRANCH  20  23
ENDBRANCH  17  18
ENDBRANCH  16  17
ENDBRANCH   6  16
TORSDOF 7
