REMARK  Name = ZINCrD000000A7x5.0
REMARK                            x       y       z     vdW  Elec       q    Type
REMARK                         _______ _______ _______ _____ _____    ______ ____
ROOT
ATOM      1  C   LIG    1        7.540   6.099   3.731  0.00  0.00    -0.020 C 
ATOM      2  C   LIG    1        7.510   7.311   2.796  0.00  0.00    +0.070 C 
ATOM      3  C   LIG    1        7.407   6.828   1.347  0.00  0.00    +0.190 C 
ATOM      4  N   LIG    1        6.187   6.028   1.181  0.00  0.00    -0.530 NA
ATOM      5  C   LIG    1        6.215   4.833   2.035  0.00  0.00    +0.170 C 
ATOM      6  C   LIG    1        6.282   5.256   3.504  0.00  0.00    +0.050 C 
ENDROOT
BRANCH   1   8
ATOM      7  O   LIG    1        7.273   7.709   5.436  0.00  0.00    -0.530 OA
ATOM      8  C   LIG    1        7.582   6.568   5.163  0.00  0.00    +0.520 C 
ATOM      9  N   LIG    1        7.963   5.721   6.139  0.00  0.00    -0.600 N 
ATOM     10  C   LIG    1        7.899   6.171   7.512  0.00  0.00    +0.270 C 
ATOM     11  C   LIG    1        9.227   6.851   7.904  0.00  0.00    +0.010 C 
ATOM     12  C   LIG    1       10.297   5.849   8.027  0.00  0.00    +0.000 C 
ATOM     13  C   LIG    1       10.618   5.110   6.731  0.00  0.00    +0.000 C 
ATOM     14  C   LIG    1        9.672   3.945   6.572  0.00  0.00    +0.020 C 
ATOM     15  C   LIG    1        8.435   4.374   5.763  0.00  0.00    +0.250 C 
ENDBRANCH   1   8
BRANCH   4  16
ATOM     16  C   LIG    1        5.984   5.664  -0.227  0.00  0.00    +0.360 C 
BRANCH  16  17
ATOM     17  C   LIG    1        4.874   4.649  -0.329  0.00  0.00    +0.180 A 
ATOM     18  N   LIG    1        3.599   4.904  -0.481  0.00  0.00    -0.450 NA
ATOM     19  C   LIG    1        2.989   3.698  -0.521  0.00  0.00    +0.210 A 
ATOM     20  N   LIG    1        3.921   2.790  -0.386  0.00  0.00    -0.370 NA
ATOM     21  O   LIG    1        5.007   3.320  -0.280  0.00  0.00    +0.080 OA
BRANCH  19  22
ATOM     22  C   LIG    1        1.534   3.451  -0.681  0.00  0.00    -0.030 A 
ATOM     23  C   LIG    1        0.653   4.522  -0.808  0.00  0.00    +0.070 A 
ATOM     24  C   LIG    1       -0.699   4.286  -0.956  0.00  0.00    +0.010 A 
ATOM     25  C   LIG    1       -1.179   2.989  -0.979  0.00  0.00    +0.030 A 
ATOM     26  C   LIG    1       -0.308   1.922  -0.854  0.00  0.00    +0.010 A 
ATOM     27  C   LIG    1        1.046   2.146  -0.705  0.00  0.00    +0.050 A 
ENDBRANCH  19  22
ENDBRANCH  16  17
ENDBRANCH   4  16
TORSDOF 4
