REMARK  Name = ZINCvU0000000AsK.0
REMARK                            x       y       z     vdW  Elec       q    Type
REMARK                         _______ _______ _______ _____ _____    ______ ____
ROOT
ATOM      1  S   LIG    1       -0.256   2.249  -1.492  0.00  0.00    +0.070 S 
ENDROOT
BRANCH   1   2
ATOM      2  C   LIG    1        0.664   1.571  -2.833  0.00  0.00    +0.150 A 
ATOM      3  N   LIG    1        1.758   0.848  -2.741  0.00  0.00    -0.290 NA
ATOM      4  N   LIG    1        2.166   0.516  -3.913  0.00  0.00    -0.250 NA
ATOM      5  C   LIG    1        1.364   1.013  -4.825  0.00  0.00    +0.220 A 
ATOM      6  N   LIG    1        0.377   1.704  -4.161  0.00  0.00    -0.450 N 
BRANCH   5   7
ATOM      7  C   LIG    1        1.496   0.858  -6.289  0.00  0.00    -0.050 A 
ATOM      8  C   LIG    1        0.482   1.308  -7.136  0.00  0.00    +0.050 A 
ATOM      9  C   LIG    1        0.614   1.167  -8.502  0.00  0.00    +0.010 A 
ATOM     10  C   LIG    1        1.742   0.570  -9.034  0.00  0.00    +0.070 A 
ATOM     11  C   LIG    1        2.750   0.115  -8.202  0.00  0.00    +0.000 A 
ATOM     12  C   LIG    1        2.634   0.256  -6.832  0.00  0.00    +0.140 A 
ATOM     13  F   LIG    1        3.618  -0.189  -6.020  0.00  0.00    -0.110 F 
ENDBRANCH   5   7
BRANCH   6  14
ATOM     14  C   LIG    1       -0.747   2.432  -4.756  0.00  0.00    +0.310 C 
BRANCH  14  15
ATOM     15  C   LIG    1       -1.888   1.456  -5.051  0.00  0.00    -0.040 C 
ATOM     16  C   LIG    1       -3.003   2.187  -5.800  0.00  0.00    +0.040 C 
ATOM     17  C   LIG    1       -2.436   0.899  -3.736  0.00  0.00    +0.040 C 
ENDBRANCH  14  15
ENDBRANCH   6  14
ENDBRANCH   1   2
BRANCH   1  18
ATOM     18  C   LIG    1        0.731   1.649  -0.098  0.00  0.00    +0.090 C 
BRANCH  18  19
ATOM     19  C   LIG    1        0.115   2.120   1.194  0.00  0.00    +0.420 C 
ATOM     20  O   LIG    1       -0.893   2.795   1.175  0.00  0.00    -0.440 OA
BRANCH  19  24
ATOM     21  C   LIG    1        1.900   1.087   4.893  0.00  0.00    +0.190 A 
ATOM     22  C   LIG    1        0.744   1.862   4.873  0.00  0.00    +0.000 A 
ATOM     23  C   LIG    1        0.163   2.199   3.678  0.00  0.00    +0.110 A 
ATOM     24  C   LIG    1        0.734   1.762   2.477  0.00  0.00    -0.190 A 
ATOM     25  C   LIG    1        1.894   0.978   2.502  0.00  0.00    +0.090 A 
ATOM     26  C   LIG    1        2.471   0.650   3.701  0.00  0.00    -0.020 A 
BRANCH  21  28
ATOM     27  C   LIG    1        1.715   0.518   7.190  0.00  0.00    +0.510 C 
ATOM     28  N   LIG    1        2.487   0.747   6.110  0.00  0.00    -0.680 N 
ATOM     29  H   LIG    1        3.452   0.674   6.180  0.00  0.00    +0.420 HD
ATOM     30  O   LIG    1        0.507   0.515   7.082  0.00  0.00    -0.510 OA
BRANCH  27  32
ATOM     31  C   LIG    1        1.260   0.038   9.580  0.00  0.00    +0.050 C 
ATOM     32  C   LIG    1        2.352   0.267   8.533  0.00  0.00    +0.060 C 
ENDBRANCH  27  32
ENDBRANCH  21  28
ENDBRANCH  19  24
ENDBRANCH  18  19
ENDBRANCH   1  18
TORSDOF 9
