REMARK  Name = ZINCqH00000516ZE.0
REMARK                            x       y       z     vdW  Elec       q    Type
REMARK                         _______ _______ _______ _____ _____    ______ ____
ROOT
ATOM      1  O   LIG    1       -1.949   8.611   0.066  0.00  0.00    -0.490 OA
ATOM      2  C   LIG    1       -0.768   8.863   0.057  0.00  0.00    +0.460 C 
ENDROOT
BRANCH   2   3
ATOM      3  O   LIG    1        0.131   7.866   0.043  0.00  0.00    -0.340 OA
BRANCH   3   4
ATOM      4  C   LIG    1       -0.389   6.510   0.040  0.00  0.00    +0.240 C 
BRANCH   4   5
ATOM      5  C   LIG    1        0.758   5.532   0.024  0.00  0.00    +0.400 C 
ATOM      6  O   LIG    1        1.901   5.939   0.016  0.00  0.00    -0.420 OA
BRANCH   5   7
ATOM      7  C   LIG    1        0.492   4.088   0.019  0.00  0.00    -0.160 A 
ATOM      8  C   LIG    1       -0.825   3.617   0.029  0.00  0.00    +0.090 A 
ATOM      9  C   LIG    1       -1.072   2.262   0.019  0.00  0.00    +0.040 A 
ATOM     10  C   LIG    1       -0.016   1.359   0.009  0.00  0.00    +0.070 A 
ATOM     11  O   LIG    1        0.002  -0.004   0.002  0.00  0.00    -0.300 OA
ATOM     12  C   LIG    1        1.335  -0.374   0.401  0.00  0.00    +0.440 C 
ATOM     13  O   LIG    1        2.140   0.745  -0.014  0.00  0.00    -0.300 OA
ATOM     14  C   LIG    1        1.301   1.822  -0.001  0.00  0.00    +0.020 A 
ATOM     15  C   LIG    1        1.557   3.178   0.004  0.00  0.00    +0.110 A 
ENDBRANCH   5   7
ENDBRANCH   4   5
ENDBRANCH   3   4
ENDBRANCH   2   3
BRANCH   2  16
ATOM     16  C   LIG    1       -0.303  10.296   0.060  0.00  0.00    +0.110 C 
BRANCH  16  17
ATOM     17  C   LIG    1       -1.518  11.226   0.076  0.00  0.00    -0.040 C 
ATOM     18  C   LIG    1       -2.350  10.957   1.332  0.00  0.00    +0.030 C 
ATOM     19  C   LIG    1       -3.564  11.886   1.348  0.00  0.00    -0.010 C 
ATOM     20  C   LIG    1       -4.419  11.631   0.106  0.00  0.00    +0.010 C 
ATOM     21  C   LIG    1       -3.588  11.900  -1.150  0.00  0.00    -0.010 C 
ATOM     22  C   LIG    1       -3.116  13.355  -1.146  0.00  0.00    +0.010 C 
ATOM     23  C   LIG    1       -2.261  13.611   0.096  0.00  0.00    -0.010 C 
ATOM     24  C   LIG    1       -3.093  13.342   1.352  0.00  0.00    +0.010 C 
ATOM     25  C   LIG    1       -2.373  10.970  -1.166  0.00  0.00    +0.030 C 
ATOM     26  C   LIG    1       -1.046  12.681   0.080  0.00  0.00    +0.020 C 
ENDBRANCH  16  17
ENDBRANCH   2  16
TORSDOF 6
