REMARK  Name = ZINCrg00000fSJkv.0
REMARK                            x       y       z     vdW  Elec       q    Type
REMARK                         _______ _______ _______ _____ _____    ______ ____
ROOT
ATOM      1  C   LIG    1        1.794   2.929   0.892  0.00  0.00    +0.530 C 
ATOM      2  N   LIG    1        1.371   2.012  -0.000  0.00  0.00    -0.610 N 
ATOM      3  C   LIG    1       -0.019   1.529   0.010  0.00  0.00    +0.240 C 
ATOM      4  C   LIG    1        0.002  -0.004   0.002  0.00  0.00    +0.220 C 
ATOM      5  O   LIG    1        0.824  -0.458  -1.076  0.00  0.00    -0.360 OA
ATOM      6  C   LIG    1        2.194  -0.065  -0.973  0.00  0.00    +0.150 C 
ATOM      7  C   LIG    1        2.286   1.464  -1.015  0.00  0.00    +0.280 C 
ATOM      8  O   LIG    1        2.943   3.314   0.868  0.00  0.00    -0.520 OA
ENDROOT
BRANCH   1  12
ATOM      9  O   LIG    1       -0.212   2.692   5.249  0.00  0.00    -0.520 OA
ATOM     10  C   LIG    1        0.342   3.114   4.256  0.00  0.00    +0.520 C 
ATOM     11  C   LIG    1        0.433   2.381   2.936  0.00  0.00    +0.070 C 
ATOM     12  C   LIG    1        0.838   3.475   1.922  0.00  0.00    +0.000 C 
ATOM     13  C   LIG    1        1.538   4.507   2.834  0.00  0.00    +0.310 C 
ATOM     14  N   LIG    1        0.963   4.303   4.169  0.00  0.00    -0.610 N 
BRANCH  14  15
ATOM     15  C   LIG    1        1.056   5.270   5.265  0.00  0.00    +0.380 C 
BRANCH  15  16
ATOM     16  C   LIG    1       -0.125   6.205   5.211  0.00  0.00    +0.100 A 
ATOM     17  C   LIG    1       -1.245   5.934   5.973  0.00  0.00    -0.010 A 
ATOM     18  C   LIG    1       -2.325   6.804   5.920  0.00  0.00    +0.060 A 
ATOM     19  C   LIG    1       -2.240   7.911   5.091  0.00  0.00    -0.030 A 
ATOM     20  C   LIG    1       -1.088   8.114   4.354  0.00  0.00    +0.260 A 
ATOM     21  N   LIG    1       -0.079   7.269   4.433  0.00  0.00    -0.470 NA
ENDBRANCH  15  16
ENDBRANCH  14  15
ENDBRANCH   1  12
BRANCH   6  22
ATOM     22  C   LIG    1        2.985  -0.657  -2.142  0.00  0.00    +0.200 C 
BRANCH  22  23
ATOM     23  O   LIG    1        2.991  -2.083  -2.038  0.00  0.00    -0.380 OA
BRANCH  23  24
ATOM     24  C   LIG    1        3.708  -2.738  -3.087  0.00  0.00    +0.200 C 
BRANCH  24  25
ATOM     25  C   LIG    1        3.648  -4.252  -2.876  0.00  0.00    -0.050 C 
ATOM     26  C   LIG    1        4.968  -4.981  -2.615  0.00  0.00    +0.020 C 
ATOM     27  C   LIG    1        4.259  -5.141  -3.962  0.00  0.00    +0.030 C 
ENDBRANCH  24  25
ENDBRANCH  23  24
ENDBRANCH  22  23
ENDBRANCH   6  22
TORSDOF 7
