REMARK  Name = ZINCpk00000e9Pgo.2
REMARK                            x       y       z     vdW  Elec       q    Type
REMARK                         _______ _______ _______ _____ _____    ______ ____
ROOT
ATOM      1  C   LIG    1        0.450  -0.145   4.528  0.00  0.00    +0.280 C 
ENDROOT
BRANCH   1   2
ATOM      2  C   LIG    1        1.346   0.097   3.312  0.00  0.00    -0.010 C 
ATOM      3  C   LIG    1        2.813  -0.070   3.718  0.00  0.00    +0.020 C 
ATOM      4  C   LIG    1        3.706   0.233   2.511  0.00  0.00    +0.020 C 
ATOM      5  C   LIG    1        3.416   1.650   2.011  0.00  0.00    +0.170 C 
ATOM      6  N   LIG    1        2.001   1.758   1.635  0.00  0.00    -0.540 NA
ATOM      7  C   LIG    1        1.718   3.062   1.021  0.00  0.00    +0.190 C 
ATOM      8  C   LIG    1        1.125   1.518   2.789  0.00  0.00    +0.230 C 
BRANCH   8   9
ATOM      9  C   LIG    1       -0.313   1.681   2.370  0.00  0.00    +0.090 A 
ATOM     10  C   LIG    1       -1.191   2.585   2.864  0.00  0.00    -0.130 A 
ATOM     11  C   LIG    1       -2.412   2.402   2.208  0.00  0.00    +0.230 A 
ATOM     12  N   LIG    1       -2.272   1.427   1.347  0.00  0.00    -0.290 NA
ATOM     13  N   LIG    1       -0.957   0.952   1.435  0.00  0.00    -0.350 N 
ATOM     14  C   LIG    1       -0.381  -0.140   0.645  0.00  0.00    +0.350 C 
ENDBRANCH   8   9
ENDBRANCH   1   2
BRANCH   1  16
ATOM     15  C   LIG    1       -0.131  -1.986   6.015  0.00  0.00    +0.590 C 
ATOM     16  N   LIG    1        0.572  -1.541   4.955  0.00  0.00    -0.720 N 
ATOM     17  H   LIG    1        1.160  -2.145   4.475  0.00  0.00    +0.400 HD
ATOM     18  O   LIG    1       -0.935  -1.254   6.562  0.00  0.00    -0.540 OA
BRANCH  15  24
ATOM     19  C   LIG    1       -1.405  -3.194   8.553  0.00  0.00    +0.350 C 
ATOM     20  N   LIG    1       -0.495  -3.894   7.642  0.00  0.00    -0.390 N 
ATOM     21  C   LIG    1       -0.084  -5.167   7.777  0.00  0.00    +0.280 A 
ATOM     22  C   LIG    1        0.767  -5.463   6.730  0.00  0.00    -0.130 A 
ATOM     23  C   LIG    1        0.860  -4.303   5.929  0.00  0.00    +0.070 A 
ATOM     24  C   LIG    1        0.072  -3.353   6.509  0.00  0.00    -0.050 A 
BRANCH  22  25
ATOM     25  C   LIG    1        1.430  -6.712   6.500  0.00  0.00    +0.290 C 
ATOM     26  N   LIG    1        1.956  -7.702   6.318  0.00  0.00    -0.430 NA
ENDBRANCH  22  25
ENDBRANCH  15  24
ENDBRANCH   1  16
TORSDOF 5
