REMARK  Name = ZINCvU0000000G8J.0
REMARK                            x       y       z     vdW  Elec       q    Type
REMARK                         _______ _______ _______ _____ _____    ______ ____
ROOT
ATOM      1  C   LIG    1        4.117   3.020  -2.100  0.00  0.00    +0.500 C 
ATOM      2  N   LIG    1        3.507   2.565  -0.987  0.00  0.00    -0.600 N 
ATOM      3  C   LIG    1        4.207   2.568   0.304  0.00  0.00    +0.270 C 
ATOM      4  C   LIG    1        3.341   3.303   1.333  0.00  0.00    +0.020 C 
ATOM      5  C   LIG    1        1.951   2.664   1.373  0.00  0.00    +0.010 C 
ATOM      6  C   LIG    1        1.288   2.796  -0.000  0.00  0.00    +0.230 C 
ATOM      7  C   LIG    1        2.130   2.056  -1.043  0.00  0.00    +0.270 C 
ATOM      8  O   LIG    1        3.509   3.068  -3.148  0.00  0.00    -0.530 OA
ENDROOT
BRANCH   1   9
ATOM      9  C   LIG    1        5.554   3.469  -2.041  0.00  0.00    +0.110 C 
ATOM     10  C   LIG    1        5.944   4.108  -3.376  0.00  0.00    +0.020 C 
ATOM     11  C   LIG    1        7.403   4.564  -3.316  0.00  0.00    +0.030 C 
ATOM     12  C   LIG    1        8.304   3.357  -3.046  0.00  0.00    +0.030 C 
ATOM     13  C   LIG    1        7.914   2.718  -1.711  0.00  0.00    +0.050 C 
ATOM     14  C   LIG    1        6.455   2.263  -1.771  0.00  0.00    +0.050 C 
BRANCH  12  15
ATOM     15  C   LIG    1        9.741   3.806  -2.987  0.00  0.00    -0.080 A 
ATOM     16  C   LIG    1       10.136   4.740  -2.048  0.00  0.00    +0.010 A 
ATOM     17  C   LIG    1       11.455   5.149  -1.991  0.00  0.00    +0.000 A 
ATOM     18  C   LIG    1       12.378   4.631  -2.880  0.00  0.00    -0.010 A 
ATOM     19  C   LIG    1       11.982   3.700  -3.823  0.00  0.00    +0.000 A 
ATOM     20  C   LIG    1       10.664   3.288  -3.877  0.00  0.00    +0.000 A 
ENDBRANCH  12  15
BRANCH   9  22
ATOM     21  C   LIG    1        4.831   5.547  -1.089  0.00  0.00    +0.200 C 
ATOM     22  O   LIG    1        5.712   4.426  -0.991  0.00  0.00    -0.360 OA
ENDBRANCH   9  22
ENDBRANCH   1   9
BRANCH   6  23
ATOM     23  N   LIG    1       -0.056   2.213   0.048  0.00  0.00    -0.630 N 
ATOM     24  C   LIG    1       -0.223   0.781   0.307  0.00  0.00    +0.280 C 
BRANCH  23  25
ATOM     25  C   LIG    1       -1.176   3.021  -0.160  0.00  0.00    +0.210 A 
ATOM     26  C   LIG    1       -2.452   2.493  -0.012  0.00  0.00    -0.070 A 
ATOM     27  C   LIG    1       -3.558   3.296  -0.213  0.00  0.00    +0.050 A 
ATOM     28  C   LIG    1       -3.395   4.622  -0.572  0.00  0.00    -0.140 A 
ATOM     29  C   LIG    1       -2.126   5.149  -0.724  0.00  0.00    +0.050 A 
ATOM     30  C   LIG    1       -4.604   5.493  -0.796  0.00  0.00    +0.070 C 
ATOM     31  C   LIG    1       -1.016   4.353  -0.520  0.00  0.00    -0.070 A 
ENDBRANCH  23  25
ENDBRANCH   6  23
TORSDOF 5
