REMARK  Name = ZINCkj000005iqC1.0
REMARK                            x       y       z     vdW  Elec       q    Type
REMARK                         _______ _______ _______ _____ _____    ______ ____
ROOT
ATOM      1  C   LIG    1       -1.242   7.324   0.051  0.00  0.00    +0.360 C 
ENDROOT
BRANCH   1   2
ATOM      2  C   LIG    1       -1.246   5.817   0.043  0.00  0.00    +0.150 A 
ATOM      3  C   LIG    1       -2.444   5.130   0.051  0.00  0.00    -0.130 A 
ATOM      4  C   LIG    1       -2.423   3.731   0.044  0.00  0.00    +0.510 A 
ATOM      5  N   LIG    1       -1.231   3.095   0.029  0.00  0.00    -0.420 N 
ATOM      6  C   LIG    1       -1.193   1.734   0.017  0.00  0.00    +0.290 A 
ATOM      7  C   LIG    1       -0.013   1.076   0.008  0.00  0.00    +0.020 A 
ATOM      8  C   LIG    1        1.193   1.792   0.000  0.00  0.00    +0.150 A 
ATOM      9  C   LIG    1        1.166   3.154   0.007  0.00  0.00    +0.020 A 
ATOM     10  C   LIG    1       -0.073   3.821   0.022  0.00  0.00    +0.410 A 
ATOM     11  O   LIG    1       -3.465   3.094   0.051  0.00  0.00    -0.500 OA
ATOM     12  N   LIG    1       -0.101   5.153   0.029  0.00  0.00    -0.560 NA
ENDBRANCH   1   2
BRANCH   1  13
ATOM     13  N   LIG    1       -0.644   7.806   1.304  0.00  0.00    -0.500 N 
ATOM     14  H   LIG    1        0.304   7.466   1.376  0.00  0.00    +0.430 HD
ATOM     15  H   LIG    1       -1.183   7.466   2.086  0.00  0.00    +0.430 HD
BRANCH  13  20
ATOM     16  C   LIG    1       -0.115   9.793   2.662  0.00  0.00    +0.150 C 
ATOM     17  C   LIG    1        1.149  10.621   2.354  0.00  0.00    +0.030 C 
ATOM     18  C   LIG    1        0.970  11.056   0.879  0.00  0.00    +0.060 C 
ATOM     19  C   LIG    1        0.323   9.806   0.230  0.00  0.00    +0.050 C 
ATOM     20  C   LIG    1       -0.640   9.274   1.311  0.00  0.00    +0.180 C 
BRANCH  16  22
ATOM     21  C   LIG    1       -1.057  10.597   4.714  0.00  0.00    +0.220 C 
ATOM     22  O   LIG    1       -1.101  10.618   3.286  0.00  0.00    -0.370 OA
ENDBRANCH  16  22
ENDBRANCH  13  20
ENDBRANCH   1  13
TORSDOF 4
