REMARK  Name = ZINCpk000000ntH3.0
REMARK                            x       y       z     vdW  Elec       q    Type
REMARK                         _______ _______ _______ _____ _____    ______ ____
ROOT
ATOM      1  C   LIG    1       -0.789   0.590   2.349  0.00  0.00    +0.530 C 
ATOM      2  N   LIG    1        0.374   0.191   2.900  0.00  0.00    -0.720 N 
ATOM      3  H   LIG    1        1.213   0.561   2.582  0.00  0.00    +0.410 HD
ATOM      4  O   LIG    1       -1.838   0.129   2.747  0.00  0.00    -0.530 OA
ENDROOT
BRANCH   1   7
ATOM      5  N   LIG    1       -2.016   2.009  -0.784  0.00  0.00    -0.620 N 
ATOM      6  C   LIG    1       -2.209   1.800   0.655  0.00  0.00    +0.290 C 
ATOM      7  C   LIG    1       -0.787   1.610   1.239  0.00  0.00    -0.010 C 
ATOM      8  C   LIG    1       -0.013   1.086   0.008  0.00  0.00    +0.070 C 
ATOM      9  C   LIG    1       -0.793   1.611  -1.176  0.00  0.00    +0.520 C 
ATOM     10  O   LIG    1       -0.377   1.665  -2.314  0.00  0.00    -0.530 OA
BRANCH   5  11
ATOM     11  C   LIG    1       -3.027   2.577  -1.680  0.00  0.00    +0.290 C 
BRANCH  11  13
ATOM     12  C   LIG    1       -4.680   0.789  -1.121  0.00  0.00    +0.030 C 
ATOM     13  C   LIG    1       -3.892   1.452  -2.252  0.00  0.00    -0.050 C 
ATOM     14  C   LIG    1       -4.865   2.030  -3.281  0.00  0.00    +0.030 C 
ENDBRANCH  11  13
ENDBRANCH   5  11
ENDBRANCH   1   7
BRANCH   2  15
ATOM     15  C   LIG    1        0.372  -0.800   3.979  0.00  0.00    +0.300 C 
BRANCH  15  16
ATOM     16  C   LIG    1        1.811  -1.074   4.422  0.00  0.00    +0.210 C 
BRANCH  16  17
ATOM     17  O   LIG    1        2.366   0.110   4.997  0.00  0.00    -0.310 OA
BRANCH  17  18
ATOM     18  C   LIG    1        3.648   0.036   5.445  0.00  0.00    +0.140 A 
ATOM     19  C   LIG    1        4.352  -1.154   5.337  0.00  0.00    -0.060 A 
ATOM     20  C   LIG    1        5.657  -1.230   5.788  0.00  0.00    +0.080 A 
ATOM     21  C   LIG    1        6.261  -0.121   6.356  0.00  0.00    -0.000 A 
ATOM     22  O   LIG    1        7.513   0.062   6.873  0.00  0.00    -0.310 OA
ATOM     23  C   LIG    1        7.427   1.256   7.673  0.00  0.00    +0.430 C 
ATOM     24  O   LIG    1        6.362   2.004   7.059  0.00  0.00    -0.310 OA
ATOM     25  C   LIG    1        5.554   1.074   6.471  0.00  0.00    +0.080 A 
ATOM     26  C   LIG    1        4.249   1.149   6.015  0.00  0.00    +0.010 A 
ENDBRANCH  17  18
ENDBRANCH  16  17
ENDBRANCH  15  16
ENDBRANCH   2  15
TORSDOF 7
