REMARK  Name = ZINCqH0000038AyZ.0
REMARK                            x       y       z     vdW  Elec       q    Type
REMARK                         _______ _______ _______ _____ _____    ______ ____
ROOT
ATOM      1  C   LIG    1       -1.122  -2.155   0.213  0.00  0.00    +0.350 C 
ATOM      2  C   LIG    1       -0.912  -2.561   1.674  0.00  0.00    +0.040 C 
ENDROOT
BRANCH   1   3
ATOM      3  N   LIG    1       -1.150  -0.694   0.111  0.00  0.00    -0.740 N 
ATOM      4  H   LIG    1       -1.998  -0.224   0.122  0.00  0.00    +0.390 HD
ATOM      5  C   LIG    1        0.002  -0.004   0.002  0.00  0.00    +0.710 C 
ATOM      6  N   LIG    1       -0.016   1.343   0.011  0.00  0.00    -0.630 N 
ATOM      7  C   LIG    1       -1.290   2.075   0.021  0.00  0.00    +0.250 C 
ATOM      8  C   LIG    1       -1.279   3.059   1.201  0.00  0.00    +0.020 C 
ATOM      9  C   LIG    1       -0.041   3.954   1.098  0.00  0.00    -0.010 C 
ATOM     10  C   LIG    1        1.221   3.093   1.178  0.00  0.00    +0.020 C 
ATOM     11  C   LIG    1        1.238   2.109   0.004  0.00  0.00    +0.300 C 
ATOM     12  O   LIG    1        1.058  -0.597  -0.104  0.00  0.00    -0.580 OA
BRANCH   9  13
ATOM     13  C   LIG    1       -0.044   4.962   2.250  0.00  0.00    +0.180 C 
BRANCH  13  14
ATOM     14  O   LIG    1       -1.162   5.842   2.110  0.00  0.00    -0.570 OA
ATOM     15  H   LIG    1       -1.227   6.509   2.807  0.00  0.00    +0.380 HD
ENDBRANCH  13  14
ENDBRANCH   9  13
ENDBRANCH   1   3
BRANCH   1  18
ATOM     16  C   LIG    1       -1.387  -4.517  -1.652  0.00  0.00    +0.150 C 
ATOM     17  C   LIG    1       -2.572  -3.762  -1.106  0.00  0.00    +0.090 A 
ATOM     18  C   LIG    1       -2.430  -2.719  -0.281  0.00  0.00    -0.230 A 
ATOM     19  S   LIG    1       -4.035  -2.112   0.121  0.00  0.00    +0.090 S 
ATOM     20  C   LIG    1       -4.756  -3.365  -0.885  0.00  0.00    +0.120 A 
ATOM     21  N   LIG    1       -3.807  -4.090  -1.407  0.00  0.00    -0.460 NA
BRANCH  20  22
ATOM     22  C   LIG    1       -6.205  -3.564  -1.101  0.00  0.00    -0.040 A 
ATOM     23  C   LIG    1       -7.128  -2.723  -0.479  0.00  0.00    +0.070 A 
ATOM     24  C   LIG    1       -8.478  -2.909  -0.687  0.00  0.00    +0.000 A 
ATOM     25  C   LIG    1       -8.919  -3.937  -1.506  0.00  0.00    +0.120 A 
ATOM     26  C   LIG    1       -8.007  -4.779  -2.123  0.00  0.00    +0.000 A 
ATOM     27  F   LIG    1      -10.243  -4.119  -1.703  0.00  0.00    -0.130 F 
ATOM     28  C   LIG    1       -6.654  -4.597  -1.925  0.00  0.00    +0.110 A 
ENDBRANCH  20  22
ENDBRANCH   1  18
TORSDOF 5
