REMARK  Name = ZINCvU00000008fb.0
REMARK                            x       y       z     vdW  Elec       q    Type
REMARK                         _______ _______ _______ _____ _____    ______ ____
ROOT
ATOM      1  C   LIG    1        0.577   7.877  -0.030  0.00  0.00    -0.120 A 
ATOM      2  C   LIG    1       -0.247   8.988  -0.082  0.00  0.00    +0.170 A 
ATOM      3  N   LIG    1        0.519  10.122   0.038  0.00  0.00    -0.420 N 
ATOM      4  C   LIG    1        1.853   9.785   0.162  0.00  0.00    +0.100 A 
ATOM      5  C   LIG    1        3.010  10.545   0.305  0.00  0.00    -0.010 A 
ATOM      6  C   LIG    1        4.235   9.922   0.408  0.00  0.00    +0.040 A 
ATOM      7  C   LIG    1        4.330   8.538   0.372  0.00  0.00    -0.010 A 
ATOM      8  C   LIG    1        3.196   7.767   0.233  0.00  0.00    +0.080 A 
ATOM      9  C   LIG    1        1.950   8.384   0.126  0.00  0.00    -0.070 A 
ENDROOT
BRANCH   3  10
ATOM     10  C   LIG    1        0.021  11.430   0.031  0.00  0.00    +0.120 A 
ATOM     11  C   LIG    1       -0.782  11.875   1.073  0.00  0.00    +0.030 A 
ATOM     12  C   LIG    1       -1.267  13.168   1.065  0.00  0.00    +0.020 A 
ATOM     13  C   LIG    1       -0.964  14.015   0.016  0.00  0.00    +0.020 A 
ATOM     14  C   LIG    1       -0.169  13.574  -1.026  0.00  0.00    +0.020 A 
ATOM     15  C   LIG    1        0.324  12.284  -1.022  0.00  0.00    +0.020 A 
ENDBRANCH   3  10
BRANCH   2  16
ATOM     16  C   LIG    1       -1.714   8.960  -0.239  0.00  0.00    -0.040 A 
ATOM     17  C   LIG    1       -2.498   8.200   0.633  0.00  0.00    +0.040 A 
ATOM     18  C   LIG    1       -3.869   8.183   0.484  0.00  0.00    +0.010 A 
ATOM     19  C   LIG    1       -4.467   8.906  -0.533  0.00  0.00    +0.030 A 
ATOM     20  C   LIG    1       -3.696   9.656  -1.404  0.00  0.00    +0.010 A 
ATOM     21  C   LIG    1       -2.325   9.688  -1.264  0.00  0.00    +0.030 A 
ENDBRANCH   2  16
BRANCH   1  23
ATOM     22  N   LIG    1        1.055   5.526  -0.059  0.00  0.00    -0.240 NA
ATOM     23  C   LIG    1        0.163   6.471  -0.119  0.00  0.00    +0.280 C 
BRANCH  22  26
ATOM     24  O   LIG    1        2.762   3.486   0.047  0.00  0.00    -0.480 OA
ATOM     25  C   LIG    1        1.584   3.204  -0.083  0.00  0.00    +0.620 C 
ATOM     26  N   LIG    1        0.660   4.184  -0.144  0.00  0.00    -0.580 N 
ATOM     27  H   LIG    1       -0.278   3.960  -0.247  0.00  0.00    +0.390 HD
BRANCH  25  28
ATOM     28  C   LIG    1        1.171   1.801  -0.171  0.00  0.00    -0.080 A 
ATOM     29  C   LIG    1        1.999   0.716  -0.122  0.00  0.00    +0.050 A 
ATOM     30  C   LIG    1        1.184  -0.420  -0.242  0.00  0.00    -0.060 A 
ATOM     31  C   LIG    1       -0.090   0.015  -0.358  0.00  0.00    +0.210 A 
ATOM     32  O   LIG    1       -0.094   1.354  -0.315  0.00  0.00    -0.170 OA
ENDBRANCH  25  28
ENDBRANCH  22  26
ENDBRANCH   1  23
TORSDOF 5
