REMARK  Name = ZINCvU0000000Aqo.1
REMARK                            x       y       z     vdW  Elec       q    Type
REMARK                         _______ _______ _______ _____ _____    ______ ____
ROOT
ATOM      1  N   LIG    1        4.781   0.340   3.114  0.00  0.00    -0.450 NA
ATOM      2  C   LIG    1        4.118   0.656   2.026  0.00  0.00    +0.360 C 
ATOM      3  N   LIG    1        4.536   1.513   1.044  0.00  0.00    -0.680 N 
ATOM      4  H   LIG    1        5.398   1.950   1.120  0.00  0.00    +0.420 HD
ATOM      5  C   LIG    1        3.770   1.747  -0.008  0.00  0.00    +0.530 C 
ATOM      6  C   LIG    1        2.456   1.000   0.003  0.00  0.00    +0.050 C 
ATOM      7  O   LIG    1        4.094   2.497  -0.905  0.00  0.00    -0.470 OA
ATOM      8  S   LIG    1        2.519   0.051   1.559  0.00  0.00    +0.050 S 
ENDROOT
BRANCH   1  14
ATOM      9  C   LIG    1        7.165   0.244   2.888  0.00  0.00    -0.090 A 
ATOM     10  C   LIG    1        8.405   0.804   3.122  0.00  0.00    +0.020 A 
ATOM     11  C   LIG    1        8.509   1.994   3.819  0.00  0.00    +0.010 A 
ATOM     12  C   LIG    1        7.373   2.634   4.282  0.00  0.00    +0.020 A 
ATOM     13  C   LIG    1        6.127   2.088   4.050  0.00  0.00    -0.090 A 
ATOM     14  C   LIG    1        6.014   0.887   3.347  0.00  0.00    +0.080 A 
BRANCH   9  16
ATOM     15  C   LIG    1        6.804  -0.766   0.652  0.00  0.00    +0.020 C 
ATOM     16  C   LIG    1        7.054  -1.056   2.134  0.00  0.00    +0.070 C 
ENDBRANCH   9  16
BRANCH  13  17
ATOM     17  C   LIG    1        4.891   2.787   4.555  0.00  0.00    +0.050 C 
ATOM     18  C   LIG    1        4.491   2.202   5.910  0.00  0.00    +0.030 C 
ENDBRANCH  13  17
ENDBRANCH   1  14
BRANCH   6  19
ATOM     19  C   LIG    1        1.280   1.979   0.016  0.00  0.00    +0.130 C 
BRANCH  19  20
ATOM     20  C   LIG    1       -0.015   1.208   0.013  0.00  0.00    +0.520 C 
ATOM     21  N   LIG    1       -1.191   1.867   0.018  0.00  0.00    -0.660 N 
ATOM     22  H   LIG    1       -1.205   2.834   0.093  0.00  0.00    +0.410 HD
ATOM     23  O   LIG    1        0.002  -0.004   0.002  0.00  0.00    -0.510 OA
BRANCH  21  24
ATOM     24  C   LIG    1       -2.388   1.157  -0.086  0.00  0.00    +0.140 A 
ATOM     25  C   LIG    1       -2.511  -0.088   0.493  0.00  0.00    +0.020 A 
ATOM     26  C   LIG    1       -3.703  -0.801   0.401  0.00  0.00    +0.030 A 
ATOM     27  C   LIG    1       -4.774  -0.297  -0.271  0.00  0.00    +0.010 A 
ATOM     28  C   LIG    1       -4.688   0.967  -0.881  0.00  0.00    -0.040 A 
ATOM     29  C   LIG    1       -5.777   1.513  -1.581  0.00  0.00    +0.030 A 
ATOM     30  C   LIG    1       -5.660   2.739  -2.160  0.00  0.00    +0.010 A 
ATOM     31  C   LIG    1       -4.474   3.464  -2.069  0.00  0.00    +0.010 A 
ATOM     32  C   LIG    1       -3.398   2.967  -1.398  0.00  0.00    +0.010 A 
ATOM     33  C   LIG    1       -3.482   1.705  -0.789  0.00  0.00    -0.060 A 
ENDBRANCH  21  24
ENDBRANCH  19  20
ENDBRANCH   6  19
TORSDOF 6
