REMARK  Name = ZINCvU0000000Aqo.0
REMARK                            x       y       z     vdW  Elec       q    Type
REMARK                         _______ _______ _______ _____ _____    ______ ____
ROOT
ATOM      1  N   LIG    1        9.904   1.115   2.465  0.00  0.00    -0.450 NA
ATOM      2  C   LIG    1        9.133   0.809   1.448  0.00  0.00    +0.370 C 
ATOM      3  N   LIG    1        9.469   0.014   0.387  0.00  0.00    -0.680 N 
ATOM      4  H   LIG    1       10.354  -0.382   0.343  0.00  0.00    +0.420 HD
ATOM      5  C   LIG    1        8.595  -0.217  -0.582  0.00  0.00    +0.540 C 
ATOM      6  C   LIG    1        7.260   0.462  -0.381  0.00  0.00    +0.050 C 
ATOM      7  O   LIG    1        8.842  -0.912  -1.545  0.00  0.00    -0.470 OA
ATOM      8  S   LIG    1        7.464   1.351   1.198  0.00  0.00    +0.050 S 
ENDROOT
BRANCH   1  14
ATOM      9  C   LIG    1       11.431  -0.596   3.164  0.00  0.00    -0.090 A 
ATOM     10  C   LIG    1       12.718  -1.089   3.220  0.00  0.00    +0.020 A 
ATOM     11  C   LIG    1       13.761  -0.374   2.658  0.00  0.00    +0.010 A 
ATOM     12  C   LIG    1       13.521   0.836   2.031  0.00  0.00    +0.020 A 
ATOM     13  C   LIG    1       12.238   1.338   1.963  0.00  0.00    -0.090 A 
ATOM     14  C   LIG    1       11.180   0.622   2.529  0.00  0.00    +0.080 A 
BRANCH   9  16
ATOM     15  C   LIG    1        9.627  -2.237   2.712  0.00  0.00    +0.020 C 
ATOM     16  C   LIG    1       10.297  -1.372   3.783  0.00  0.00    +0.070 C 
ENDBRANCH   9  16
BRANCH  13  17
ATOM     17  C   LIG    1       11.978   2.656   1.281  0.00  0.00    +0.050 C 
ATOM     18  C   LIG    1       11.970   3.777   2.323  0.00  0.00    +0.030 C 
ENDBRANCH  13  17
ENDBRANCH   1  14
BRANCH   6  19
ATOM     19  C   LIG    1        6.140  -0.575  -0.275  0.00  0.00    +0.130 C 
BRANCH  19  20
ATOM     20  C   LIG    1        4.814   0.130  -0.144  0.00  0.00    +0.520 C 
ATOM     21  N   LIG    1        3.678  -0.586  -0.036  0.00  0.00    -0.660 N 
ATOM     22  H   LIG    1        3.719  -1.553   0.038  0.00  0.00    +0.410 HD
ATOM     23  O   LIG    1        4.770   1.342  -0.137  0.00  0.00    -0.500 OA
BRANCH  21  24
ATOM     24  C   LIG    1        2.441   0.062  -0.031  0.00  0.00    +0.150 A 
ATOM     25  C   LIG    1        2.302   1.298  -0.625  0.00  0.00    +0.020 A 
ATOM     26  C   LIG    1        1.074   1.952  -0.627  0.00  0.00    +0.040 A 
ATOM     27  C   LIG    1       -0.021   1.393  -0.043  0.00  0.00    +0.010 A 
ATOM     28  C   LIG    1        0.078   0.135   0.574  0.00  0.00    -0.030 A 
ATOM     29  C   LIG    1       -1.036  -0.467   1.184  0.00  0.00    +0.030 A 
ATOM     30  C   LIG    1       -0.904  -1.688   1.773  0.00  0.00    +0.020 A 
ATOM     31  C   LIG    1        0.320  -2.352   1.780  0.00  0.00    +0.010 A 
ATOM     32  C   LIG    1        1.421  -1.799   1.198  0.00  0.00    +0.010 A 
ATOM     33  C   LIG    1        1.323  -0.542   0.582  0.00  0.00    -0.060 A 
ENDBRANCH  21  24
ENDBRANCH  19  20
ENDBRANCH   6  19
TORSDOF 6
