REMARK  Name = ZINCpk00000S0yVM.0
REMARK                            x       y       z     vdW  Elec       q    Type
REMARK                         _______ _______ _______ _____ _____    ______ ____
ROOT
ATOM      1  C   LIG    1       -0.807  -0.532   1.189  0.00  0.00    -0.110 C 
ATOM      2  C   LIG    1       -0.189  -0.026   2.497  0.00  0.00    +0.250 C 
ATOM      3  O   LIG    1        1.116  -0.602   2.644  0.00  0.00    -0.370 OA
ATOM      4  C   LIG    1        1.121  -2.031   2.642  0.00  0.00    +0.260 C 
ATOM      5  O   LIG    1        0.558  -2.507   1.416  0.00  0.00    -0.370 OA
ATOM      6  C   LIG    1        2.558  -2.537   2.773  0.00  0.00    +0.100 C 
ATOM      7  C   LIG    1        0.289  -2.546   3.818  0.00  0.00    +0.020 C 
ATOM      8  C   LIG    1       -0.782  -2.064   1.186  0.00  0.00    +0.250 C 
ENDROOT
BRANCH   1   9
ATOM      9  C   LIG    1       -2.231  -0.049   1.083  0.00  0.00    +0.450 C 
ATOM     10  O   LIG    1       -2.566   0.646   0.154  0.00  0.00    -0.440 OA
BRANCH   9  11
ATOM     11  O   LIG    1       -3.127  -0.392   2.022  0.00  0.00    -0.370 OA
BRANCH  11  13
ATOM     12  C   LIG    1       -5.351  -0.383   3.014  0.00  0.00    +0.070 C 
ATOM     13  C   LIG    1       -4.480   0.108   1.856  0.00  0.00    +0.200 C 
ENDBRANCH  11  13
ENDBRANCH   9  11
ENDBRANCH   1   9
BRANCH   1  14
ATOM     14  C   LIG    1        0.002  -0.004   0.002  0.00  0.00    +0.180 C 
BRANCH  14  15
ATOM     15  C   LIG    1       -0.018   1.503   0.010  0.00  0.00    -0.030 A 
ATOM     16  C   LIG    1        1.055   2.327   0.004  0.00  0.00    +0.150 A 
ATOM     17  N   LIG    1        0.562   3.587   0.016  0.00  0.00    -0.300 N 
ATOM     18  N   LIG    1       -0.723   3.518   0.028  0.00  0.00    -0.090 NA
ATOM     19  N   LIG    1       -1.101   2.288   0.019  0.00  0.00    -0.220 NA
BRANCH  17  20
ATOM     20  C   LIG    1        1.355   4.819   0.015  0.00  0.00    +0.390 C 
BRANCH  20  21
ATOM     21  C   LIG    1        0.925   5.702  -1.157  0.00  0.00    -0.070 C 
ATOM     22  C   LIG    1        1.922   5.892  -2.302  0.00  0.00    +0.090 C 
ATOM     23  C   LIG    1        1.642   7.043  -1.333  0.00  0.00    +0.100 C 
BRANCH  21  24
ATOM     24  C   LIG    1       -0.505   5.646  -1.504  0.00  0.00    +0.220 C 
ATOM     25  N   LIG    1       -1.608   5.603  -1.771  0.00  0.00    -0.390 NA
ENDBRANCH  21  24
ENDBRANCH  20  21
ENDBRANCH  17  20
ENDBRANCH  14  15
ENDBRANCH   1  14
TORSDOF 8
