REMARK  Name = ZINCrH00000No4yW.0
REMARK                            x       y       z     vdW  Elec       q    Type
REMARK                         _______ _______ _______ _____ _____    ______ ____
ROOT
ATOM      1  N   LIG    1        2.859   0.839  -1.346  0.00  0.00    -0.520 NA
ENDROOT
BRANCH   1   2
ATOM      2  C   LIG    1        3.944  -0.141  -1.203  0.00  0.00    +0.290 C 
BRANCH   2   6
ATOM      3  N   LIG    1        2.585  -3.365  -0.113  0.00  0.00    -0.370 N 
ATOM      4  C   LIG    1        2.484  -3.515  -1.450  0.00  0.00    +0.220 A 
ATOM      5  C   LIG    1        2.955  -2.386  -2.029  0.00  0.00    -0.220 A 
ATOM      6  C   LIG    1        3.357  -1.516  -1.010  0.00  0.00    +0.080 A 
ATOM      7  C   LIG    1        3.032  -2.114  -3.509  0.00  0.00    +0.120 C 
ATOM      8  N   LIG    1        3.141  -2.104   0.139  0.00  0.00    -0.290 NA
BRANCH   3  10
ATOM      9  C   LIG    1        3.374  -4.640   1.819  0.00  0.00    +0.030 C 
ATOM     10  C   LIG    1        2.188  -4.349   0.898  0.00  0.00    +0.300 C 
ENDBRANCH   3  10
ENDBRANCH   2   6
ENDBRANCH   1   2
BRANCH   1  11
ATOM     11  C   LIG    1        3.350   2.084  -1.951  0.00  0.00    +0.210 C 
BRANCH  11  12
ATOM     12  C   LIG    1        3.656   1.845  -3.431  0.00  0.00    -0.010 C 
ATOM     13  C   LIG    1        5.112   1.982  -3.882  0.00  0.00    +0.010 C 
ATOM     14  C   LIG    1        4.088   3.052  -4.266  0.00  0.00    -0.040 C 
BRANCH  14  15
ATOM     15  C   LIG    1        4.179   4.405  -3.558  0.00  0.00    +0.210 C 
BRANCH  15  16
ATOM     16  O   LIG    1        4.480   5.424  -4.514  0.00  0.00    -0.570 OA
ATOM     17  H   LIG    1        4.553   6.311  -4.134  0.00  0.00    +0.380 HD
ENDBRANCH  15  16
ENDBRANCH  14  15
ENDBRANCH  11  12
ENDBRANCH   1  11
BRANCH   1  18
ATOM     18  C   LIG    1        2.212   1.101  -0.053  0.00  0.00    +0.230 C 
BRANCH  18  19
ATOM     19  C   LIG    1        0.961   1.911  -0.273  0.00  0.00    -0.060 A 
ATOM     20  C   LIG    1        1.030   3.297  -0.259  0.00  0.00    +0.030 A 
ATOM     21  C   LIG    1       -0.108   4.047  -0.459  0.00  0.00    +0.060 A 
ATOM     22  C   LIG    1       -1.329   3.413  -0.675  0.00  0.00    -0.180 A 
ATOM     23  S   LIG    1       -2.946   4.050  -0.959  0.00  0.00    +0.100 S 
ATOM     24  C   LIG    1       -3.576   2.468  -1.071  0.00  0.00    +0.090 A 
ATOM     25  N   LIG    1       -2.663   1.586  -0.911  0.00  0.00    -0.470 NA
ATOM     26  C   LIG    1       -5.027   2.149  -1.327  0.00  0.00    +0.180 C 
ATOM     27  C   LIG    1       -1.405   2.016  -0.695  0.00  0.00    +0.090 A 
ATOM     28  C   LIG    1       -0.226   1.275  -0.482  0.00  0.00    +0.090 A 
ENDBRANCH  18  19
ENDBRANCH   1  18
TORSDOF 9
