REMARK  Name = ZINCrH000004tvqB.0
REMARK                            x       y       z     vdW  Elec       q    Type
REMARK                         _______ _______ _______ _____ _____    ______ ____
ROOT
ATOM      1  C   LIG    1       -0.688   4.296  -4.282  0.00  0.00    +0.570 C 
ATOM      2  N   LIG    1       -1.360   4.599  -5.410  0.00  0.00    -0.610 N 
ATOM      3  C   LIG    1       -2.670   3.998  -5.703  0.00  0.00    +0.320 C 
ATOM      4  C   LIG    1       -2.712   3.590  -7.149  0.00  0.00    -0.030 C 
ATOM      5  C   LIG    1       -1.805   3.945  -8.027  0.00  0.00    -0.070 C 
ATOM      6  C   LIG    1       -0.603   4.784  -7.711  0.00  0.00    +0.080 C 
ATOM      7  C   LIG    1       -0.816   5.549  -6.395  0.00  0.00    +0.290 C 
ATOM      8  O   LIG    1        0.361   4.857  -4.031  0.00  0.00    -0.520 OA
ENDROOT
BRANCH   5   9
ATOM      9  C   LIG    1       -1.979   3.487  -9.422  0.00  0.00    -0.040 A 
ATOM     10  C   LIG    1       -1.055   2.610  -9.991  0.00  0.00    +0.050 A 
ATOM     11  C   LIG    1       -1.225   2.182 -11.292  0.00  0.00    +0.060 A 
ATOM     12  C   LIG    1       -2.303   2.629 -12.036  0.00  0.00    -0.030 A 
ATOM     13  C   LIG    1       -3.221   3.505 -11.478  0.00  0.00    -0.030 A 
ATOM     14 CL   LIG    1       -4.571   4.061 -12.418  0.00  0.00    -0.040 Cl
ATOM     15 CL   LIG    1       -2.506   2.091 -13.674  0.00  0.00    -0.040 Cl
ATOM     16  C   LIG    1       -3.064   3.936 -10.176  0.00  0.00    +0.050 A 
ENDBRANCH   5   9
BRANCH   1  19
ATOM     17  C   LIG    1       -0.886   1.375  -1.933  0.00  0.00    -0.720 A 
ATOM     18  C   LIG    1       -0.379   2.317  -2.802  0.00  0.00    +0.230 A 
ATOM     19  C   LIG    1       -1.225   3.284  -3.350  0.00  0.00    -0.160 A 
ATOM     20  C   LIG    1       -2.580   3.290  -3.014  0.00  0.00    +0.140 A 
ATOM     21  C   LIG    1       -3.076   2.343  -2.144  0.00  0.00    -0.010 A 
ATOM     22  C   LIG    1       -2.234   1.382  -1.607  0.00  0.00    +0.220 A 
ATOM     23  F   LIG    1       -2.726   0.453  -0.759  0.00  0.00    -0.110 F 
BRANCH  17  24
ATOM     24  S   LIG    1        0.180   0.154  -1.240  0.00  0.00    +2.700 S 
ATOM     25  O   LIG    1        1.482   0.429  -1.739  0.00  0.00    -0.950 OA
ATOM     26  O   LIG    1       -0.473  -1.095  -1.417  0.00  0.00    -0.950 OA
BRANCH  24  27
ATOM     27  N   LIG    1        0.238   0.424   0.393  0.00  0.00    -1.250 NA
ATOM     28  H   LIG    1       -0.268   1.155   0.782  0.00  0.00    +0.420 HD
ATOM     29  H   LIG    1        0.778  -0.148   0.960  0.00  0.00    +0.430 HD
ENDBRANCH  24  27
ENDBRANCH  17  24
ENDBRANCH   1  19
TORSDOF 4
