REMARK  Name = ZINCrH000004omUG.0
REMARK                            x       y       z     vdW  Elec       q    Type
REMARK                         _______ _______ _______ _____ _____    ______ ____
ROOT
ATOM      1  C   LIG    1       -0.117   6.092   1.471  0.00  0.00    +0.070 C 
ATOM      2  C   LIG    1       -0.232   5.584   0.033  0.00  0.00    +0.380 C 
ENDROOT
BRANCH   2   3
ATOM      3  C   LIG    1       -1.547   6.028  -0.553  0.00  0.00    +0.180 A 
ATOM      4  N   LIG    1       -1.725   6.987  -1.427  0.00  0.00    -0.450 NA
ATOM      5  C   LIG    1       -3.057   7.026  -1.658  0.00  0.00    +0.220 A 
ATOM      6  N   LIG    1       -3.604   6.097  -0.917  0.00  0.00    -0.360 NA
ATOM      7  O   LIG    1       -2.751   5.513  -0.283  0.00  0.00    +0.090 OA
BRANCH   5   8
ATOM      8  C   LIG    1       -3.765   7.950  -2.578  0.00  0.00    +0.000 A 
ATOM      9  C   LIG    1       -5.150   7.874  -2.716  0.00  0.00    +0.050 A 
ATOM     10  C   LIG    1       -5.805   8.735  -3.573  0.00  0.00    +0.050 A 
ATOM     11  C   LIG    1       -5.090   9.673  -4.295  0.00  0.00    +0.010 A 
ATOM     12  C   LIG    1       -3.714   9.754  -4.163  0.00  0.00    +0.100 A 
ATOM     13  F   LIG    1       -3.020  10.672  -4.871  0.00  0.00    -0.130 F 
ATOM     14  C   LIG    1       -3.049   8.899  -3.304  0.00  0.00    +0.040 A 
ENDBRANCH   5   8
ENDBRANCH   2   3
BRANCH   2  15
ATOM     15  N   LIG    1       -0.163   4.121   0.025  0.00  0.00    -0.710 N 
ATOM     16  H   LIG    1       -0.979   3.597   0.030  0.00  0.00    +0.420 HD
ATOM     17  C   LIG    1        1.035   3.503   0.011  0.00  0.00    +0.570 C 
ATOM     18  O   LIG    1        2.057   4.159   0.004  0.00  0.00    -0.500 OA
BRANCH  17  19
ATOM     19  C   LIG    1        1.105   2.023   0.002  0.00  0.00    +0.130 A 
ATOM     20  N   LIG    1       -0.016   1.311   0.009  0.00  0.00    -0.460 NA
ATOM     21  C   LIG    1        0.002  -0.004   0.002  0.00  0.00    +0.310 A 
ATOM     22  C   LIG    1        1.200  -0.699  -0.013  0.00  0.00    +0.020 A 
ATOM     23  C   LIG    1        2.395   0.005  -0.020  0.00  0.00    +0.130 A 
ATOM     24  C   LIG    1        2.345   1.390  -0.013  0.00  0.00    -0.180 A 
BRANCH  24  25
ATOM     25  C   LIG    1        3.616   2.200  -0.021  0.00  0.00    +0.520 C 
ATOM     26  F   LIG    1        3.666   3.001   1.125  0.00  0.00    -0.160 F 
ATOM     27  F   LIG    1        3.644   3.012  -1.160  0.00  0.00    -0.160 F 
ATOM     28  F   LIG    1        4.718   1.338  -0.036  0.00  0.00    -0.180 F 
ENDBRANCH  24  25
ENDBRANCH  17  19
ENDBRANCH   2  15
TORSDOF 5
