REMARK  Name = ZINCvU0000000B7o.0
REMARK                            x       y       z     vdW  Elec       q    Type
REMARK                         _______ _______ _______ _____ _____    ______ ____
ROOT
ATOM      1  C   LIG    1       -0.973   7.090   1.703  0.00  0.00    -0.010 C 
ATOM      2  C   LIG    1       -2.458   6.747   1.549  0.00  0.00    +0.020 C 
ATOM      3  C   LIG    1       -2.723   6.402   0.088  0.00  0.00    +0.050 C 
ATOM      4  C   LIG    1       -1.862   5.274  -0.407  0.00  0.00    +0.160 C 
ATOM      5  O   LIG    1       -2.313   3.992   0.052  0.00  0.00    -0.290 OA
ATOM      6  C   LIG    1       -1.248   3.137   0.031  0.00  0.00    +0.110 A 
ATOM      7  C   LIG    1       -1.219   1.746   0.017  0.00  0.00    +0.030 A 
ATOM      8  C   LIG    1       -0.013   1.076   0.008  0.00  0.00    +0.060 A 
ATOM      9  C   LIG    1        1.182   1.783   0.000  0.00  0.00    +0.100 A 
ATOM     10  C   LIG    1        1.158   3.173   0.007  0.00  0.00    +0.050 A 
ATOM     11  C   LIG    1       -0.046   3.835   0.021  0.00  0.00    -0.160 A 
ATOM     12  C   LIG    1       -0.401   5.317   0.025  0.00  0.00    +0.030 C 
ATOM     13  C   LIG    1       -0.153   5.841   1.407  0.00  0.00    +0.030 C 
ENDROOT
BRANCH   1  14
ATOM     14  C   LIG    1       -0.700   7.561   3.133  0.00  0.00    -0.060 C 
ATOM     15  C   LIG    1        0.784   7.902   3.283  0.00  0.00    +0.020 C 
ATOM     16  C   LIG    1       -1.069   6.448   4.116  0.00  0.00    +0.030 C 
BRANCH  14  18
ATOM     17  C   LIG    1       -1.268   9.275   4.859  0.00  0.00    +0.010 C 
ATOM     18  C   LIG    1       -1.541   8.804   3.429  0.00  0.00    +0.010 C 
ENDBRANCH  14  18
ENDBRANCH   1  14
BRANCH   9  19
ATOM     19  N   LIG    1        2.404   1.100  -0.014  0.00  0.00    -1.050 N 
ATOM     20  H   LIG    1        3.123   1.379   0.575  0.00  0.00    +0.430 HD
BRANCH  19  21
ATOM     21  S   LIG    1        2.623  -0.184  -1.036  0.00  0.00    +2.700 S 
ATOM     22  O   LIG    1        1.489  -1.025  -0.873  0.00  0.00    -0.930 OA
ATOM     23  O   LIG    1        3.957  -0.631  -0.840  0.00  0.00    -0.940 OA
BRANCH  21  24
ATOM     24  C   LIG    1        2.545   0.440  -2.682  0.00  0.00    -0.680 A 
ATOM     25  C   LIG    1        3.696   0.874  -3.312  0.00  0.00    +0.190 A 
ATOM     26  C   LIG    1        3.636   1.363  -4.604  0.00  0.00    +0.030 A 
ATOM     27  C   LIG    1        2.424   1.419  -5.265  0.00  0.00    +0.160 A 
ATOM     28  C   LIG    1        1.272   0.986  -4.635  0.00  0.00    -0.060 A 
ATOM     29  C   LIG    1        1.333   0.491  -3.346  0.00  0.00    +0.220 A 
BRANCH  28  30
ATOM     30  N   LIG    1       -0.027   1.045  -5.344  0.00  0.00    +0.030 N 
ATOM     31  O   LIG    1       -1.041   0.663  -4.789  0.00  0.00    -0.140 OA
ATOM     32  O   LIG    1       -0.080   1.476  -6.482  0.00  0.00    -0.150 OA
ENDBRANCH  28  30
ENDBRANCH  21  24
ENDBRANCH  19  21
ENDBRANCH   9  19
TORSDOF 6
