REMARK  Name = ZINCqH0000038yxm.0
REMARK                            x       y       z     vdW  Elec       q    Type
REMARK                         _______ _______ _______ _____ _____    ______ ____
ROOT
ATOM      1  C   LIG    1       -2.855   3.099   0.032  0.00  0.00    +0.290 C 
ENDROOT
BRANCH   1   2
ATOM      2  C   LIG    1       -2.908   1.569   0.028  0.00  0.00    -0.030 C 
ATOM      3  C   LIG    1       -2.047   1.032  -1.117  0.00  0.00    +0.020 C 
ATOM      4  C   LIG    1       -0.600   1.491  -0.925  0.00  0.00    +0.020 C 
ATOM      5  C   LIG    1       -0.068   0.959   0.407  0.00  0.00    +0.000 C 
ATOM      6  C   LIG    1       -0.929   1.496   1.551  0.00  0.00    +0.010 C 
ATOM      7  C   LIG    1       -2.376   1.037   1.360  0.00  0.00    +0.040 C 
BRANCH   2   8
ATOM      8  C   LIG    1       -4.333   1.117  -0.161  0.00  0.00    -0.050 A 
ATOM      9  C   LIG    1       -5.317   1.553   0.707  0.00  0.00    +0.010 A 
ATOM     10  C   LIG    1       -6.625   1.139   0.535  0.00  0.00    +0.050 A 
ATOM     11  C   LIG    1       -6.950   0.289  -0.504  0.00  0.00    -0.020 A 
ATOM     12  C   LIG    1       -5.966  -0.148  -1.374  0.00  0.00    +0.100 A 
ATOM     13  F   LIG    1       -6.282  -0.979  -2.391  0.00  0.00    -0.140 F 
ATOM     14  C   LIG    1       -4.657   0.271  -1.204  0.00  0.00    -0.020 A 
ENDBRANCH   2   8
ENDBRANCH   1   2
BRANCH   1  16
ATOM     15  C   LIG    1       -3.368   4.931  -1.490  0.00  0.00    +0.520 C 
ATOM     16  N   LIG    1       -3.405   3.610  -1.226  0.00  0.00    -0.720 N 
ATOM     17  H   LIG    1       -3.797   2.997  -1.868  0.00  0.00    +0.400 HD
ATOM     18  O   LIG    1       -2.878   5.696  -0.687  0.00  0.00    -0.540 OA
BRANCH  15  19
ATOM     19  C   LIG    1       -3.934   5.456  -2.784  0.00  0.00    +0.040 C 
BRANCH  19  20
ATOM     20  C   LIG    1       -3.766   6.976  -2.834  0.00  0.00    +0.320 C 
BRANCH  20  27
ATOM     21  C   LIG    1       -2.087   7.223  -5.206  0.00  0.00    +0.160 C 
ATOM     22  C   LIG    1       -3.544   7.609  -5.208  0.00  0.00    +0.100 A 
ATOM     23  C   LIG    1       -4.138   8.077  -6.296  0.00  0.00    -0.050 A 
ATOM     24  S   LIG    1       -5.816   8.389  -5.816  0.00  0.00    +0.010 S 
ATOM     25  C   LIG    1       -5.603   7.861  -4.191  0.00  0.00    +0.480 A 
ATOM     26  O   LIG    1       -6.446   7.833  -3.312  0.00  0.00    -0.470 OA
ATOM     27  N   LIG    1       -4.317   7.487  -4.092  0.00  0.00    -0.530 N 
ENDBRANCH  20  27
ENDBRANCH  19  20
ENDBRANCH  15  19
ENDBRANCH   1  16
TORSDOF 6
