REMARK  Name = ZINCrD00000fItnw.0
REMARK                            x       y       z     vdW  Elec       q    Type
REMARK                         _______ _______ _______ _____ _____    ______ ____
ROOT
ATOM      1  C   LIG    1       -1.190  -2.664   1.409  0.00  0.00    +0.220 C 
ATOM      2  C   LIG    1       -2.049  -2.395   2.573  0.00  0.00    +0.010 C 
ATOM      3  C   LIG    1       -2.404  -0.924   2.765  0.00  0.00    +0.030 C 
ATOM      4  C   LIG    1       -3.605  -0.585   1.917  0.00  0.00    +0.020 C 
ATOM      5  C   LIG    1       -3.149  -0.067   0.545  0.00  0.00    +0.280 C 
ATOM      6  N   LIG    1       -2.007  -0.832   0.008  0.00  0.00    -0.600 N 
ATOM      7  C   LIG    1       -1.002  -0.160  -0.589  0.00  0.00    +0.560 C 
ATOM      8  O   LIG    1       -0.978   1.055  -0.553  0.00  0.00    -0.530 OA
ATOM      9  C   LIG    1       -1.918  -2.272   0.101  0.00  0.00    +0.280 C 
ENDROOT
BRANCH   7  10
ATOM     10  C   LIG    1        0.070  -0.900  -1.288  0.00  0.00    -0.140 A 
ATOM     11  C   LIG    1        0.310  -2.240  -0.981  0.00  0.00    +0.050 A 
ATOM     12  C   LIG    1        1.309  -2.927  -1.641  0.00  0.00    +0.000 A 
ATOM     13  C   LIG    1        2.079  -2.287  -2.596  0.00  0.00    +0.040 A 
ATOM     14  C   LIG    1        1.849  -0.957  -2.900  0.00  0.00    +0.000 A 
ATOM     15  C   LIG    1        0.850  -0.260  -2.252  0.00  0.00    +0.070 A 
ENDBRANCH   7  10
BRANCH   1  18
ATOM     16  O   LIG    1        1.313  -3.667   1.571  0.00  0.00    -0.490 OA
ATOM     17  C   LIG    1        0.419  -4.490   1.531  0.00  0.00    +0.600 C 
ATOM     18  N   LIG    1       -0.858  -4.091   1.371  0.00  0.00    -0.720 N 
ATOM     19  H   LIG    1       -1.558  -4.748   1.230  0.00  0.00    +0.410 HD
BRANCH  17  20
ATOM     20  C   LIG    1        0.733  -5.928   1.656  0.00  0.00    +0.020 A 
ATOM     21  N   LIG    1       -0.131  -6.923   1.630  0.00  0.00    -0.230 NA
ATOM     22  N   LIG    1        0.482  -8.044   1.766  0.00  0.00    -0.340 N 
ATOM     23  C   LIG    1        1.816  -7.835   1.893  0.00  0.00    +0.220 A 
ATOM     24  C   LIG    1        2.018  -6.497   1.822  0.00  0.00    -0.100 A 
ATOM     25 CL   LIG    1        3.534  -5.657   1.918  0.00  0.00    +0.010 Cl
BRANCH  22  26
ATOM     26  C   LIG    1       -0.166  -9.358   1.783  0.00  0.00    +0.680 C 
ATOM     27  F   LIG    1        0.096  -9.992   3.002  0.00  0.00    -0.170 F 
ATOM     28  F   LIG    1        0.334 -10.138   0.734  0.00  0.00    -0.170 F 
ENDBRANCH  22  26
ENDBRANCH  17  20
ENDBRANCH   1  18
TORSDOF 4
