REMARK  Name = ZINCrg00000bxZR6.0
REMARK                            x       y       z     vdW  Elec       q    Type
REMARK                         _______ _______ _______ _____ _____    ______ ____
ROOT
ATOM      1  C   LIG    1       -3.588   5.675  -0.867  0.00  0.00    +0.030 C 
ATOM      2  C   LIG    1       -2.581   4.539  -0.675  0.00  0.00    +0.250 C 
ATOM      3  C   LIG    1       -2.566   4.114   0.794  0.00  0.00    +0.290 C 
ATOM      4  N   LIG    1       -3.828   3.423   1.097  0.00  0.00    -0.610 N 
ATOM      5  C   LIG    1       -4.217   2.268   0.276  0.00  0.00    +0.270 C 
ATOM      6  C   LIG    1       -4.235   2.697  -1.197  0.00  0.00    +0.260 C 
ATOM      7  C   LIG    1       -4.613   3.842   2.109  0.00  0.00    +0.570 C 
ATOM      8  O   LIG    1       -4.335   4.861   2.712  0.00  0.00    -0.510 OA
ATOM      9  N   LIG    1       -2.973   3.388  -1.500  0.00  0.00    -0.600 N 
ATOM     10  C   LIG    1       -2.188   2.969  -2.512  0.00  0.00    +0.570 C 
ATOM     11  O   LIG    1       -1.096   3.475  -2.683  0.00  0.00    -0.520 OA
ENDROOT
BRANCH   7  12
ATOM     12  C   LIG    1       -5.807   3.066   2.484  0.00  0.00    -0.080 A 
ATOM     13  C   LIG    1       -5.750   1.684   2.592  0.00  0.00    +0.080 A 
ATOM     14  C   LIG    1       -6.868   0.942   2.950  0.00  0.00    +0.040 A 
ATOM     15  C   LIG    1       -8.076   1.513   3.204  0.00  0.00    +0.110 A 
ATOM     16  C   LIG    1       -8.238   2.905   3.115  0.00  0.00    +0.020 A 
ATOM     17  N   LIG    1       -9.226   3.770   3.285  0.00  0.00    -0.260 NA
ATOM     18  N   LIG    1       -8.782   4.958   3.061  0.00  0.00    -0.200 N 
ATOM     19  H   LIG    1       -9.328   5.756   3.125  0.00  0.00    +0.480 HD
ATOM     20  N   LIG    1       -7.534   4.971   2.744  0.00  0.00    -0.250 NA
ATOM     21  C   LIG    1       -7.081   3.733   2.744  0.00  0.00    +0.060 A 
ENDBRANCH   7  12
BRANCH  10  22
ATOM     22  C   LIG    1       -2.657   1.899  -3.417  0.00  0.00    -0.170 A 
ATOM     23  C   LIG    1       -4.015   1.762  -3.709  0.00  0.00    +0.280 A 
ATOM     24  N   LIG    1       -4.436   0.810  -4.516  0.00  0.00    -0.460 NA
ATOM     25  C   LIG    1       -3.606  -0.047  -5.077  0.00  0.00    +0.270 A 
ATOM     26  C   LIG    1       -2.239   0.020  -4.840  0.00  0.00    +0.060 A 
ATOM     27  C   LIG    1       -1.746   1.010  -4.000  0.00  0.00    +0.100 A 
BRANCH  26  28
ATOM     28  O   LIG    1       -1.394  -0.869  -5.425  0.00  0.00    -0.490 OA
ATOM     29  H   LIG    1       -1.056  -0.583  -6.285  0.00  0.00    +0.400 HD
ENDBRANCH  26  28
ENDBRANCH  10  22
TORSDOF 3
