REMARK  Name = ZINCvU0000000B44.0
REMARK                            x       y       z     vdW  Elec       q    Type
REMARK                         _______ _______ _______ _____ _____    ______ ____
ROOT
ATOM      1  C   LIG    1        0.379  -4.190   0.617  0.00  0.00    +0.230 A 
ATOM      2  N   LIG    1        1.329  -4.828  -0.058  0.00  0.00    -0.290 NA
ATOM      3  N   LIG    1        2.236  -4.191  -0.711  0.00  0.00    -0.160 NA
ATOM      4  C   LIG    1        2.246  -2.862  -0.729  0.00  0.00    +0.060 A 
ATOM      5  C   LIG    1        1.248  -2.163  -0.021  0.00  0.00    +0.230 A 
ATOM      6  N   LIG    1        0.333  -2.864   0.645  0.00  0.00    -0.450 NA
ENDROOT
BRANCH   5   7
ATOM      7  C   LIG    1        1.221  -0.682  -0.013  0.00  0.00    -0.080 A 
ATOM      8  C   LIG    1        0.002  -0.004   0.002  0.00  0.00    +0.070 A 
ATOM      9  C   LIG    1       -0.017   1.376   0.010  0.00  0.00    +0.000 A 
ATOM     10  C   LIG    1        1.170   2.086   0.002  0.00  0.00    +0.040 A 
ATOM     11  C   LIG    1        2.382   1.419  -0.013  0.00  0.00    +0.000 A 
ATOM     12  C   LIG    1        2.414   0.040  -0.021  0.00  0.00    +0.070 A 
ENDBRANCH   5   7
BRANCH   4  13
ATOM     13  C   LIG    1        3.289  -2.127  -1.482  0.00  0.00    -0.060 A 
ATOM     14  C   LIG    1        2.976  -0.930  -2.124  0.00  0.00    +0.050 A 
ATOM     15  C   LIG    1        3.953  -0.247  -2.820  0.00  0.00    +0.010 A 
ATOM     16  C   LIG    1        5.239  -0.753  -2.889  0.00  0.00    +0.030 A 
ATOM     17  C   LIG    1        5.554  -1.944  -2.258  0.00  0.00    +0.010 A 
ATOM     18  C   LIG    1        4.587  -2.632  -1.555  0.00  0.00    +0.060 A 
ENDBRANCH   4  13
BRANCH   1  19
ATOM     19  S   LIG    1       -0.835  -5.119   1.493  0.00  0.00    +0.060 S 
BRANCH  19  20
ATOM     20  C   LIG    1       -0.281  -6.799   1.111  0.00  0.00    +0.200 C 
BRANCH  20  28
ATOM     21  C   LIG    1       -4.864 -10.011   0.949  0.00  0.00    +0.150 C 
ATOM     22  C   LIG    1       -3.958  -9.970   2.152  0.00  0.00    +0.150 A 
ATOM     23  C   LIG    1       -4.234 -10.722   3.246  0.00  0.00    -0.040 A 
ATOM     24  C   LIG    1       -3.376 -10.665   4.353  0.00  0.00    +0.210 A 
ATOM     25  N   LIG    1       -2.316  -9.892   4.332  0.00  0.00    -0.440 NA
ATOM     26  C   LIG    1       -2.031  -9.143   3.257  0.00  0.00    +0.400 A 
ATOM     27  N   LIG    1       -1.037  -8.305   3.000  0.00  0.00    -0.460 NA
ATOM     28  C   LIG    1       -1.198  -7.794   1.776  0.00  0.00    +0.080 A 
ATOM     29  C   LIG    1       -2.315  -8.321   1.231  0.00  0.00    +0.120 A 
ATOM     30  C   LIG    1       -3.672 -11.498   5.574  0.00  0.00    +0.160 C 
ATOM     31  N   LIG    1       -2.850  -9.174   2.157  0.00  0.00    -0.400 N 
ENDBRANCH  20  28
ENDBRANCH  19  20
ENDBRANCH   1  19
TORSDOF 5
