REMARK  Name = ZINCpk00000y6u5c.0
REMARK                            x       y       z     vdW  Elec       q    Type
REMARK                         _______ _______ _______ _____ _____    ______ ____
ROOT
ATOM      1  O   LIG    1       -1.071   3.794  -0.041  0.00  0.00    -0.520 OA
ATOM      2  C   LIG    1        0.015   4.336   0.024  0.00  0.00    +0.570 C 
ATOM      3  N   LIG    1        0.093   5.677   0.132  0.00  0.00    -0.600 N 
ATOM      4  C   LIG    1        1.397   6.354   0.131  0.00  0.00    +0.260 C 
ATOM      5  C   LIG    1        1.497   7.245   1.368  0.00  0.00    +0.030 C 
ATOM      6  C   LIG    1        0.296   8.193   1.408  0.00  0.00    +0.070 C 
ATOM      7  C   LIG    1       -0.997   7.379   1.500  0.00  0.00    +0.110 C 
ATOM      8  C   LIG    1       -1.124   6.490   0.259  0.00  0.00    +0.290 C 
ENDROOT
BRANCH   2   9
ATOM      9  C   LIG    1        1.247   3.527  -0.014  0.00  0.00    -0.170 A 
ATOM     10  C   LIG    1        2.258   3.798  -0.928  0.00  0.00    +0.270 A 
ATOM     11  N   LIG    1        3.364   3.075  -0.965  0.00  0.00    -0.490 NA
ATOM     12  C   LIG    1        3.598   2.063  -0.164  0.00  0.00    +0.340 A 
ATOM     13  C   LIG    1        2.660   1.679   0.808  0.00  0.00    -0.120 A 
ATOM     14  C   LIG    1        2.885   0.601   1.678  0.00  0.00    +0.060 A 
ATOM     15  C   LIG    1        1.937   0.276   2.601  0.00  0.00    +0.010 A 
ATOM     16  C   LIG    1        0.749   0.996   2.696  0.00  0.00    +0.040 A 
ATOM     17  C   LIG    1        0.498   2.050   1.866  0.00  0.00    +0.020 A 
ATOM     18  C   LIG    1        1.448   2.410   0.909  0.00  0.00    +0.010 A 
ENDBRANCH   2   9
BRANCH   7  19
ATOM     19  O   LIG    1       -0.963   6.561   2.671  0.00  0.00    -0.540 OA
ATOM     20  H   LIG    1       -1.752   6.015   2.792  0.00  0.00    +0.380 HD
ENDBRANCH   7  19
BRANCH   7  21
ATOM     21  C   LIG    1       -2.194   8.329   1.573  0.00  0.00    +0.320 C 
BRANCH  21  22
ATOM     22  N   LIG    1       -3.431   7.549   1.657  0.00  0.00    -0.300 N 
ATOM     23  C   LIG    1       -4.377   7.663   2.618  0.00  0.00    +0.140 A 
ATOM     24  C   LIG    1       -5.338   6.761   2.310  0.00  0.00    +0.140 A 
ATOM     25  N   LIG    1       -4.939   6.148   1.190  0.00  0.00    -0.260 NA
ATOM     26  N   LIG    1       -3.808   6.641   0.826  0.00  0.00    -0.090 NA
ENDBRANCH  21  22
ENDBRANCH   7  21
TORSDOF 4
