REMARK  Name = ZINCrH000004srZt.0
REMARK                            x       y       z     vdW  Elec       q    Type
REMARK                         _______ _______ _______ _____ _____    ______ ____
ROOT
ATOM      1  C   LIG    1       -4.462   5.466   0.075  0.00  0.00    -0.260 A 
ATOM      2  C   LIG    1       -4.812   4.145   0.072  0.00  0.00    +0.110 A 
ATOM      3  C   LIG    1       -3.759   3.273   0.051  0.00  0.00    +0.010 A 
ATOM      4  C   LIG    1       -2.528   3.863   0.048  0.00  0.00    -0.110 A 
ATOM      5  S   LIG    1       -2.709   5.612   0.059  0.00  0.00    +0.170 S 
ENDROOT
BRANCH   4   6
ATOM      6  C   LIG    1       -1.239   3.142   0.030  0.00  0.00    -0.020 A 
ATOM      7  C   LIG    1       -1.218   1.746   0.017  0.00  0.00    +0.050 A 
ATOM      8  C   LIG    1       -0.013   1.076   0.008  0.00  0.00    +0.030 A 
ATOM      9  C   LIG    1        1.182   1.784   0.000  0.00  0.00    +0.060 A 
ATOM     10  O   LIG    1        2.359   1.101  -0.010  0.00  0.00    -0.300 OA
ATOM     11  C   LIG    1        3.527   1.835  -0.393  0.00  0.00    +0.230 C 
ATOM     12  C   LIG    1        3.520   3.174   0.357  0.00  0.00    +0.230 C 
ATOM     13  O   LIG    1        2.330   3.884  -0.005  0.00  0.00    -0.310 OA
ATOM     14  C   LIG    1        1.168   3.176   0.006  0.00  0.00    +0.060 A 
ATOM     15  C   LIG    1       -0.038   3.854   0.023  0.00  0.00    +0.040 A 
ENDBRANCH   4   6
BRANCH   1  18
ATOM     16  N   LIG    1       -4.939   7.854   0.093  0.00  0.00    -0.730 N 
ATOM     17  H   LIG    1       -3.984   8.022   0.085  0.00  0.00    +0.400 HD
ATOM     18  C   LIG    1       -5.402   6.588   0.090  0.00  0.00    +0.590 C 
ATOM     19  O   LIG    1       -6.601   6.378   0.101  0.00  0.00    -0.520 OA
BRANCH  16  20
ATOM     20  C   LIG    1       -5.880   8.977   0.108  0.00  0.00    +0.280 C 
BRANCH  20  21
ATOM     21  C   LIG    1       -5.102  10.294   0.107  0.00  0.00    +0.130 C 
BRANCH  21  25
ATOM     22  C   LIG    1       -8.166  13.942  -1.444  0.00  0.00    +0.230 C 
ATOM     23  C   LIG    1       -7.383  13.014  -0.551  0.00  0.00    +0.190 A 
ATOM     24  N   LIG    1       -6.585  12.068  -0.955  0.00  0.00    -0.480 NA
ATOM     25  C   LIG    1       -6.069  11.450   0.123  0.00  0.00    -0.010 A 
ATOM     26  C   LIG    1       -6.568  12.052   1.215  0.00  0.00    -0.040 A 
ATOM     27  C   LIG    1       -6.265  11.698   2.648  0.00  0.00    +0.190 C 
ATOM     28  O   LIG    1       -7.390  13.030   0.788  0.00  0.00    -0.200 OA
ENDBRANCH  21  25
ENDBRANCH  20  21
ENDBRANCH  16  20
ENDBRANCH   1  18
TORSDOF 5
