REMARK  Name = ZINCvU000000078H.0
REMARK                            x       y       z     vdW  Elec       q    Type
REMARK                         _______ _______ _______ _____ _____    ______ ____
ROOT
ATOM      1  C   LIG    1       -6.520  -3.865  -2.039  0.00  0.00    +0.440 C 
ENDROOT
BRANCH   1   2
ATOM      2  C   LIG    1       -5.234  -3.102  -1.850  0.00  0.00    -0.150 A 
ATOM      3  C   LIG    1       -4.523  -2.665  -2.953  0.00  0.00    +0.090 A 
ATOM      4  C   LIG    1       -3.344  -1.965  -2.782  0.00  0.00    -0.010 A 
ATOM      5  C   LIG    1       -2.874  -1.700  -1.504  0.00  0.00    +0.150 A 
ATOM      6  C   LIG    1       -3.588  -2.144  -0.400  0.00  0.00    -0.080 A 
ATOM      7  C   LIG    1       -4.769  -2.839  -0.575  0.00  0.00    +0.070 A 
BRANCH   5   8
ATOM      8  O   LIG    1       -1.715  -1.012  -1.334  0.00  0.00    -0.310 OA
BRANCH   8   9
ATOM      9  C   LIG    1       -1.293  -0.775   0.011  0.00  0.00    +0.240 C 
BRANCH   9  10
ATOM     10  C   LIG    1        0.002  -0.004   0.002  0.00  0.00    -0.100 A 
ATOM     11  C   LIG    1       -0.017   1.378   0.010  0.00  0.00    +0.030 A 
ATOM     12  C   LIG    1        1.171   2.086   0.002  0.00  0.00    +0.010 A 
ATOM     13  C   LIG    1        2.377   1.411  -0.015  0.00  0.00    +0.020 A 
ATOM     14  C   LIG    1        2.396   0.029  -0.022  0.00  0.00    +0.010 A 
ATOM     15  C   LIG    1        1.208  -0.679  -0.013  0.00  0.00    +0.030 A 
ENDBRANCH   9  10
ENDBRANCH   8   9
ENDBRANCH   5   8
ENDBRANCH   1   2
BRANCH   1  17
ATOM     16  C   LIG    1       -7.337  -6.044  -1.317  0.00  0.00    +0.520 C 
ATOM     17  N   LIG    1       -6.591  -4.952  -1.059  0.00  0.00    -0.720 N 
ATOM     18  H   LIG    1       -6.101  -4.885  -0.225  0.00  0.00    +0.410 HD
ATOM     19  O   LIG    1       -7.949  -6.128  -2.361  0.00  0.00    -0.520 OA
BRANCH  16  20
ATOM     20  C   LIG    1       -7.410  -7.162  -0.309  0.00  0.00    +0.090 C 
BRANCH  20  21
ATOM     21  C   LIG    1       -8.316  -8.273  -0.844  0.00  0.00    +0.070 C 
BRANCH  21  22
ATOM     22  C   LIG    1       -8.487  -9.334   0.212  0.00  0.00    -0.090 A 
ATOM     23  C   LIG    1       -7.385 -10.013   0.696  0.00  0.00    +0.020 A 
ATOM     24  C   LIG    1       -7.542 -10.983   1.668  0.00  0.00    +0.000 A 
ATOM     25  C   LIG    1       -8.802 -11.280   2.150  0.00  0.00    +0.000 A 
ATOM     26  C   LIG    1       -9.906 -10.605   1.663  0.00  0.00    +0.000 A 
ATOM     27  C   LIG    1       -9.748  -9.632   0.694  0.00  0.00    +0.010 A 
ENDBRANCH  21  22
BRANCH  21  28
ATOM     28  C   LIG    1       -7.681  -8.893  -2.091  0.00  0.00    +0.210 C 
BRANCH  28  30
ATOM     29  N   LIG    1       -9.320 -10.638  -3.125  0.00  0.00    -0.430 NA
ATOM     30  C   LIG    1       -8.606  -9.878  -2.675  0.00  0.00    +0.210 C 
ENDBRANCH  28  30
ENDBRANCH  21  28
ENDBRANCH  20  21
ENDBRANCH  16  20
ENDBRANCH   1  17
BRANCH   1  31
ATOM     31  C   LIG    1       -7.662  -2.957  -1.848  0.00  0.00    +0.190 C 
ATOM     32  N   LIG    1       -8.544  -2.256  -1.701  0.00  0.00    -0.400 NA
ENDBRANCH   1  31
TORSDOF 11
