REMARK  Name = ZINCvU0000000BXo.0
REMARK                            x       y       z     vdW  Elec       q    Type
REMARK                         _______ _______ _______ _____ _____    ______ ____
ROOT
ATOM      1  C   LIG    1       -6.117   0.742  -0.110  0.00  0.00    +0.220 C 
ATOM      2  C   LIG    1       -6.603   0.618  -1.570  0.00  0.00    +0.050 C 
ATOM      3  C   LIG    1       -7.733   1.660  -1.706  0.00  0.00    +0.040 C 
ATOM      4  C   LIG    1       -7.833   2.326  -0.317  0.00  0.00    +0.180 C 
ATOM      5  N   LIG    1       -6.495   2.120   0.295  0.00  0.00    -0.480 NA
ENDROOT
BRANCH   1  10
ATOM      6  C   LIG    1       -2.505   1.000   0.019  0.00  0.00    +0.030 A 
ATOM      7  C   LIG    1       -2.636  -0.350   0.102  0.00  0.00    +0.150 A 
ATOM      8  N   LIG    1       -3.976  -0.617   0.071  0.00  0.00    -0.560 N 
ATOM      9  H   LIG    1       -4.388  -1.494   0.115  0.00  0.00    +0.420 HD
ATOM     10  C   LIG    1       -4.622   0.565  -0.037  0.00  0.00    +0.220 A 
ATOM     11  N   LIG    1       -3.743   1.527  -0.068  0.00  0.00    -0.440 NA
BRANCH   6  16
ATOM     12  C   LIG    1       -0.048   3.850   0.023  0.00  0.00    +0.130 A 
ATOM     13  C   LIG    1        1.159   3.165   0.008  0.00  0.00    -0.080 A 
ATOM     14  C   LIG    1        1.173   1.782   0.000  0.00  0.00    +0.050 A 
ATOM     15  C   LIG    1       -0.013   1.076   0.008  0.00  0.00    -0.030 A 
ATOM     16  C   LIG    1       -1.229   1.756   0.017  0.00  0.00    +0.040 A 
ATOM     17  C   LIG    1       -1.243   3.149   0.030  0.00  0.00    +0.010 A 
BRANCH  12  19
ATOM     18  C   LIG    1        1.211   5.867   0.021  0.00  0.00    +0.250 C 
ATOM     19  O   LIG    1       -0.058   5.209   0.030  0.00  0.00    -0.320 OA
ENDBRANCH  12  19
ENDBRANCH   6  16
ENDBRANCH   1  10
BRANCH   5  20
ATOM     20  C   LIG    1       -6.561   2.240   1.758  0.00  0.00    +0.320 C 
BRANCH  20  21
ATOM     21  C   LIG    1       -6.704   3.692   2.137  0.00  0.00    +0.210 A 
ATOM     22  N   LIG    1       -7.831   4.329   2.281  0.00  0.00    -0.480 NA
ATOM     23  C   LIG    1       -7.572   5.600   2.624  0.00  0.00    +0.170 A 
ATOM     24  C   LIG    1       -6.223   5.740   2.681  0.00  0.00    -0.000 A 
ATOM     25  O   LIG    1       -5.691   4.537   2.373  0.00  0.00    -0.180 OA
BRANCH  24  26
ATOM     26  C   LIG    1       -5.478   6.973   3.015  0.00  0.00    -0.020 A 
ATOM     27  C   LIG    1       -4.083   6.964   3.040  0.00  0.00    +0.070 A 
ATOM     28  C   LIG    1       -3.393   8.118   3.348  0.00  0.00    -0.010 A 
ATOM     29  C   LIG    1       -4.084   9.283   3.643  0.00  0.00    +0.110 A 
ATOM     30  C   LIG    1       -5.469   9.296   3.625  0.00  0.00    -0.010 A 
ATOM     31  F   LIG    1       -3.403  10.409   3.949  0.00  0.00    -0.140 F 
ATOM     32  C   LIG    1       -6.168   8.149   3.314  0.00  0.00    +0.070 A 
ENDBRANCH  24  26
ENDBRANCH  20  21
ENDBRANCH   5  20
TORSDOF 6
