REMARK  Name = ZINCkj000005iIPc.0
REMARK                            x       y       z     vdW  Elec       q    Type
REMARK                         _______ _______ _______ _____ _____    ______ ____
ROOT
ATOM      1  C   LIG    1       -0.903   3.196   1.433  0.00  0.00    +0.310 C 
ENDROOT
BRANCH   1   2
ATOM      2  N   LIG    1       -1.713   3.651   2.566  0.00  0.00    -0.700 N 
ATOM      3  H   LIG    1       -2.073   3.006   3.194  0.00  0.00    +0.410 HD
ATOM      4  C   LIG    1       -1.956   4.965   2.736  0.00  0.00    +0.500 C 
ATOM      5  O   LIG    1       -1.505   5.772   1.950  0.00  0.00    -0.520 OA
BRANCH   4   6
ATOM      6  C   LIG    1       -2.788   5.433   3.902  0.00  0.00    +0.180 C 
ATOM      7  C   LIG    1       -1.927   5.473   5.178  0.00  0.00    +0.100 C 
ATOM      8  C   LIG    1       -1.977   6.944   5.653  0.00  0.00    +0.070 C 
ATOM      9  C   LIG    1       -3.268   7.480   4.984  0.00  0.00    +0.280 C 
ATOM     10  N   LIG    1       -3.267   6.811   3.658  0.00  0.00    -0.500 N 
ATOM     11  H   LIG    1       -4.201   6.792   3.277  0.00  0.00    +0.440 HD
ATOM     12  H   LIG    1       -2.642   7.290   3.027  0.00  0.00    +0.440 HD
ENDBRANCH   4   6
ENDBRANCH   1   2
BRANCH   1  13
ATOM     13  C   LIG    1       -0.781   1.671   1.473  0.00  0.00    +0.150 C 
ATOM     14  C   LIG    1        0.165   1.206   0.364  0.00  0.00    +0.060 C 
BRANCH  13  15
ATOM     15  O   LIG    1       -2.070   1.085   1.277  0.00  0.00    -0.310 OA
BRANCH  15  19
ATOM     16  C   LIG    1       -2.659  -2.700   2.816  0.00  0.00    +0.100 A 
ATOM     17  C   LIG    1       -3.719  -2.011   2.245  0.00  0.00    +0.030 A 
ATOM     18  C   LIG    1       -3.521  -0.745   1.730  0.00  0.00    +0.030 A 
ATOM     19  C   LIG    1       -2.264  -0.162   1.784  0.00  0.00    +0.080 A 
ATOM     20  C   LIG    1       -1.203  -0.853   2.351  0.00  0.00    -0.040 A 
ATOM     21  C   LIG    1       -1.401  -2.118   2.870  0.00  0.00    -0.040 A 
BRANCH  16  23
ATOM     22  C   LIG    1       -1.718  -4.598   3.897  0.00  0.00    +0.250 C 
ATOM     23  O   LIG    1       -2.853  -3.947   3.323  0.00  0.00    -0.320 OA
ENDBRANCH  16  23
ENDBRANCH  15  19
ENDBRANCH  13  15
ENDBRANCH   1  13
TORSDOF 6
