REMARK  Name = ZINCvU00000006dV.0
REMARK                            x       y       z     vdW  Elec       q    Type
REMARK                         _______ _______ _______ _____ _____    ______ ____
ROOT
ATOM      1  C   LIG    1        6.717  -1.868   0.062  0.00  0.00    +0.160 A 
ATOM      2  N   LIG    1        7.465  -0.801   0.238  0.00  0.00    -0.290 NA
ATOM      3  N   LIG    1        8.707  -1.107   0.121  0.00  0.00    -0.260 NA
ATOM      4  C   LIG    1        8.832  -2.387  -0.147  0.00  0.00    +0.240 A 
ATOM      5  N   LIG    1        7.560  -2.915  -0.193  0.00  0.00    -0.410 N 
ENDROOT
BRANCH   4   6
ATOM      6  C   LIG    1       10.097  -3.121  -0.359  0.00  0.00    -0.020 A 
ATOM      7  C   LIG    1       11.307  -2.570   0.065  0.00  0.00    +0.070 A 
ATOM      8  C   LIG    1       12.483  -3.263  -0.132  0.00  0.00    +0.010 A 
ATOM      9  C   LIG    1       12.467  -4.497  -0.758  0.00  0.00    +0.030 A 
ATOM     10  C   LIG    1       11.271  -5.046  -1.186  0.00  0.00    +0.010 A 
ATOM     11  C   LIG    1       10.087  -4.366  -0.991  0.00  0.00    +0.030 A 
ENDBRANCH   4   6
BRANCH   5  12
ATOM     12  C   LIG    1        7.204  -4.247  -0.448  0.00  0.00    +0.100 A 
ATOM     13  C   LIG    1        7.518  -5.239   0.471  0.00  0.00    +0.040 A 
ATOM     14  C   LIG    1        7.162  -6.549   0.220  0.00  0.00    +0.040 A 
ATOM     15  C   LIG    1        6.502  -6.875  -0.951  0.00  0.00    +0.040 A 
ATOM     16  C   LIG    1        6.193  -5.890  -1.871  0.00  0.00    +0.040 A 
ATOM     17  C   LIG    1        6.542  -4.577  -1.623  0.00  0.00    +0.030 A 
ENDBRANCH   5  12
BRANCH   1  18
ATOM     18  S   LIG    1        4.958  -1.935   0.134  0.00  0.00    +0.070 S 
BRANCH  18  19
ATOM     19  C   LIG    1        4.592  -0.202   0.506  0.00  0.00    +0.090 C 
BRANCH  19  20
ATOM     20  C   LIG    1        3.101  -0.016   0.617  0.00  0.00    +0.470 C 
ATOM     21  O   LIG    1        2.363  -0.978   0.552  0.00  0.00    -0.430 OA
BRANCH  20  24
ATOM     22  C   LIG    1        2.072   1.817  -1.662  0.00  0.00    +0.150 C 
ATOM     23  C   LIG    1        2.093   2.127  -0.187  0.00  0.00    +0.150 A 
ATOM     24  C   LIG    1        2.560   1.282   0.796  0.00  0.00    -0.270 A 
ATOM     25  C   LIG    1        2.385   2.000   2.074  0.00  0.00    -0.060 A 
ATOM     26  C   LIG    1        2.658   1.690   3.402  0.00  0.00    +0.040 A 
ATOM     27  C   LIG    1        2.361   2.604   4.391  0.00  0.00    +0.000 A 
ATOM     28  C   LIG    1        1.804   3.831   4.065  0.00  0.00    +0.030 A 
ATOM     29  C   LIG    1        1.529   4.151   2.753  0.00  0.00    +0.000 A 
ATOM     30  C   LIG    1        1.816   3.240   1.741  0.00  0.00    +0.090 A 
ATOM     31  N   LIG    1        1.658   3.273   0.370  0.00  0.00    -0.570 N 
ATOM     32  H   LIG    1        1.284   4.020  -0.123  0.00  0.00    +0.420 HD
ENDBRANCH  20  24
ENDBRANCH  19  20
ENDBRANCH  18  19
ENDBRANCH   1  18
TORSDOF 6
