REMARK  Name = ZINCqH0000037Pvs.0
REMARK                            x       y       z     vdW  Elec       q    Type
REMARK                         _______ _______ _______ _____ _____    ______ ____
ROOT
ATOM      1  N   LIG    1       -4.115  -0.595   0.038  0.00  0.00    -0.510 N 
ATOM      2  C   LIG    1       -3.334  -1.704   0.034  0.00  0.00    +0.590 A 
ATOM      3  N   LIG    1       -2.033  -1.628   0.022  0.00  0.00    -0.480 NA
ATOM      4  C   LIG    1       -1.407  -0.441   0.013  0.00  0.00    +0.120 A 
ATOM      5  C   LIG    1       -2.148   0.737   0.017  0.00  0.00    -0.080 A 
ATOM      6  O   LIG    1       -1.301   1.787   0.011  0.00  0.00    -0.160 OA
ATOM      7  C   LIG    1       -0.014   1.380  -0.005  0.00  0.00    +0.090 A 
ATOM      8  C   LIG    1        1.191   2.073  -0.017  0.00  0.00    +0.020 A 
ATOM      9  C   LIG    1        2.384   1.383  -0.028  0.00  0.00    +0.070 A 
ATOM     10  C   LIG    1        2.400  -0.004  -0.024  0.00  0.00    +0.000 A 
ATOM     11  C   LIG    1        1.216  -0.710  -0.011  0.00  0.00    +0.100 A 
ATOM     12  C   LIG    1        0.004  -0.024  -0.001  0.00  0.00    -0.120 A 
ATOM     13  C   LIG    1       -3.557   0.635   0.030  0.00  0.00    +0.570 A 
ATOM     14  O   LIG    1       -4.255   1.636   0.033  0.00  0.00    -0.510 OA
ENDROOT
BRANCH   1  15
ATOM     15  C   LIG    1       -5.573  -0.732   0.052  0.00  0.00    +0.360 C 
BRANCH  15  18
ATOM     16  N   LIG    1       -7.377  -0.899   1.736  0.00  0.00    -0.660 N 
ATOM     17  H   LIG    1       -8.018  -0.879   1.008  0.00  0.00    +0.420 HD
ATOM     18  C   LIG    1       -6.060  -0.775   1.477  0.00  0.00    +0.500 C 
ATOM     19  O   LIG    1       -5.267  -0.699   2.392  0.00  0.00    -0.500 OA
BRANCH  16  27
ATOM     20  C   LIG    1      -10.030  -0.086   2.368  0.00  0.00    +0.110 C 
ATOM     21  C   LIG    1       -9.107  -0.672   3.406  0.00  0.00    -0.100 A 
ATOM     22  C   LIG    1       -9.543  -0.832   4.707  0.00  0.00    +0.050 A 
ATOM     23  C   LIG    1       -8.695  -1.365   5.662  0.00  0.00    -0.050 A 
ATOM     24  C   LIG    1       -7.410  -1.743   5.315  0.00  0.00    +0.050 A 
ATOM     25  C   LIG    1       -6.971  -1.590   4.014  0.00  0.00    +0.040 A 
ATOM     26 CL   LIG    1       -9.244  -1.558   7.297  0.00  0.00    -0.070 Cl
ATOM     27  C   LIG    1       -7.820  -1.056   3.054  0.00  0.00    +0.150 A 
ENDBRANCH  16  27
ENDBRANCH  15  18
ENDBRANCH   1  15
TORSDOF 3
