REMARK  Name = ZINCrD0000074km3.0
REMARK                            x       y       z     vdW  Elec       q    Type
REMARK                         _______ _______ _______ _____ _____    ______ ____
ROOT
ATOM      1  C   LIG    1       -5.671   2.009   0.081  0.00  0.00    +0.520 C 
ATOM      2  O   LIG    1       -5.521   1.640  -1.067  0.00  0.00    -0.510 OA
ENDROOT
BRANCH   1   8
ATOM      3  C   LIG    1        1.315   1.699   2.746  0.00  0.00    +0.150 C 
ATOM      4  C   LIG    1       -0.153   1.840   2.435  0.00  0.00    +0.070 A 
ATOM      5  C   LIG    1       -0.718   1.572   1.248  0.00  0.00    -0.160 A 
ATOM      6  C   LIG    1       -2.151   1.848   1.385  0.00  0.00    -0.120 A 
ATOM      7  C   LIG    1       -3.240   1.755   0.523  0.00  0.00    +0.150 A 
ATOM      8  C   LIG    1       -4.508   2.097   0.985  0.00  0.00    -0.160 A 
ATOM      9  C   LIG    1       -4.682   2.524   2.309  0.00  0.00    +0.090 A 
ATOM     10  C   LIG    1       -3.618   2.609   3.157  0.00  0.00    -0.010 A 
ATOM     11  C   LIG    1       -2.340   2.272   2.716  0.00  0.00    +0.130 A 
ATOM     12  C   LIG    1       -0.013   1.086   0.008  0.00  0.00    +0.130 C 
ATOM     13  N   LIG    1       -1.107   2.259   3.323  0.00  0.00    -0.590 N 
ATOM     14  H   LIG    1       -0.938   2.510   4.244  0.00  0.00    +0.420 HD
ENDBRANCH   1   8
BRANCH   1  15
ATOM     15  O   LIG    1       -6.898   2.339   0.527  0.00  0.00    -0.350 OA
BRANCH  15  16
ATOM     16  C   LIG    1       -7.995   2.229  -0.418  0.00  0.00    +0.290 C 
BRANCH  16  17
ATOM     17  C   LIG    1       -9.281   2.637   0.255  0.00  0.00    -0.120 A 
ATOM     18  C   LIG    1      -10.053   1.689   0.900  0.00  0.00    +0.100 A 
ATOM     19  C   LIG    1      -11.230   2.064   1.521  0.00  0.00    +0.000 A 
ATOM     20  C   LIG    1      -11.639   3.384   1.489  0.00  0.00    +0.130 A 
ATOM     21  C   LIG    1      -10.869   4.330   0.839  0.00  0.00    -0.680 A 
ATOM     22  C   LIG    1       -9.690   3.957   0.222  0.00  0.00    +0.140 A 
BRANCH  21  23
ATOM     23  S   LIG    1      -11.390   6.013   0.798  0.00  0.00    +2.690 S 
ATOM     24  O   LIG    1      -10.219   6.791   0.590  0.00  0.00    -0.950 OA
ATOM     25  O   LIG    1      -12.254   6.193   1.912  0.00  0.00    -0.950 OA
BRANCH  23  26
ATOM     26  N   LIG    1      -12.325   6.204  -0.555  0.00  0.00    -1.000 NA
ATOM     27  C   LIG    1      -11.706   6.592  -1.825  0.00  0.00    +0.310 C 
ATOM     28  C   LIG    1      -13.772   5.985  -0.482  0.00  0.00    +0.300 C 
ENDBRANCH  23  26
ENDBRANCH  21  23
ENDBRANCH  16  17
ENDBRANCH  15  16
ENDBRANCH   1  15
TORSDOF 6
