REMARK  Name = ZINCpe00000VVH4s.0
REMARK                            x       y       z     vdW  Elec       q    Type
REMARK                         _______ _______ _______ _____ _____    ______ ____
ROOT
ATOM      1  N   LIG    1       -0.015   0.000  -0.146  0.00  0.00    -0.740 N 
ATOM      2  H   LIG    1        0.833  -0.459  -0.042  0.00  0.00    +0.400 HD
ATOM      3  C   LIG    1       -1.165  -0.702  -0.144  0.00  0.00    +0.710 C 
ATOM      4  N   LIG    1       -1.137  -2.041   0.002  0.00  0.00    -0.680 N 
ATOM      5  H   LIG    1       -0.288  -2.509   0.029  0.00  0.00    +0.410 HD
ATOM      6  O   LIG    1       -2.229  -0.127  -0.275  0.00  0.00    -0.570 OA
ENDROOT
BRANCH   4   7
ATOM      7  C   LIG    1       -2.335  -2.759   0.115  0.00  0.00    +0.120 A 
ATOM      8  C   LIG    1       -3.442  -2.189   0.741  0.00  0.00    +0.100 A 
ATOM      9  C   LIG    1       -4.606  -2.933   0.826  0.00  0.00    +0.020 A 
ATOM     10  C   LIG    1       -4.628  -4.218   0.298  0.00  0.00    +0.340 A 
ATOM     11  N   LIG    1       -3.557  -4.729  -0.285  0.00  0.00    -0.480 NA
ATOM     12  C   LIG    1       -2.433  -4.048  -0.389  0.00  0.00    +0.280 A 
BRANCH  10  13
ATOM     13  N   LIG    1       -5.799  -4.980   0.385  0.00  0.00    -0.330 N 
ATOM     14  C   LIG    1       -5.984  -6.232  -0.079  0.00  0.00    +0.520 A 
ATOM     15  N   LIG    1       -7.210  -6.591   0.202  0.00  0.00    -0.540 NA
ATOM     16  C   LIG    1       -7.839  -5.598   0.831  0.00  0.00    +0.450 A 
ATOM     17  N   LIG    1       -7.016  -4.591   0.966  0.00  0.00    -0.310 NA
ENDBRANCH  10  13
ENDBRANCH   4   7
BRANCH   1  18
ATOM     18  C   LIG    1       -0.045   1.456  -0.305  0.00  0.00    +0.290 C 
BRANCH  18  19
ATOM     19  C   LIG    1        1.383   2.003  -0.272  0.00  0.00    +0.160 C 
BRANCH  19  23
ATOM     20  C   LIG    1        1.635   6.113   0.783  0.00  0.00    +0.010 C 
ATOM     21  C   LIG    1        2.585   5.573  -0.288  0.00  0.00    +0.200 C 
ATOM     22  C   LIG    1        2.675   4.049  -0.170  0.00  0.00    +0.150 C 
ATOM     23  N   LIG    1        1.353   3.463  -0.432  0.00  0.00    -0.530 NA
ATOM     24  C   LIG    1        0.873   3.836  -1.770  0.00  0.00    +0.160 C 
ATOM     25  C   LIG    1        0.800   5.362  -1.873  0.00  0.00    +0.160 C 
ATOM     26  C   LIG    1        0.379   5.760  -3.289  0.00  0.00    +0.050 C 
ATOM     27  O   LIG    1        2.087   5.916  -1.584  0.00  0.00    -0.380 OA
ENDBRANCH  19  23
ENDBRANCH  18  19
ENDBRANCH   1  18
TORSDOF 5
