REMARK  Name = ZINCvU0000000CE1.1
REMARK                            x       y       z     vdW  Elec       q    Type
REMARK                         _______ _______ _______ _____ _____    ______ ____
ROOT
ATOM      1  C   LIG    1        3.555   3.298   2.437  0.00  0.00    -0.670 A 
ATOM      2  C   LIG    1        2.317   3.313   3.056  0.00  0.00    +0.130 A 
ATOM      3  C   LIG    1        2.221   3.112   4.417  0.00  0.00    +0.020 A 
ATOM      4  C   LIG    1        3.379   2.904   5.173  0.00  0.00    -0.020 A 
ATOM      5  C   LIG    1        4.626   2.896   4.541  0.00  0.00    +0.030 A 
ATOM      6  C   LIG    1        4.705   3.092   3.178  0.00  0.00    +0.130 A 
ENDROOT
BRANCH   1   7
ATOM      7  S   LIG    1        3.667   3.549   0.696  0.00  0.00    +2.690 S 
ATOM      8  O   LIG    1        2.494   4.255   0.316  0.00  0.00    -0.950 OA
ATOM      9  O   LIG    1        4.980   4.031   0.444  0.00  0.00    -0.950 OA
BRANCH   7  10
ATOM     10  N   LIG    1        3.570   2.059  -0.021  0.00  0.00    -1.040 N 
ATOM     11  H   LIG    1        4.301   1.738  -0.572  0.00  0.00    +0.430 HD
BRANCH  10  17
ATOM     12  C   LIG    1        2.556  -0.120   0.260  0.00  0.00    +0.110 A 
ATOM     13  C   LIG    1        1.428  -0.901   0.447  0.00  0.00    -0.060 A 
ATOM     14  C   LIG    1        0.183  -0.307   0.541  0.00  0.00    +0.040 A 
ATOM     15  C   LIG    1        0.060   1.067   0.450  0.00  0.00    +0.000 A 
ATOM     16  C   LIG    1        1.181   1.854   0.263  0.00  0.00    +0.030 A 
ATOM     17  C   LIG    1        2.433   1.265   0.167  0.00  0.00    +0.120 A 
BRANCH  12  19
ATOM     18  C   LIG    1        3.832  -2.128   0.270  0.00  0.00    +0.250 C 
ATOM     19  O   LIG    1        3.781  -0.703   0.166  0.00  0.00    -0.320 OA
ENDBRANCH  12  19
ENDBRANCH  10  17
ENDBRANCH   7  10
ENDBRANCH   1   7
BRANCH   4  20
ATOM     20  C   LIG    1        3.285   2.695   6.627  0.00  0.00    +0.120 C 
ATOM     21  C   LIG    1        2.081   2.704   7.233  0.00  0.00    -0.060 C 
BRANCH  21  22
ATOM     22  C   LIG    1        1.988   2.496   8.679  0.00  0.00    +0.550 C 
ATOM     23  N   LIG    1        0.784   2.505   9.285  0.00  0.00    -0.670 N 
ATOM     24  H   LIG    1       -0.025   2.581   8.755  0.00  0.00    +0.410 HD
ATOM     25  O   LIG    1        2.997   2.316   9.335  0.00  0.00    -0.520 OA
BRANCH  23  26
ATOM     26  C   LIG    1        0.701   2.404  10.678  0.00  0.00    +0.160 A 
ATOM     27  C   LIG    1        1.620   1.631  11.375  0.00  0.00    +0.040 A 
ATOM     28  C   LIG    1        1.536   1.534  12.750  0.00  0.00    +0.060 A 
ATOM     29  C   LIG    1        0.537   2.205  13.433  0.00  0.00    -0.110 A 
ATOM     30  C   LIG    1       -0.380   2.975  12.740  0.00  0.00    +0.060 A 
ATOM     31  I   LIG    1        0.414   2.055  15.519  0.00  0.00    -0.040 I 
ATOM     32  C   LIG    1       -0.298   3.081  11.366  0.00  0.00    -0.110 A 
ATOM     33  C   LIG    1       -1.294   3.925  10.614  0.00  0.00    +0.110 C 
ENDBRANCH  23  26
ENDBRANCH  21  22
ENDBRANCH   4  20
TORSDOF 7
