REMARK  Name = ZINCbu0000001MWV.0
REMARK                            x       y       z     vdW  Elec       q    Type
REMARK                         _______ _______ _______ _____ _____    ______ ____
ROOT
ATOM      1  C   LIG    1       -0.032   1.099  -0.029  0.00  0.00    -0.010 C 
ATOM      2  C   LIG    1       -0.831   1.769   1.093  0.00  0.00    +0.050 C 
ATOM      3  C   LIG    1       -2.289   1.304   1.019  0.00  0.00    +0.250 C 
ATOM      4  N   LIG    1       -2.860   1.674  -0.281  0.00  0.00    -0.510 N 
ATOM      5  C   LIG    1       -2.143   0.978  -1.357  0.00  0.00    +0.250 C 
ATOM      6  H   LIG    1       -3.835   1.413  -0.305  0.00  0.00    +0.430 HD
ATOM      7  H   LIG    1       -2.777   2.671  -0.413  0.00  0.00    +0.430 HD
ATOM      8  C   LIG    1       -0.681   1.431  -1.376  0.00  0.00    +0.050 C 
ENDROOT
BRANCH   1   9
ATOM      9  C   LIG    1        1.407   1.617  -0.013  0.00  0.00    +0.000 C 
BRANCH   9  11
ATOM     10  C   LIG    1        3.479   1.827   1.367  0.00  0.00    +0.010 C 
ATOM     11  C   LIG    1        2.084   1.204   1.295  0.00  0.00    +0.000 C 
ENDBRANCH   9  11
BRANCH   9  12
ATOM     12  C   LIG    1        2.176   1.024  -1.195  0.00  0.00    +0.000 C 
ATOM     13  C   LIG    1        2.091  -0.502  -1.144  0.00  0.00    +0.010 C 
ENDBRANCH   9  12
ENDBRANCH   1   9
TORSDOF 3
