REMARK  Name = ZINCnE00000hcgqt.1
REMARK                            x       y       z     vdW  Elec       q    Type
REMARK                         _______ _______ _______ _____ _____    ______ ____
ROOT
ATOM      1  C   LIG    1       -3.702   2.127  -0.184  0.00  0.00    +0.100 C 
ENDROOT
BRANCH   1   2
ATOM      2  C   LIG    1       -2.394   1.385  -0.081  0.00  0.00    +0.530 C 
ATOM      3  N   LIG    1       -1.237   2.069   0.019  0.00  0.00    -0.670 N 
ATOM      4  H   LIG    1       -1.250   3.036   0.090  0.00  0.00    +0.410 HD
ATOM      5  O   LIG    1       -2.383   0.172  -0.088  0.00  0.00    -0.500 OA
BRANCH   3   6
ATOM      6  C   LIG    1       -0.017   1.383   0.021  0.00  0.00    +0.140 A 
ATOM      7  C   LIG    1        0.078   0.134   0.618  0.00  0.00    +0.030 A 
ATOM      8  C   LIG    1        1.282  -0.543   0.613  0.00  0.00    +0.010 A 
ATOM      9  C   LIG    1        2.392   0.023   0.013  0.00  0.00    -0.100 A 
ATOM     10  C   LIG    1        2.300   1.268  -0.583  0.00  0.00    +0.010 A 
ATOM     11  C   LIG    1        3.705  -0.717   0.010  0.00  0.00    +0.080 C 
ATOM     12  C   LIG    1        1.099   1.949  -0.581  0.00  0.00    -0.110 A 
ATOM     13  C   LIG    1        1.001   3.305  -1.232  0.00  0.00    +0.090 C 
ENDBRANCH   3   6
ENDBRANCH   1   2
BRANCH   1  14
ATOM     14  S   LIG    1       -5.062   0.940  -0.304  0.00  0.00    +0.030 S 
BRANCH  14  19
ATOM     15  C   LIG    1       -7.213   4.220  -0.461  0.00  0.00    +0.180 A 
ATOM     16  C   LIG    1       -8.500   3.776  -0.570  0.00  0.00    -0.270 A 
ATOM     17  C   LIG    1       -8.741   2.391  -0.599  0.00  0.00    +0.490 A 
ATOM     18  N   LIG    1       -7.689   1.547  -0.517  0.00  0.00    -0.640 NA
ATOM     19  C   LIG    1       -6.428   2.048  -0.410  0.00  0.00    +0.320 A 
ATOM     20  O   LIG    1       -9.878   1.959  -0.696  0.00  0.00    -0.620 OA
ATOM     21  N   LIG    1       -6.211   3.349  -0.378  0.00  0.00    -0.630 NA
BRANCH  15  22
ATOM     22  C   LIG    1       -6.929   5.699  -0.428  0.00  0.00    +0.080 C 
BRANCH  22  24
ATOM     23  C   LIG    1       -6.539   7.668   1.060  0.00  0.00    +0.000 C 
ATOM     24  C   LIG    1       -6.828   6.166   1.026  0.00  0.00    +0.010 C 
ENDBRANCH  22  24
ENDBRANCH  15  22
ENDBRANCH  14  19
ENDBRANCH   1  14
TORSDOF 6
