REMARK  Name = ZINCpk00000xI6lp.0
REMARK                            x       y       z     vdW  Elec       q    Type
REMARK                         _______ _______ _______ _____ _____    ______ ____
ROOT
ATOM      1  N   LIG    1       -0.027   8.586  -1.075  0.00  0.00    -0.550 N 
ATOM      2  C   LIG    1       -0.066   7.347  -1.593  0.00  0.00    +0.510 C 
ATOM      3  C   LIG    1        1.338   6.785  -1.510  0.00  0.00    +0.260 C 
ATOM      4  C   LIG    1        2.141   7.896  -0.874  0.00  0.00    -0.170 A 
ATOM      5  C   LIG    1        3.468   8.013  -0.529  0.00  0.00    +0.090 A 
ATOM      6  C   LIG    1        3.930   9.181   0.054  0.00  0.00    -0.010 A 
ATOM      7  C   LIG    1        3.055  10.226   0.287  0.00  0.00    +0.060 A 
ATOM      8  C   LIG    1        1.724  10.111  -0.057  0.00  0.00    -0.010 A 
ATOM      9  O   LIG    1       -1.041   6.784  -2.043  0.00  0.00    -0.480 OA
ATOM     10  C   LIG    1        1.252   8.939  -0.644  0.00  0.00    +0.150 A 
ENDROOT
BRANCH   3  11
ATOM     11  C   LIG    1        1.363   5.553  -0.643  0.00  0.00    -0.310 A 
ATOM     12  C   LIG    1        1.382   4.264  -1.082  0.00  0.00    +0.420 A 
ATOM     13  N   LIG    1        1.398   3.462   0.007  0.00  0.00    -0.400 N 
ATOM     14  N   LIG    1        1.398   4.280   1.144  0.00  0.00    -0.300 NA
ATOM     15  C   LIG    1        1.377   5.529   0.754  0.00  0.00    +0.140 A 
ATOM     16  C   LIG    1        1.369   6.735   1.658  0.00  0.00    +0.140 C 
BRANCH  12  17
ATOM     17  N   LIG    1        1.381   3.847  -2.410  0.00  0.00    -0.840 N 
ATOM     18  H   LIG    1        1.370   4.503  -3.124  0.00  0.00    +0.430 HD
ATOM     19  H   LIG    1        1.393   2.900  -2.621  0.00  0.00    +0.400 HD
ENDBRANCH  12  17
BRANCH  13  20
ATOM     20  C   LIG    1        1.417   1.997  -0.001  0.00  0.00    +0.350 C 
BRANCH  20  21
ATOM     21  C   LIG    1       -0.018   1.468   0.010  0.00  0.00    +0.190 C 
BRANCH  21  22
ATOM     22  C   LIG    1        0.002  -0.004   0.002  0.00  0.00    +0.200 C 
ATOM     23  N   LIG    1        0.018  -1.140  -0.004  0.00  0.00    -0.420 NA
ENDBRANCH  21  22
ENDBRANCH  20  21
ENDBRANCH  13  20
ENDBRANCH   3  11
BRANCH   3  24
ATOM     24  O   LIG    1        1.839   6.489  -2.814  0.00  0.00    -0.530 OA
ATOM     25  H   LIG    1        1.846   7.247  -3.415  0.00  0.00    +0.390 HD
ENDBRANCH   3  24
BRANCH   1  26
ATOM     26  C   LIG    1       -1.195   9.466  -0.974  0.00  0.00    +0.330 C 
BRANCH  26  28
ATOM     27  C   LIG    1       -2.418  10.288  -2.921  0.00  0.00    +0.040 C 
ATOM     28  C   LIG    1       -1.307  10.297  -2.226  0.00  0.00    -0.080 C 
ENDBRANCH  26  28
ENDBRANCH   1  26
TORSDOF 8
