REMARK  Name = ZINCpk00000y6vJW.0
REMARK                            x       y       z     vdW  Elec       q    Type
REMARK                         _______ _______ _______ _____ _____    ______ ____
ROOT
ATOM      1  C   LIG    1        3.317   3.345   2.175  0.00  0.00    +0.580 C 
ATOM      2  N   LIG    1        3.387   3.381   0.829  0.00  0.00    -0.610 N 
ATOM      3  C   LIG    1        3.406   4.601   0.002  0.00  0.00    +0.230 C 
ATOM      4  C   LIG    1        4.097   4.175  -1.318  0.00  0.00    +0.170 C 
ATOM      5  C   LIG    1        3.550   2.735  -1.505  0.00  0.00    +0.080 C 
ATOM      6  C   LIG    1        3.457   2.209  -0.057  0.00  0.00    +0.280 C 
ATOM      7  O   LIG    1        3.242   2.278   2.751  0.00  0.00    -0.510 OA
ENDROOT
BRANCH   6   8
ATOM      8  C   LIG    1        2.216   1.370   0.105  0.00  0.00    -0.070 A 
ATOM      9  C   LIG    1        0.987   1.979   0.274  0.00  0.00    +0.050 A 
ATOM     10  C   LIG    1       -0.153   1.211   0.423  0.00  0.00    +0.030 A 
ATOM     11  C   LIG    1       -0.064  -0.170   0.403  0.00  0.00    +0.070 A 
ATOM     12  C   LIG    1        1.169  -0.781   0.233  0.00  0.00    +0.070 A 
ATOM     13  F   LIG    1        1.258  -2.129   0.213  0.00  0.00    -0.130 F 
ATOM     14  F   LIG    1       -1.177  -0.921   0.547  0.00  0.00    -0.130 F 
ATOM     15  C   LIG    1        2.308  -0.010   0.085  0.00  0.00    +0.040 A 
ENDBRANCH   6   8
BRANCH   1  19
ATOM     16  C   LIG    1        3.325   6.970   4.312  0.00  0.00    +0.100 A 
ATOM     17  C   LIG    1        3.803   5.827   4.950  0.00  0.00    +0.050 A 
ATOM     18  C   LIG    1        3.804   4.623   4.266  0.00  0.00    +0.140 A 
ATOM     19  C   LIG    1        3.332   4.606   2.950  0.00  0.00    -0.160 A 
ATOM     20  C   LIG    1        2.869   5.795   2.379  0.00  0.00    +0.300 A 
ATOM     21  N   LIG    1        2.880   6.916   3.063  0.00  0.00    -0.460 NA
BRANCH  16  25
ATOM     22  N   LIG    1        2.854   9.374   4.430  0.00  0.00    -0.830 N 
ATOM     23  H   LIG    1        2.847  10.220   4.905  0.00  0.00    +0.410 HD
ATOM     24  H   LIG    1        2.530   9.328   3.517  0.00  0.00    +0.410 HD
ATOM     25  C   LIG    1        3.314   8.263   5.038  0.00  0.00    +0.570 C 
ATOM     26  O   LIG    1        3.720   8.321   6.182  0.00  0.00    -0.530 OA
ENDBRANCH  16  25
ENDBRANCH   1  19
BRANCH   4  27
ATOM     27  O   LIG    1        3.699   5.018  -2.400  0.00  0.00    -0.550 OA
ATOM     28  H   LIG    1        3.934   5.949  -2.280  0.00  0.00    +0.390 HD
ENDBRANCH   4  27
TORSDOF 4
