REMARK  Name = ZINCqH0000037ZXH.0
REMARK                            x       y       z     vdW  Elec       q    Type
REMARK                         _______ _______ _______ _____ _____    ______ ____
ROOT
ATOM      1  C   LIG    1       -6.123   1.822   0.231  0.00  0.00    +0.140 A 
ATOM      2  C   LIG    1       -6.142   3.211   0.252  0.00  0.00    +0.050 A 
ATOM      3  C   LIG    1       -7.348   3.884   0.262  0.00  0.00    +0.040 A 
ATOM      4  C   LIG    1       -8.540   3.174   0.261  0.00  0.00    +0.090 A 
ATOM      5  C   LIG    1       -8.522   1.786   0.246  0.00  0.00    +0.040 A 
ATOM      6  C   LIG    1       -7.318   1.111   0.231  0.00  0.00    -0.090 A 
ATOM      7  C   LIG    1       -7.298  -0.395   0.214  0.00  0.00    +0.110 C 
ENDROOT
BRANCH   1   9
ATOM      8  C   LIG    1       -3.848   1.658  -0.442  0.00  0.00    +0.490 C 
ATOM      9  N   LIG    1       -4.903   1.139   0.217  0.00  0.00    -0.640 N 
ATOM     10  H   LIG    1       -4.816   0.291   0.680  0.00  0.00    +0.420 HD
ATOM     11  O   LIG    1       -3.934   2.754  -0.958  0.00  0.00    -0.480 OA
BRANCH   8  12
ATOM     12  C   LIG    1       -2.575   0.886  -0.538  0.00  0.00    +0.400 C 
ATOM     13  O   LIG    1       -2.518  -0.246  -0.106  0.00  0.00    -0.420 OA
BRANCH  12  18
ATOM     14  C   LIG    1        2.060   3.273  -2.966  0.00  0.00    +0.100 C 
ATOM     15  C   LIG    1        0.846   2.648  -2.328  0.00  0.00    -0.040 A 
ATOM     16  C   LIG    1        0.946   1.404  -1.729  0.00  0.00    -0.010 A 
ATOM     17  C   LIG    1       -0.160   0.827  -1.142  0.00  0.00    +0.090 A 
ATOM     18  C   LIG    1       -1.387   1.499  -1.158  0.00  0.00    -0.180 A 
ATOM     19  C   LIG    1       -1.478   2.759  -1.760  0.00  0.00    +0.110 A 
ATOM     20  C   LIG    1       -0.363   3.323  -2.342  0.00  0.00    -0.010 A 
ENDBRANCH  12  18
ENDBRANCH   8  12
ENDBRANCH   1   9
BRANCH   4  21
ATOM     21  O   LIG    1       -9.726   3.838   0.276  0.00  0.00    -0.230 OA
BRANCH  21  22
ATOM     22  C   LIG    1      -10.423   3.869   1.437  0.00  0.00    +0.490 A 
ATOM     23  N   LIG    1       -9.886   3.343   2.526  0.00  0.00    -0.550 NA
ATOM     24  C   LIG    1      -10.537   3.361   3.678  0.00  0.00    +0.360 A 
ATOM     25  C   LIG    1      -11.800   3.930   3.731  0.00  0.00    -0.110 A 
ATOM     26  C   LIG    1      -12.333   4.467   2.570  0.00  0.00    +0.370 A 
ATOM     27  N   LIG    1      -11.626   4.420   1.453  0.00  0.00    -0.520 NA
ENDBRANCH  21  22
ENDBRANCH   4  21
TORSDOF 5
