REMARK  Name = ZINCrH000004j6Jc.0
REMARK                            x       y       z     vdW  Elec       q    Type
REMARK                         _______ _______ _______ _____ _____    ______ ____
ROOT
ATOM      1  N   LIG    1       -2.668   2.915   4.676  0.00  0.00    -0.560 N 
ATOM      2  C   LIG    1       -2.300   4.128   5.416  0.00  0.00    +0.310 C 
ATOM      3  C   LIG    1       -2.976   3.988   6.798  0.00  0.00    +0.150 C 
ATOM      4  C   LIG    1       -4.164   3.052   6.475  0.00  0.00    +0.100 C 
ATOM      5  C   LIG    1       -3.719   2.297   5.242  0.00  0.00    +0.520 C 
ATOM      6  O   LIG    1       -4.234   1.281   4.826  0.00  0.00    -0.500 OA
ENDROOT
BRANCH   1  10
ATOM      7  C   LIG    1       -0.716   1.571   1.250  0.00  0.00    -0.100 A 
ATOM      8  C   LIG    1       -1.711   0.800   1.824  0.00  0.00    +0.040 A 
ATOM      9  C   LIG    1       -2.356   1.241   2.963  0.00  0.00    +0.000 A 
ATOM     10  C   LIG    1       -2.013   2.464   3.525  0.00  0.00    +0.160 A 
ATOM     11  C   LIG    1       -1.017   3.237   2.942  0.00  0.00    -0.030 A 
ATOM     12  C   LIG    1       -0.372   2.789   1.806  0.00  0.00    +0.040 A 
BRANCH   7  14
ATOM     13  C   LIG    1        1.218   0.265   0.411  0.00  0.00    +0.020 C 
ATOM     14  C   LIG    1       -0.010   1.084   0.010  0.00  0.00    +0.060 C 
ENDBRANCH   7  14
ENDBRANCH   1  10
BRANCH   3  15
ATOM     15  C   LIG    1       -2.041   3.349   7.793  0.00  0.00    +0.180 A 
ATOM     16  N   LIG    1       -1.612   3.878   8.913  0.00  0.00    -0.450 NA
ATOM     17  C   LIG    1       -0.809   2.952   9.467  0.00  0.00    +0.170 A 
ATOM     18  N   LIG    1       -0.785   1.929   8.666  0.00  0.00    -0.350 NA
ATOM     19  O   LIG    1       -1.486   2.136   7.698  0.00  0.00    +0.100 OA
BRANCH  17  20
ATOM     20  C   LIG    1       -0.069   3.079  10.773  0.00  0.00    +0.360 C 
BRANCH  20  21
ATOM     21  O   LIG    1        1.219   3.653  10.537  0.00  0.00    -0.310 OA
BRANCH  21  22
ATOM     22  C   LIG    1        2.020   3.838  11.619  0.00  0.00    +0.130 A 
ATOM     23  C   LIG    1        1.574   3.479  12.883  0.00  0.00    -0.080 A 
ATOM     24  C   LIG    1        2.392   3.662  13.981  0.00  0.00    +0.050 A 
ATOM     25  C   LIG    1        3.650   4.213  13.822  0.00  0.00    -0.020 A 
ATOM     26  C   LIG    1        4.095   4.577  12.565  0.00  0.00    +0.050 A 
ATOM     27  C   LIG    1        3.283   4.390  11.463  0.00  0.00    -0.020 A 
ENDBRANCH  21  22
ENDBRANCH  20  21
ENDBRANCH  17  20
ENDBRANCH   3  15
TORSDOF 6
