REMARK  Name = ZINCrH000004osGN.0
REMARK                            x       y       z     vdW  Elec       q    Type
REMARK                         _______ _______ _______ _____ _____    ______ ____
ROOT
ATOM      1  C   LIG    1       -3.865   6.167  -0.442  0.00  0.00    +0.020 A 
ATOM      2  N   LIG    1       -2.587   5.853  -0.528  0.00  0.00    -0.240 NA
ATOM      3  N   LIG    1       -2.456   4.608  -0.816  0.00  0.00    -0.220 N 
ATOM      4  C   LIG    1       -3.679   4.024  -0.929  0.00  0.00    -0.020 A 
ATOM      5  C   LIG    1       -4.363   2.706  -1.216  0.00  0.00    +0.130 C 
ATOM      6  C   LIG    1       -5.811   2.887  -0.710  0.00  0.00    +0.060 C 
ATOM      7  C   LIG    1       -5.994   4.419  -0.802  0.00  0.00    +0.110 C 
ATOM      8  C   LIG    1       -4.599   4.985  -0.697  0.00  0.00    -0.150 A 
ENDROOT
BRANCH   3   9
ATOM      9  C   LIG    1       -1.231   3.947  -0.984  0.00  0.00    +0.120 A 
ATOM     10  C   LIG    1       -1.208   2.595  -1.294  0.00  0.00    +0.060 A 
ATOM     11  C   LIG    1        0.002   1.944  -1.453  0.00  0.00    -0.030 A 
ATOM     12  C   LIG    1        1.188   2.642  -1.314  0.00  0.00    +0.070 A 
ATOM     13  C   LIG    1        1.169   3.990  -1.011  0.00  0.00    +0.040 A 
ATOM     14 CL   LIG    1        0.031   0.250  -1.834  0.00  0.00    -0.040 Cl
ATOM     15  C   LIG    1       -0.037   4.646  -0.844  0.00  0.00    +0.120 A 
ATOM     16  F   LIG    1       -0.055   5.964  -0.547  0.00  0.00    -0.110 F 
ENDBRANCH   3   9
BRANCH   1  18
ATOM     17  N   LIG    1       -3.601   8.516   0.190  0.00  0.00    -0.590 N 
ATOM     18  C   LIG    1       -4.424   7.498  -0.132  0.00  0.00    +0.600 C 
ATOM     19  O   LIG    1       -5.626   7.675  -0.167  0.00  0.00    -0.530 OA
ATOM     20  C   LIG    1       -2.150   8.318   0.173  0.00  0.00    +0.310 C 
BRANCH  17  22
ATOM     21  C   LIG    1       -3.720  10.182   1.976  0.00  0.00    +0.040 C 
ATOM     22  C   LIG    1       -4.159   9.820   0.555  0.00  0.00    +0.250 C 
BRANCH  22  23
ATOM     23  C   LIG    1       -3.652  10.883  -0.421  0.00  0.00    +0.140 C 
ATOM     24  C   LIG    1       -4.329  12.235  -0.123  0.00  0.00    +0.010 C 
ATOM     25  C   LIG    1       -3.150  13.193   0.176  0.00  0.00    +0.010 C 
ATOM     26  C   LIG    1       -1.960  12.463  -0.499  0.00  0.00    +0.190 C 
ATOM     27  O   LIG    1       -2.236  11.068  -0.251  0.00  0.00    -0.370 OA
ENDBRANCH  22  23
ENDBRANCH  17  22
ENDBRANCH   1  18
TORSDOF 4
