REMARK  Name = ZINCtV000002An8g.0
REMARK                            x       y       z     vdW  Elec       q    Type
REMARK                         _______ _______ _______ _____ _____    ______ ____
ROOT
ATOM      1  C   LIG    1        2.056   6.326  -0.081  0.00  0.00    +0.040 C 
ENDROOT
BRANCH   1   4
ATOM      2  N   LIG    1        1.818   8.774   0.180  0.00  0.00    -0.660 N 
ATOM      3  H   LIG    1        1.575   8.820  -0.758  0.00  0.00    +0.420 HD
ATOM      4  C   LIG    1        2.154   7.591   0.732  0.00  0.00    +0.520 C 
ATOM      5  O   LIG    1        2.536   7.545   1.882  0.00  0.00    -0.520 OA
BRANCH   2  13
ATOM      6  C   LIG    1        0.881  10.940   0.724  0.00  0.00    +0.110 A 
ATOM      7  C   LIG    1        0.884  12.085   1.502  0.00  0.00    -0.040 A 
ATOM      8  C   LIG    1        1.824  12.238   2.507  0.00  0.00    -0.010 A 
ATOM      9  C   LIG    1        2.759  11.245   2.739  0.00  0.00    -0.090 A 
ATOM     10  C   LIG    1        2.758  10.097   1.970  0.00  0.00    +0.090 A 
ATOM     11  C   LIG    1        3.780  11.416   3.834  0.00  0.00    +0.100 C 
ATOM     12 CL   LIG    1        1.830  13.678   3.476  0.00  0.00    -0.060 Cl
ATOM     13  C   LIG    1        1.819   9.938   0.962  0.00  0.00    +0.120 A 
BRANCH   6  15
ATOM     14  C   LIG    1       -0.969  11.859  -0.453  0.00  0.00    +0.250 C 
ATOM     15  O   LIG    1       -0.038  10.791  -0.267  0.00  0.00    -0.310 OA
ENDBRANCH   6  15
ENDBRANCH   2  13
ENDBRANCH   1   4
BRANCH   1  16
ATOM     16  C   LIG    1        2.493   5.135   0.775  0.00  0.00    +0.320 C 
BRANCH  16  17
ATOM     17  N   LIG    1        2.398   3.905  -0.015  0.00  0.00    -0.580 N 
ATOM     18  C   LIG    1        1.202   3.178  -0.008  0.00  0.00    +0.190 A 
ATOM     19  C   LIG    1       -0.016   3.838   0.007  0.00  0.00    -0.020 A 
ATOM     20  C   LIG    1       -1.196   3.114   0.009  0.00  0.00    +0.050 A 
ATOM     21  C   LIG    1       -1.168   1.733  -0.009  0.00  0.00    +0.000 A 
ATOM     22  C   LIG    1        0.045   1.063  -0.016  0.00  0.00    +0.070 A 
ATOM     23  C   LIG    1        1.226   1.782  -0.018  0.00  0.00    -0.150 A 
ATOM     24  S   LIG    1        2.783   0.951  -0.031  0.00  0.00    +0.010 S 
ATOM     25  C   LIG    1        3.808   2.123  -0.863  0.00  0.00    -0.150 A 
ATOM     26  C   LIG    1        4.896   1.704  -1.605  0.00  0.00    +0.070 A 
ATOM     27  C   LIG    1        5.691   2.639  -2.248  0.00  0.00    +0.000 A 
ATOM     28  C   LIG    1        5.396   3.985  -2.148  0.00  0.00    +0.050 A 
ATOM     29  C   LIG    1        4.306   4.410  -1.407  0.00  0.00    -0.020 A 
ATOM     30  C   LIG    1        3.505   3.483  -0.760  0.00  0.00    +0.190 A 
ENDBRANCH  16  17
ENDBRANCH   1  16
TORSDOF 5
