REMARK  Name = ZINCrH000004t77o.0
REMARK                            x       y       z     vdW  Elec       q    Type
REMARK                         _______ _______ _______ _____ _____    ______ ____
ROOT
ATOM      1  N   LIG    1       -1.793   2.470   1.607  0.00  0.00    -1.060 N 
ATOM      2  H   LIG    1       -2.185   1.696   2.040  0.00  0.00    +0.430 HD
ENDROOT
BRANCH   1   6
ATOM      3  C   LIG    1        0.612   5.084   3.791  0.00  0.00    -0.130 A 
ATOM      4  C   LIG    1       -0.767   5.108   3.954  0.00  0.00    +0.100 A 
ATOM      5  C   LIG    1       -1.563   4.243   3.231  0.00  0.00    +0.020 A 
ATOM      6  C   LIG    1       -0.985   3.348   2.340  0.00  0.00    +0.160 A 
ATOM      7  C   LIG    1        0.394   3.320   2.180  0.00  0.00    +0.040 A 
ATOM      8  C   LIG    1        1.190   4.189   2.899  0.00  0.00    +0.100 A 
BRANCH   3   9
ATOM      9  S   LIG    1        1.628   6.189   4.713  0.00  0.00    +0.110 S 
BRANCH   9  15
ATOM     10  C   LIG    1        3.201   6.909   7.532  0.00  0.00    +0.350 C 
ATOM     11  N   LIG    1        2.561   5.614   7.288  0.00  0.00    -0.470 N 
ATOM     12  C   LIG    1        2.507   4.546   8.140  0.00  0.00    +0.380 A 
ATOM     13  N   LIG    1        1.852   3.598   7.533  0.00  0.00    -0.290 NA
ATOM     14  N   LIG    1        1.486   3.992   6.365  0.00  0.00    -0.280 NA
ATOM     15  C   LIG    1        1.891   5.224   6.163  0.00  0.00    +0.140 A 
ENDBRANCH   9  15
ENDBRANCH   3   9
ENDBRANCH   1   6
BRANCH   1  16
ATOM     16  S   LIG    1       -2.077   2.753   0.000  0.00  0.00    +2.690 S 
ATOM     17  O   LIG    1       -0.807   2.961  -0.602  0.00  0.00    -0.940 OA
ATOM     18  O   LIG    1       -2.986   1.748  -0.429  0.00  0.00    -0.940 OA
BRANCH  16  19
ATOM     19  C   LIG    1       -2.939   4.285  -0.115  0.00  0.00    -0.680 A 
ATOM     20  C   LIG    1       -4.314   4.317   0.029  0.00  0.00    +0.160 A 
ATOM     21  C   LIG    1       -4.991   5.519  -0.069  0.00  0.00    +0.010 A 
ATOM     22  C   LIG    1       -4.293   6.688  -0.308  0.00  0.00    +0.140 A 
ATOM     23  C   LIG    1       -2.919   6.655  -0.452  0.00  0.00    -0.200 A 
ATOM     24  C   LIG    1       -2.242   5.454  -0.355  0.00  0.00    +0.180 A 
BRANCH  23  25
ATOM     25  C   LIG    1       -2.158   7.930  -0.713  0.00  0.00    +0.510 C 
ATOM     26  F   LIG    1       -0.874   7.827  -0.168  0.00  0.00    -0.170 F 
ATOM     27  F   LIG    1       -2.832   9.005  -0.122  0.00  0.00    -0.170 F 
ATOM     28  F   LIG    1       -2.063   8.142  -2.093  0.00  0.00    -0.170 F 
ENDBRANCH  23  25
ENDBRANCH  16  19
ENDBRANCH   1  16
TORSDOF 6
