REMARK  Name = ZINCpk00000e9Tu6.1
REMARK                            x       y       z     vdW  Elec       q    Type
REMARK                         _______ _______ _______ _____ _____    ______ ____
ROOT
ATOM      1  N   LIG    1       -5.412   0.787   1.308  0.00  0.00    -0.730 N 
ATOM      2  H   LIG    1       -5.343   1.748   1.190  0.00  0.00    +0.400 HD
ATOM      3  C   LIG    1       -4.298   0.046   1.467  0.00  0.00    +0.520 C 
ATOM      4  O   LIG    1       -4.384  -1.155   1.614  0.00  0.00    -0.520 OA
ENDROOT
BRANCH   1   5
ATOM      5  C   LIG    1       -6.728   0.143   1.312  0.00  0.00    +0.260 C 
BRANCH   5   6
ATOM      6  C   LIG    1       -7.815   1.201   1.115  0.00  0.00    +0.060 C 
BRANCH   6  10
ATOM      7  C   LIG    1      -11.655  -0.681   1.128  0.00  0.00    -0.140 A 
ATOM      8  C   LIG    1      -11.095  -0.221   2.321  0.00  0.00    +0.080 A 
ATOM      9  C   LIG    1       -9.856   0.385   2.310  0.00  0.00    +0.010 A 
ATOM     10  C   LIG    1       -9.168   0.538   1.119  0.00  0.00    -0.060 A 
ATOM     11  C   LIG    1       -9.719   0.089  -0.068  0.00  0.00    +0.010 A 
ATOM     12  C   LIG    1      -10.955  -0.523  -0.070  0.00  0.00    +0.050 A 
BRANCH   7  16
ATOM     13  C   LIG    1      -14.836  -2.418  -0.017  0.00  0.00    +0.290 C 
ATOM     14  N   LIG    1      -13.520  -1.774  -0.022  0.00  0.00    -0.730 N 
ATOM     15  H   LIG    1      -13.036  -1.666  -0.855  0.00  0.00    +0.400 HD
ATOM     16  C   LIG    1      -12.983  -1.331   1.132  0.00  0.00    +0.560 C 
ATOM     17  O   LIG    1      -13.590  -1.466   2.177  0.00  0.00    -0.530 OA
ENDBRANCH   7  16
ENDBRANCH   6  10
ENDBRANCH   5   6
ENDBRANCH   1   5
BRANCH   3  18
ATOM     18  C   LIG    1       -2.945   0.709   1.462  0.00  0.00    +0.190 C 
BRANCH  18  19
ATOM     19  N   LIG    1       -1.965  -0.173   2.110  0.00  0.00    -0.830 NA
ATOM     20  H   LIG    1       -1.063   0.275   2.177  0.00  0.00    +0.350 HD
ATOM     21  H   LIG    1       -1.895  -1.055   1.623  0.00  0.00    +0.350 HD
ENDBRANCH  18  19
BRANCH  18  22
ATOM     22  C   LIG    1       -2.513   0.978   0.019  0.00  0.00    +0.070 C 
BRANCH  22  23
ATOM     23  C   LIG    1       -1.219   1.750   0.017  0.00  0.00    -0.060 A 
ATOM     24  C   LIG    1       -0.013   1.076   0.008  0.00  0.00    +0.000 A 
ATOM     25  C   LIG    1        1.176   1.783   0.000  0.00  0.00    +0.060 A 
ATOM     26  C   LIG    1        1.158   3.164   0.007  0.00  0.00    -0.010 A 
ATOM     27  C   LIG    1       -0.050   3.841   0.022  0.00  0.00    +0.100 A 
ATOM     28  F   LIG    1       -0.068   5.192   0.030  0.00  0.00    -0.140 F 
ATOM     29  C   LIG    1       -1.239   3.132   0.030  0.00  0.00    -0.010 A 
ENDBRANCH  22  23
ENDBRANCH  18  22
ENDBRANCH   3  18
TORSDOF 8
