REMARK  Name = ZINCrD000000CzZ5.0
REMARK                            x       y       z     vdW  Elec       q    Type
REMARK                         _______ _______ _______ _____ _____    ______ ____
ROOT
ATOM      1  O   LIG    1       -1.999   6.931   3.302  0.00  0.00    -0.510 OA
ATOM      2  C   LIG    1       -0.788   7.043   3.344  0.00  0.00    +0.600 C 
ATOM      3  N   LIG    1       -0.158   7.871   2.488  0.00  0.00    -0.600 N 
ATOM      4  C   LIG    1        1.310   7.916   2.434  0.00  0.00    +0.280 C 
ATOM      5  C   LIG    1        1.752   7.650   0.985  0.00  0.00    +0.260 C 
ATOM      6  N   LIG    1        0.983   8.528   0.092  0.00  0.00    -0.610 N 
ATOM      7  C   LIG    1       -0.485   8.487   0.150  0.00  0.00    +0.290 C 
ATOM      8  C   LIG    1        1.613   9.356  -0.764  0.00  0.00    +0.570 C 
ATOM      9  O   LIG    1        0.971  10.141  -1.435  0.00  0.00    -0.510 OA
ATOM     10  C   LIG    1       -0.926   8.750   1.595  0.00  0.00    +0.290 C 
ENDROOT
BRANCH   2  11
ATOM     11  C   LIG    1       -0.013   6.276   4.329  0.00  0.00    -0.040 A 
ATOM     12  C   LIG    1       -0.515   5.303   5.132  0.00  0.00    +0.070 A 
ATOM     13  C   LIG    1        0.607   4.825   5.940  0.00  0.00    -0.150 A 
ATOM     14  C   LIG    1        0.747   3.856   6.936  0.00  0.00    +0.070 A 
ATOM     15  C   LIG    1        1.970   3.642   7.506  0.00  0.00    -0.010 A 
ATOM     16  C   LIG    1        3.073   4.381   7.102  0.00  0.00    +0.060 A 
ATOM     17  C   LIG    1        2.956   5.343   6.121  0.00  0.00    +0.030 A 
ATOM     18  C   LIG    1        1.722   5.578   5.526  0.00  0.00    +0.060 A 
ATOM     19  O   LIG    1        1.307   6.428   4.567  0.00  0.00    -0.180 OA
ENDBRANCH   2  11
BRANCH   8  20
ATOM     20  C   LIG    1        3.084   9.311  -0.888  0.00  0.00    -0.140 A 
ATOM     21  C   LIG    1        3.741   8.084  -0.999  0.00  0.00    +0.050 A 
ATOM     22  C   LIG    1        5.117   8.048  -1.120  0.00  0.00    +0.090 A 
ATOM     23  C   LIG    1        5.846   9.227  -1.120  0.00  0.00    +0.050 A 
ATOM     24  C   LIG    1        5.203  10.445  -1.005  0.00  0.00    +0.030 A 
ATOM     25  F   LIG    1        5.753   6.862  -1.233  0.00  0.00    -0.130 F 
ATOM     26  C   LIG    1        3.826  10.496  -0.889  0.00  0.00    +0.140 A 
ATOM     27  F   LIG    1        3.200  11.687  -0.775  0.00  0.00    -0.120 F 
ENDBRANCH   8  20
TORSDOF 2
