REMARK  Name = ZINCqH0000050C63.0
REMARK                            x       y       z     vdW  Elec       q    Type
REMARK                         _______ _______ _______ _____ _____    ______ ____
ROOT
ATOM      1  S   LIG    1        0.539   4.509  -7.077  0.00  0.00    +0.090 S 
ENDROOT
BRANCH   1   6
ATOM      2  N   LIG    1        1.733   3.994  -9.558  0.00  0.00    -0.410 N 
ATOM      3  C   LIG    1        2.141   2.880 -10.243  0.00  0.00    +0.390 A 
ATOM      4  N   LIG    1        1.877   1.847  -9.495  0.00  0.00    -0.280 NA
ATOM      5  N   LIG    1        1.339   2.225  -8.391  0.00  0.00    -0.290 NA
ATOM      6  C   LIG    1        1.221   3.533  -8.376  0.00  0.00    +0.150 A 
BRANCH   2  13
ATOM      7  C   LIG    1        3.416   5.762  -8.094  0.00  0.00    +0.110 C 
ATOM      8  C   LIG    1        2.630   6.223  -9.294  0.00  0.00    -0.060 A 
ATOM      9  C   LIG    1        2.720   7.535  -9.716  0.00  0.00    +0.030 A 
ATOM     10  C   LIG    1        1.995   7.961 -10.814  0.00  0.00    +0.040 A 
ATOM     11  C   LIG    1        1.183   7.074 -11.495  0.00  0.00    +0.030 A 
ATOM     12  C   LIG    1        1.094   5.758 -11.082  0.00  0.00    +0.040 A 
ATOM     13  C   LIG    1        1.821   5.329  -9.980  0.00  0.00    +0.090 A 
ENDBRANCH   2  13
ENDBRANCH   1   6
BRANCH   1  14
ATOM     14  C   LIG    1        0.098   3.205  -5.902  0.00  0.00    +0.110 C 
BRANCH  14  15
ATOM     15  C   LIG    1       -0.521   3.823  -4.675  0.00  0.00    +0.540 C 
ATOM     16  N   LIG    1       -0.930   3.038  -3.659  0.00  0.00    -0.600 N 
ATOM     17  C   LIG    1       -0.780   1.578  -3.732  0.00  0.00    +0.270 C 
ATOM     18  C   LIG    1       -0.026   1.099  -2.487  0.00  0.00    +0.020 C 
ATOM     19  C   LIG    1       -0.752   1.592  -1.232  0.00  0.00    -0.010 C 
ATOM     20  C   LIG    1       -0.013   1.086   0.008  0.00  0.00    +0.010 C 
ATOM     21  C   LIG    1       -0.728   1.579   1.267  0.00  0.00    +0.000 C 
ATOM     22  C   LIG    1       -0.745   3.109   1.276  0.00  0.00    +0.000 C 
ATOM     23  C   LIG    1       -1.488   3.615   0.039  0.00  0.00    +0.030 C 
ATOM     24  C   LIG    1       -0.777   3.123  -1.224  0.00  0.00    -0.010 C 
ATOM     25  C   LIG    1       -1.536   3.625  -2.456  0.00  0.00    +0.290 C 
ATOM     26  O   LIG    1       -0.652   5.027  -4.603  0.00  0.00    -0.530 OA
ENDBRANCH  14  15
ENDBRANCH   1  14
TORSDOF 4
