REMARK  Name = ZINCtj00001yywlg.0
REMARK                            x       y       z     vdW  Elec       q    Type
REMARK                         _______ _______ _______ _____ _____    ______ ____
ROOT
ATOM      1  N   LIG    1        1.140   1.911   0.001  0.00  0.00    -0.540 N 
ATOM      2  C   LIG    1       -0.015   1.215   0.009  0.00  0.00    +0.600 A 
ATOM      3  C   LIG    1       -1.236   1.907   0.018  0.00  0.00    -0.170 A 
ATOM      4  C   LIG    1       -1.227   3.301   0.032  0.00  0.00    +0.380 A 
ATOM      5  N   LIG    1       -0.007   3.961   0.023  0.00  0.00    -0.510 N 
ATOM      6  C   LIG    1        0.034   5.425   0.031  0.00  0.00    +0.350 C 
ATOM      7  N   LIG    1       -2.493   3.710   0.046  0.00  0.00    -0.510 NA
ATOM      8  C   LIG    1       -3.305   2.663   0.048  0.00  0.00    +0.430 A 
ATOM      9  N   LIG    1       -4.626   2.298   0.058  0.00  0.00    -0.470 N 
ATOM     10  C   LIG    1       -4.684   0.918   0.050  0.00  0.00    +0.060 A 
ATOM     11  C   LIG    1       -5.941   0.086   0.058  0.00  0.00    +0.180 C 
ATOM     12  C   LIG    1       -3.439   0.450   0.036  0.00  0.00    +0.210 A 
ATOM     13  N   LIG    1       -2.570   1.527   0.034  0.00  0.00    -0.350 N 
ATOM     14  O   LIG    1        0.002  -0.004   0.002  0.00  0.00    -0.510 OA
ATOM     15  C   LIG    1        1.140   3.256   0.009  0.00  0.00    +0.710 A 
ATOM     16  O   LIG    1        2.201   3.849   0.002  0.00  0.00    -0.520 OA
ENDROOT
BRANCH   1  17
ATOM     17  C   LIG    1        2.416   1.192  -0.014  0.00  0.00    +0.380 C 
BRANCH  17  22
ATOM     18  C   LIG    1        4.043   0.272  -5.482  0.00  0.00    +0.090 C 
ATOM     19  C   LIG    1        3.619   0.512  -4.056  0.00  0.00    -0.070 A 
ATOM     20  C   LIG    1        4.012   1.665  -3.403  0.00  0.00    -0.010 A 
ATOM     21  C   LIG    1        3.623   1.885  -2.095  0.00  0.00    +0.040 A 
ATOM     22  C   LIG    1        2.841   0.952  -1.440  0.00  0.00    -0.130 A 
ATOM     23  C   LIG    1        2.451  -0.203  -2.092  0.00  0.00    +0.040 A 
ATOM     24  C   LIG    1        2.837  -0.421  -3.402  0.00  0.00    -0.010 A 
ENDBRANCH  17  22
ENDBRANCH   1  17
BRANCH   9  25
ATOM     25  C   LIG    1       -5.772   3.210   0.074  0.00  0.00    +0.350 C 
BRANCH  25  26
ATOM     26  C   LIG    1       -6.185   3.536  -1.362  0.00  0.00    +0.240 C 
BRANCH  26  27
ATOM     27  N   LIG    1       -7.334   4.451  -1.346  0.00  0.00    -0.380 N 
ATOM     28  C   LIG    1       -7.806   4.669  -2.720  0.00  0.00    +0.330 C 
ATOM     29  C   LIG    1       -6.931   5.734  -0.757  0.00  0.00    +0.320 C 
ATOM     30  H   LIG    1       -8.078   4.047  -0.796  0.00  0.00    +0.430 HD
ENDBRANCH  26  27
ENDBRANCH  25  26
ENDBRANCH   9  25
TORSDOF 5
