REMARK  Name = ZINCrD000000B2N4.0
REMARK                            x       y       z     vdW  Elec       q    Type
REMARK                         _______ _______ _______ _____ _____    ______ ____
ROOT
ATOM      1  C   LIG    1        1.248  -0.638   0.077  0.00  0.00    +0.220 A 
ATOM      2  C   LIG    1        2.409   0.118   0.160  0.00  0.00    -0.030 A 
ATOM      3  C   LIG    1        3.636  -0.510   0.240  0.00  0.00    +0.150 A 
ATOM      4  C   LIG    1        3.710  -1.891   0.226  0.00  0.00    -0.680 A 
ATOM      5  C   LIG    1        2.555  -2.647   0.137  0.00  0.00    +0.150 A 
ATOM      6  C   LIG    1        1.325  -2.024   0.063  0.00  0.00    +0.010 A 
ENDROOT
BRANCH   1   9
ATOM      7  O   LIG    1       -0.981  -1.651   1.122  0.00  0.00    -0.560 OA
ATOM      8  C   LIG    1       -1.073  -0.559   0.595  0.00  0.00    +0.700 C 
ATOM      9  N   LIG    1        0.002  -0.004   0.002  0.00  0.00    -0.690 N 
ATOM     10  H   LIG    1       -0.087   0.835  -0.476  0.00  0.00    +0.410 HD
ATOM     11  N   LIG    1       -2.250   0.098   0.607  0.00  0.00    -0.740 N 
ATOM     12  H   LIG    1       -2.323   0.970   0.190  0.00  0.00    +0.400 HD
BRANCH  11  13
ATOM     13  C   LIG    1       -3.419  -0.506   1.251  0.00  0.00    +0.290 C 
BRANCH  13  14
ATOM     14  C   LIG    1       -4.616   0.439   1.125  0.00  0.00    +0.030 C 
BRANCH  14  15
ATOM     15  C   LIG    1       -5.837  -0.192   1.798  0.00  0.00    +0.160 C 
ATOM     16  C   LIG    1       -7.047   0.774   1.729  0.00  0.00    +0.020 C 
ATOM     17  C   LIG    1       -8.229  -0.228   1.833  0.00  0.00    +0.000 C 
ATOM     18  C   LIG    1       -7.681  -1.462   1.085  0.00  0.00    +0.190 C 
ATOM     19  O   LIG    1       -6.252  -1.364   1.080  0.00  0.00    -0.380 OA
ENDBRANCH  14  15
ENDBRANCH  13  14
ENDBRANCH  11  13
ENDBRANCH   1   9
BRANCH   4  20
ATOM     20  S   LIG    1        5.278  -2.689   0.320  0.00  0.00    +2.590 S 
ATOM     21  O   LIG    1        5.035  -3.993   0.831  0.00  0.00    -0.930 OA
ATOM     22  O   LIG    1        6.162  -1.764   0.938  0.00  0.00    -0.930 OA
BRANCH  20  23
ATOM     23  C   LIG    1        5.855  -2.902  -1.331  0.00  0.00    -0.670 A 
ATOM     24  C   LIG    1        5.546  -4.056  -2.027  0.00  0.00    +0.160 A 
ATOM     25  C   LIG    1        5.993  -4.221  -3.325  0.00  0.00    -0.020 A 
ATOM     26  C   LIG    1        6.761  -3.237  -3.922  0.00  0.00    +0.160 A 
ATOM     27  C   LIG    1        7.075  -2.084  -3.222  0.00  0.00    -0.020 A 
ATOM     28  F   LIG    1        7.205  -3.400  -5.188  0.00  0.00    -0.130 F 
ATOM     29  C   LIG    1        6.622  -1.918  -1.927  0.00  0.00    +0.160 A 
ENDBRANCH  20  23
ENDBRANCH   4  20
TORSDOF 6
