REMARK  Name = ZINCc70000002mkF.0
REMARK                            x       y       z     vdW  Elec       q    Type
REMARK                         _______ _______ _______ _____ _____    ______ ____
ROOT
ATOM      1  C   UNK    1       -2.138   1.160   1.194  0.00  0.00    +0.240 C 
ENDROOT
BRANCH   1   2
ATOM      2  O   UNK    1       -1.993  -0.233   1.476  0.00  0.00    -0.530 OA
ATOM      3  H   UNK    1       -1.471  -0.715   0.820  0.00  0.00    +0.360 HD
ENDBRANCH   1   2
BRANCH   1   4
ATOM      4  C   UNK    1       -2.835   1.338  -0.157  0.00  0.00    -0.020 C 
BRANCH   4   6
ATOM      5  C   UNK    1       -4.987   1.517   1.099  0.00  0.00    +0.040 C 
ATOM      6  C   UNK    1       -4.272   0.822  -0.061  0.00  0.00    -0.060 C 
ATOM      7  C   UNK    1       -4.256  -0.689   0.182  0.00  0.00    +0.040 C 
ATOM      8  C   UNK    1       -5.009   1.121  -1.367  0.00  0.00    +0.020 C 
ENDBRANCH   4   6
ENDBRANCH   1   4
BRANCH   1   9
ATOM      9  C   UNK    1       -0.757   1.817   1.146  0.00  0.00    +0.050 C 
BRANCH   9  10
ATOM     10  N   UNK    1        0.006   1.269   0.016  0.00  0.00    -0.610 N 
ATOM     11  H   UNK    1       -0.485   1.456  -0.845  0.00  0.00    +0.410 HD
ATOM     12  H   UNK    1        0.917   1.702  -0.016  0.00  0.00    +0.440 HD
ATOM     13  H   UNK    1        0.112   0.272   0.133  0.00  0.00    +0.430 HD
ENDBRANCH   9  10
BRANCH   9  14
ATOM     14  C   UNK    1       -0.022   1.537   2.431  0.00  0.00    +0.500 C 
ATOM     15  O   UNK    1        0.938   0.785   2.434  0.00  0.00    -0.670 OA
ATOM     16  O   UNK    1       -0.388   2.062   3.469  0.00  0.00    -0.630 OA
ENDBRANCH   9  14
ENDBRANCH   1   9
TORSDOF 6
