REMARK  Name = ZINCpk00000KfLJD.0
REMARK                            x       y       z     vdW  Elec       q    Type
REMARK                         _______ _______ _______ _____ _____    ______ ____
ROOT
ATOM      1  C   LIG    1       -0.060   5.679  -0.178  0.00  0.00    +0.340 C 
ATOM      2  C   LIG    1       -1.568   6.005  -0.228  0.00  0.00    +0.060 C 
ATOM      3  C   LIG    1       -2.214   4.755   0.425  0.00  0.00    +0.040 C 
ATOM      4  C   LIG    1       -1.283   3.624  -0.079  0.00  0.00    +0.260 C 
ATOM      5  N   LIG    1        0.066   4.217  -0.077  0.00  0.00    -0.610 N 
ATOM      6  C   LIG    1        1.224   3.534   0.010  0.00  0.00    +0.600 C 
ATOM      7  O   LIG    1        2.279   4.133   0.096  0.00  0.00    -0.520 OA
ENDROOT
BRANCH   6   8
ATOM      8  C   LIG    1        1.213   2.059  -0.000  0.00  0.00    -0.240 A 
ATOM      9  C   LIG    1        0.991   1.373  -1.177  0.00  0.00    +0.370 A 
ATOM     10  N   LIG    1        0.980   0.028  -1.191  0.00  0.00    -0.480 N 
ATOM     11  C   LIG    1        1.183  -0.680  -0.065  0.00  0.00    +0.510 A 
ATOM     12  C   LIG    1        1.413  -0.024   1.159  0.00  0.00    -0.080 A 
ATOM     13  O   LIG    1        1.167  -1.899  -0.104  0.00  0.00    -0.540 OA
ATOM     14  C   LIG    1        1.429   1.336   1.198  0.00  0.00    +0.160 A 
BRANCH  10  15
ATOM     15  C   LIG    1        0.742  -0.678  -2.453  0.00  0.00    +0.310 C 
BRANCH  15  16
ATOM     16  C   LIG    1       -0.759  -0.915  -2.630  0.00  0.00    +0.170 C 
BRANCH  16  17
ATOM     17  O   LIG    1       -1.426   0.341  -2.768  0.00  0.00    -0.390 OA
ATOM     18  C   LIG    1       -2.841   0.231  -2.941  0.00  0.00    +0.200 C 
ENDBRANCH  16  17
ENDBRANCH  15  16
ENDBRANCH  10  15
ENDBRANCH   6   8
BRANCH   1  21
ATOM     19  C   LIG    1        1.774   7.280  -2.808  0.00  0.00    +0.180 A 
ATOM     20  N   LIG    1        1.424   7.230  -1.545  0.00  0.00    -0.470 NA
ATOM     21  C   LIG    1        0.609   6.165  -1.437  0.00  0.00    +0.170 A 
ATOM     22  N   LIG    1        0.501   5.637  -2.619  0.00  0.00    -0.370 NA
ATOM     23  O   LIG    1        1.162   6.262  -3.421  0.00  0.00    +0.080 OA
BRANCH  19  25
ATOM     24  C   LIG    1        4.130   7.791  -3.387  0.00  0.00    +0.060 C 
ATOM     25  C   LIG    1        2.687   8.295  -3.446  0.00  0.00    +0.180 C 
ENDBRANCH  19  25
ENDBRANCH   1  21
TORSDOF 6
