REMARK  Name = ZINCpk00000y6yWH.0
REMARK                            x       y       z     vdW  Elec       q    Type
REMARK                         _______ _______ _______ _____ _____    ______ ____
ROOT
ATOM      1  CA  LIG    1        2.430   1.183  -0.009  0.00  0.00    +0.260 C 
ENDROOT
BRANCH   1   8
ATOM      2  C   LIG    1        7.831  -0.806   2.810  0.00  0.00    +0.090 C 
ATOM      3  C   LIG    1        6.483  -0.201   2.413  0.00  0.00    -0.100 C 
ATOM      4  C   LIG    1        6.335   1.288   2.688  0.00  0.00    +0.070 C 
ATOM      5  C   LIG    1        5.824   2.054   1.478  0.00  0.00    +0.290 C 
ATOM      6  N   LIG    1        4.767   1.333   0.790  0.00  0.00    -0.600 N 
ATOM      7  C   LIG    1        4.946  -0.022   0.291  0.00  0.00    +0.320 C 
ATOM      8  C   LIG    1        3.579   1.942   0.603  0.00  0.00    +0.530 C 
ATOM      9  O   LIG    1        3.436   3.102   0.926  0.00  0.00    -0.520 OA
ATOM     10  C   LIG    1        5.243  -1.065   2.696  0.00  0.00    +0.190 C 
ATOM     11  F   LIG    1        5.448  -2.317   3.286  0.00  0.00    -0.160 F 
ATOM     12  F   LIG    1        4.066  -0.407   3.068  0.00  0.00    -0.150 F 
ATOM     13  C   LIG    1        5.737  -0.870   1.270  0.00  0.00    -0.010 C 
ENDBRANCH   1   8
BRANCH   1  14
ATOM     14  N   LIG    1        1.171   1.859   0.312  0.00  0.00    -0.700 N 
ATOM     15  H   LIG    1        1.168   2.809   0.510  0.00  0.00    +0.410 HD
ATOM     16  C   LIG    1        0.018   1.162   0.333  0.00  0.00    +0.570 C 
ATOM     17  O   LIG    1        0.023  -0.028   0.086  0.00  0.00    -0.540 OA
BRANCH  16  18
ATOM     18  C   LIG    1       -1.252   1.846   0.651  0.00  0.00    -0.150 A 
ATOM     19  C   LIG    1       -1.260   3.212   0.942  0.00  0.00    +0.090 A 
ATOM     20  C   LIG    1       -2.449   3.846   1.232  0.00  0.00    -0.020 A 
ATOM     21  C   LIG    1       -3.634   3.127   1.248  0.00  0.00    +0.130 A 
ATOM     22  C   LIG    1       -3.632   1.770   0.966  0.00  0.00    -0.010 A 
ATOM     23  F   LIG    1       -4.796   3.752   1.539  0.00  0.00    -0.130 F 
ATOM     24  C   LIG    1       -2.450   1.127   0.668  0.00  0.00    +0.120 A 
ENDBRANCH  16  18
ENDBRANCH   1  14
BRANCH   1  25
ATOM     25  C   LIG    1        2.607   1.127  -1.528  0.00  0.00    +0.200 C 
BRANCH  25  26
ATOM     26  O   LIG    1        2.740   2.454  -2.041  0.00  0.00    -0.560 OA
ATOM     27  H   LIG    1        2.855   2.496  -3.000  0.00  0.00    +0.380 HD
ENDBRANCH  25  26
ENDBRANCH   1  25
TORSDOF 5
