REMARK  Name = ZINCkj000005jN6q.1
REMARK                            x       y       z     vdW  Elec       q    Type
REMARK                         _______ _______ _______ _____ _____    ______ ____
ROOT
ATOM      1  C   LIG    1        5.316   1.042   0.272  0.00  0.00    +0.130 C 
ATOM      2  C   LIG    1        4.384   0.394   1.299  0.00  0.00    +0.250 C 
ATOM      3  N   LIG    1        3.102   1.112   1.316  0.00  0.00    -0.380 N 
ATOM      4  C   LIG    1        3.334   2.517   1.680  0.00  0.00    +0.230 C 
ATOM      5  C   LIG    1        4.268   3.160   0.652  0.00  0.00    +0.270 C 
ATOM      6  H   LIG    1        2.487   0.686   1.992  0.00  0.00    +0.420 HD
ATOM      7  O   LIG    1        5.492   2.423   0.600  0.00  0.00    -0.340 OA
ENDROOT
BRANCH   1   9
ATOM      8  C   LIG    1        7.605   0.986  -0.727  0.00  0.00    +0.030 C 
ATOM      9  C   LIG    1        6.673   0.334   0.295  0.00  0.00    +0.240 C 
BRANCH   9  10
ATOM     10  O   LIG    1        6.496  -1.046  -0.032  0.00  0.00    -0.550 OA
ATOM     11  H   LIG    1        6.111  -1.196  -0.906  0.00  0.00    +0.380 HD
ENDBRANCH   9  10
ENDBRANCH   1   9
BRANCH   3  12
ATOM     12  C   LIG    1        2.487   1.046  -0.017  0.00  0.00    +0.310 C 
BRANCH  12  13
ATOM     13  C   LIG    1        1.109   1.655   0.036  0.00  0.00    -0.160 A 
ATOM     14  C   LIG    1        0.911   2.948  -0.405  0.00  0.00    +0.040 A 
ATOM     15  C   LIG    1       -0.352   3.508  -0.351  0.00  0.00    +0.030 A 
ATOM     16  C   LIG    1       -1.412   2.769   0.135  0.00  0.00    +0.060 A 
ATOM     17  C   LIG    1       -1.214   1.471   0.580  0.00  0.00    -0.110 A 
ATOM     18  C   LIG    1       -2.394   0.701   1.114  0.00  0.00    +0.290 C 
ATOM     19  O   LIG    1       -2.091  -0.693   1.167  0.00  0.00    -0.360 OA
ATOM     20  C   LIG    1       -0.868  -0.977   1.856  0.00  0.00    +0.220 C 
ATOM     21  C   LIG    1        0.298  -0.499   0.989  0.00  0.00    +0.040 C 
ATOM     22  C   LIG    1        0.046   0.913   0.527  0.00  0.00    -0.050 A 
ENDBRANCH  12  13
ENDBRANCH   3  12
TORSDOF 4
