REMARK  Name = ZINCkj000005jN6q.2
REMARK                            x       y       z     vdW  Elec       q    Type
REMARK                         _______ _______ _______ _____ _____    ______ ____
ROOT
ATOM      1  C   LIG    1       -0.753   1.593  -1.232  0.00  0.00    +0.130 C 
ATOM      2  C   LIG    1       -0.037   1.099  -2.491  0.00  0.00    +0.250 C 
ATOM      3  N   LIG    1       -0.782   1.539  -3.679  0.00  0.00    -0.390 N 
ATOM      4  C   LIG    1       -2.141   0.982  -3.637  0.00  0.00    +0.230 C 
ATOM      5  C   LIG    1       -2.853   1.476  -2.375  0.00  0.00    +0.270 C 
ATOM      6  H   LIG    1       -0.832   2.546  -3.692  0.00  0.00    +0.420 HD
ATOM      7  O   LIG    1       -2.093   1.094  -1.225  0.00  0.00    -0.350 OA
ENDROOT
BRANCH   1   9
ATOM      8  C   LIG    1       -0.729   1.579   1.267  0.00  0.00    +0.030 C 
ATOM      9  C   LIG    1       -0.013   1.086   0.008  0.00  0.00    +0.240 C 
BRANCH   9  10
ATOM     10  O   LIG    1        1.328   1.580  -0.002  0.00  0.00    -0.550 OA
ATOM     11  H   LIG    1        1.391   2.545   0.002  0.00  0.00    +0.380 HD
ENDBRANCH   9  10
ENDBRANCH   1   9
BRANCH   3  12
ATOM     12  C   LIG    1       -0.097   1.067  -4.890  0.00  0.00    +0.320 C 
BRANCH  12  13
ATOM     13  C   LIG    1       -0.791   1.620  -6.108  0.00  0.00    -0.160 A 
ATOM     14  C   LIG    1       -1.674   0.828  -6.815  0.00  0.00    +0.040 A 
ATOM     15  C   LIG    1       -2.310   1.335  -7.933  0.00  0.00    +0.030 A 
ATOM     16  C   LIG    1       -2.059   2.630  -8.339  0.00  0.00    +0.060 A 
ATOM     17  C   LIG    1       -1.173   3.426  -7.630  0.00  0.00    -0.110 A 
ATOM     18  C   LIG    1       -0.921   4.832  -8.109  0.00  0.00    +0.290 C 
ATOM     19  O   LIG    1       -0.297   5.600  -7.081  0.00  0.00    -0.370 OA
ATOM     20  C   LIG    1        0.866   4.968  -6.534  0.00  0.00    +0.240 C 
ATOM     21  C   LIG    1        0.420   3.760  -5.710  0.00  0.00    +0.040 C 
ATOM     22  C   LIG    1       -0.545   2.923  -6.510  0.00  0.00    -0.060 A 
ENDBRANCH  12  13
ENDBRANCH   3  12
TORSDOF 4
