REMARK  Name = ZINCqH0000037WWm.0
REMARK                            x       y       z     vdW  Elec       q    Type
REMARK                         _______ _______ _______ _____ _____    ______ ____
ROOT
ATOM      1  C   LIG    1        2.211   5.304   0.002  0.00  0.00    +0.480 C 
ATOM      2  N   LIG    1        2.277   3.958  -0.005  0.00  0.00    -0.660 N 
ATOM      3  H   LIG    1        3.140   3.514  -0.019  0.00  0.00    +0.420 HD
ATOM      4  O   LIG    1        1.133   5.858   0.020  0.00  0.00    -0.430 OA
ENDROOT
BRANCH   2   5
ATOM      5  C   LIG    1        1.110   3.205   0.008  0.00  0.00    +0.410 A 
ATOM      6  N   LIG    1       -0.062   3.810   0.027  0.00  0.00    -0.480 NA
ATOM      7  C   LIG    1       -1.211   3.144   0.036  0.00  0.00    +0.200 A 
ATOM      8  C   LIG    1       -1.219   1.766   0.017  0.00  0.00    -0.160 A 
ATOM      9  C   LIG    1       -2.489   0.958   0.017  0.00  0.00    +0.090 C 
ATOM     10  C   LIG    1       -3.672   1.814   0.464  0.00  0.00    +0.020 C 
ATOM     11  C   LIG    1       -3.674   3.105  -0.364  0.00  0.00    +0.030 C 
ATOM     12  C   LIG    1       -0.013   1.076   0.008  0.00  0.00    +0.150 A 
ATOM     13  C   LIG    1       -2.481   3.956   0.068  0.00  0.00    +0.110 C 
ATOM     14  C   LIG    1        1.181   1.802   0.001  0.00  0.00    -0.120 A 
BRANCH  14  15
ATOM     15  C   LIG    1        2.446   1.133  -0.014  0.00  0.00    +0.250 C 
ATOM     16  N   LIG    1        3.450   0.601  -0.026  0.00  0.00    -0.400 NA
ENDBRANCH  14  15
ENDBRANCH   2   5
BRANCH   1  17
ATOM     17  C   LIG    1        3.478   6.120  -0.012  0.00  0.00    +0.330 C 
BRANCH  17  27
ATOM     18  C   LIG    1        3.055   7.826  -2.535  0.00  0.00    +0.130 C 
ATOM     19  C   LIG    1        2.949   8.317  -1.114  0.00  0.00    +0.090 A 
ATOM     20  C   LIG    1        2.651   9.575  -0.754  0.00  0.00    -0.050 A 
ATOM     21  C   LIG    1        2.660   9.615   0.711  0.00  0.00    -0.100 A 
ATOM     22  C   LIG    1        2.435  10.618   1.655  0.00  0.00    +0.050 A 
ATOM     23  C   LIG    1        2.521  10.326   2.988  0.00  0.00    -0.030 A 
ATOM     24  C   LIG    1        2.831   9.041   3.409  0.00  0.00    +0.020 A 
ATOM     25  C   LIG    1        3.057   8.036   2.494  0.00  0.00    -0.020 A 
ATOM     26  C   LIG    1        2.974   8.310   1.133  0.00  0.00    +0.110 A 
ATOM     27  N   LIG    1        3.140   7.546  -0.000  0.00  0.00    -0.470 N 
ENDBRANCH  17  27
ENDBRANCH   1  17
TORSDOF 4
