REMARK  Name = ZINCqH0000007WwM.0
REMARK                            x       y       z     vdW  Elec       q    Type
REMARK                         _______ _______ _______ _____ _____    ______ ____
ROOT
ATOM      1  C   LIG    1       -1.567   3.591   2.720  0.00  0.00    -0.230 A 
ATOM      2  C   LIG    1       -2.885   3.945   2.863  0.00  0.00    +0.020 A 
ATOM      3  O   LIG    1       -2.989   4.554   4.047  0.00  0.00    +0.110 OA
ATOM      4  N   LIG    1       -1.943   4.623   4.643  0.00  0.00    -0.320 NA
ATOM      5  C   LIG    1       -3.997   3.696   1.877  0.00  0.00    +0.210 C 
ATOM      6  C   LIG    1       -0.959   4.074   3.977  0.00  0.00    +0.080 A 
ENDROOT
BRANCH   6   7
ATOM      7  C   LIG    1        0.460   3.965   4.393  0.00  0.00    -0.060 A 
ATOM      8  C   LIG    1        1.478   4.351   3.519  0.00  0.00    +0.140 A 
ATOM      9  C   LIG    1        2.799   4.251   3.915  0.00  0.00    +0.000 A 
ATOM     10  C   LIG    1        3.112   3.759   5.169  0.00  0.00    +0.090 A 
ATOM     11  C   LIG    1        2.108   3.369   6.037  0.00  0.00    +0.030 A 
ATOM     12  F   LIG    1        1.173   4.827   2.292  0.00  0.00    -0.110 F 
ATOM     13  C   LIG    1        0.784   3.469   5.656  0.00  0.00    +0.020 A 
ATOM     14 CL   LIG    1       -0.474   2.979   6.747  0.00  0.00    -0.040 Cl
ENDBRANCH   6   7
BRANCH   1  17
ATOM     15  N   LIG    1       -0.846   1.549   1.589  0.00  0.00    -0.710 N 
ATOM     16  H   LIG    1       -1.219   1.039   2.325  0.00  0.00    +0.400 HD
ATOM     17  C   LIG    1       -0.920   2.894   1.595  0.00  0.00    +0.600 C 
ATOM     18  O   LIG    1       -0.453   3.534   0.672  0.00  0.00    -0.510 OA
BRANCH  15  19
ATOM     19  C   LIG    1       -0.203   0.856   0.469  0.00  0.00    +0.350 C 
BRANCH  19  25
ATOM     20  C   LIG    1       -1.410  -1.349   0.432  0.00  0.00    +0.340 A 
ATOM     21  N   LIG    1       -1.457  -2.655   0.637  0.00  0.00    -0.540 NA
ATOM     22  C   LIG    1       -0.418  -3.321   1.103  0.00  0.00    +0.310 A 
ATOM     23  C   LIG    1        0.765  -2.672   1.395  0.00  0.00    -0.070 A 
ATOM     24  C   LIG    1        0.857  -1.302   1.188  0.00  0.00    +0.120 A 
ATOM     25  C   LIG    1       -0.252  -0.632   0.704  0.00  0.00    -0.190 A 
BRANCH  20  27
ATOM     26  C   LIG    1       -3.662  -1.498  -0.308  0.00  0.00    +0.260 C 
ATOM     27  O   LIG    1       -2.503  -0.705  -0.048  0.00  0.00    -0.300 OA
ENDBRANCH  20  27
ENDBRANCH  19  25
ENDBRANCH  15  19
ENDBRANCH   1  17
TORSDOF 5
