REMARK  Name = ZINCvU0000000I9a.0
REMARK                            x       y       z     vdW  Elec       q    Type
REMARK                         _______ _______ _______ _____ _____    ______ ____
ROOT
ATOM      1  C   LIG    1        3.375  -0.325  -1.739  0.00  0.00    +0.280 C 
ENDROOT
BRANCH   1   2
ATOM      2  N   LIG    1        4.264  -0.076  -0.596  0.00  0.00    -0.530 NA
ATOM      3  C   LIG    1        3.881  -0.900   0.557  0.00  0.00    +0.180 C 
ATOM      4  C   LIG    1        4.732  -0.511   1.768  0.00  0.00    +0.030 C 
ATOM      5  C   LIG    1        6.212  -0.721   1.435  0.00  0.00    +0.030 C 
ATOM      6  C   LIG    1        6.572   0.111   0.202  0.00  0.00    +0.100 C 
ATOM      7  C   LIG    1        5.668  -0.296  -0.964  0.00  0.00    +0.190 C 
BRANCH   6   8
ATOM      8  C   LIG    1        8.012  -0.136  -0.168  0.00  0.00    +0.100 A 
ATOM      9  N   LIG    1        8.911   0.774  -0.209  0.00  0.00    -0.460 NA
ATOM     10  C   LIG    1       10.160   0.409  -0.557  0.00  0.00    +0.080 A 
ATOM     11  C   LIG    1       11.325   1.193  -0.680  0.00  0.00    +0.080 A 
ATOM     12  C   LIG    1       12.505   0.621  -1.049  0.00  0.00    +0.030 A 
ATOM     13  C   LIG    1       12.583  -0.739  -1.310  0.00  0.00    +0.040 A 
ATOM     14  C   LIG    1       11.461  -1.530  -1.198  0.00  0.00    +0.060 A 
ATOM     15  C   LIG    1       10.246  -0.962  -0.822  0.00  0.00    -0.190 A 
ATOM     16  S   LIG    1        8.650  -1.665  -0.578  0.00  0.00    +0.100 S 
ENDBRANCH   6   8
ENDBRANCH   1   2
BRANCH   1  19
ATOM     17  C   LIG    1       -0.052  -0.079  -0.526  0.00  0.00    +0.270 A 
ATOM     18  N   LIG    1        1.113  -0.599  -0.754  0.00  0.00    -0.470 NA
ATOM     19  C   LIG    1        1.984   0.148  -1.406  0.00  0.00    +0.100 A 
ATOM     20  C   LIG    1        1.532   1.358  -1.745  0.00  0.00    -0.080 A 
ATOM     21  S   LIG    1       -0.126   1.503  -1.169  0.00  0.00    +0.140 S 
BRANCH  17  24
ATOM     22  C   LIG    1       -2.087  -2.705   1.228  0.00  0.00    +0.110 C 
ATOM     23  C   LIG    1       -0.927  -1.973   0.604  0.00  0.00    +0.510 C 
ATOM     24  N   LIG    1       -1.092  -0.717   0.144  0.00  0.00    -0.480 N 
ATOM     25  O   LIG    1        0.154  -2.514   0.516  0.00  0.00    -0.470 OA
BRANCH  24  26
ATOM     26  C   LIG    1       -2.309  -0.053   0.341  0.00  0.00    +0.100 A 
ATOM     27  C   LIG    1       -2.510   0.707   1.486  0.00  0.00    +0.030 A 
ATOM     28  C   LIG    1       -3.710   1.366   1.675  0.00  0.00    +0.020 A 
ATOM     29  C   LIG    1       -4.714   1.259   0.730  0.00  0.00    +0.030 A 
ATOM     30  C   LIG    1       -4.519   0.498  -0.408  0.00  0.00    +0.020 A 
ATOM     31  C   LIG    1       -3.320  -0.158  -0.605  0.00  0.00    +0.030 A 
ENDBRANCH  24  26
ENDBRANCH  17  24
ENDBRANCH   1  19
TORSDOF 5
