REMARK  Name = ZINCpe000000Z50B.0
REMARK                            x       y       z     vdW  Elec       q    Type
REMARK                         _______ _______ _______ _____ _____    ______ ____
ROOT
ATOM      1  C   LIG    1       -1.439  -2.739  -2.124  0.00  0.00    +0.020 C 
ATOM      2  C   LIG    1       -1.437  -4.268  -2.061  0.00  0.00    +0.080 C 
ATOM      3  C   LIG    1       -0.037  -4.780  -1.890  0.00  0.00    -0.040 C 
ATOM      4  C   LIG    1        0.959  -4.052  -1.498  0.00  0.00    -0.040 C 
ATOM      5  C   LIG    1        0.855  -2.591  -1.170  0.00  0.00    +0.080 C 
ATOM      6  C   LIG    1       -0.609  -2.204  -0.950  0.00  0.00    +0.010 C 
ENDROOT
BRANCH   6   7
ATOM      7  C   LIG    1       -0.732  -0.703  -0.886  0.00  0.00    +0.540 C 
ATOM      8  N   LIG    1       -0.523  -0.059   0.279  0.00  0.00    -0.610 N 
ATOM      9  C   LIG    1       -0.281  -0.804   1.524  0.00  0.00    +0.240 C 
ATOM     10  C   LIG    1       -1.229  -0.267   2.602  0.00  0.00    +0.220 C 
ATOM     11  O   LIG    1       -1.099   1.155   2.677  0.00  0.00    -0.380 OA
ATOM     12  C   LIG    1       -1.467   1.841   1.479  0.00  0.00    +0.220 C 
ATOM     13  C   LIG    1       -0.531   1.411   0.343  0.00  0.00    +0.250 C 
ATOM     14  O   LIG    1       -1.018  -0.075  -1.884  0.00  0.00    -0.540 OA
ENDBRANCH   6   7
BRANCH   1  16
ATOM     15  O   LIG    1       -3.169  -1.502  -1.101  0.00  0.00    -0.530 OA
ATOM     16  C   LIG    1       -2.852  -2.226  -2.021  0.00  0.00    +0.530 C 
ATOM     17  N   LIG    1       -3.764  -2.571  -2.952  0.00  0.00    -0.730 N 
ATOM     18  H   LIG    1       -3.510  -3.150  -3.688  0.00  0.00    +0.400 HD
BRANCH  17  19
ATOM     19  C   LIG    1       -5.137  -2.072  -2.853  0.00  0.00    +0.260 C 
BRANCH  19  20
ATOM     20  C   LIG    1       -5.961  -2.608  -4.025  0.00  0.00    +0.030 C 
BRANCH  20  21
ATOM     21  C   LIG    1       -7.396  -2.087  -3.921  0.00  0.00    +0.330 C 
BRANCH  21  22
ATOM     22  N   LIG    1       -8.185  -2.601  -5.043  0.00  0.00    -0.370 N 
ATOM     23  C   LIG    1       -9.341  -3.291  -4.951  0.00  0.00    +0.220 A 
ATOM     24  C   LIG    1       -9.749  -3.581  -6.208  0.00  0.00    -0.120 A 
ATOM     25  C   LIG    1       -8.811  -3.050  -7.099  0.00  0.00    +0.230 A 
ATOM     26  N   LIG    1       -7.876  -2.457  -6.402  0.00  0.00    -0.300 NA
ENDBRANCH  21  22
ENDBRANCH  20  21
ENDBRANCH  19  20
ENDBRANCH  17  19
ENDBRANCH   1  16
TORSDOF 6
