REMARK  Name = ZINCpe000000YQue.0
REMARK                            x       y       z     vdW  Elec       q    Type
REMARK                         _______ _______ _______ _____ _____    ______ ____
ROOT
ATOM      1  C   LIG    1        2.534   4.179  -0.001  0.00  0.00    +0.510 C 
ATOM      2  N   LIG    1        2.762   5.507   0.005  0.00  0.00    -0.660 N 
ATOM      3  H   LIG    1        2.018   6.127  -0.057  0.00  0.00    +0.430 HD
ATOM      4  O   LIG    1        3.466   3.404  -0.025  0.00  0.00    -0.510 OA
ENDROOT
BRANCH   2   5
ATOM      5  C   LIG    1        4.065   5.989   0.101  0.00  0.00    +0.210 A 
ATOM      6  C   LIG    1        5.059   5.215   0.694  0.00  0.00    +0.050 A 
ATOM      7  C   LIG    1        6.351   5.690   0.790  0.00  0.00    +0.080 A 
ATOM      8  C   LIG    1        6.683   6.942   0.298  0.00  0.00    +0.070 A 
ATOM      9  C   LIG    1        5.709   7.729  -0.296  0.00  0.00    -0.090 A 
ATOM     10  C   LIG    1        6.018   9.072  -0.834  0.00  0.00    +0.570 A 
ATOM     11  O   LIG    1        7.148   9.515  -0.764  0.00  0.00    -0.500 OA
ATOM     12  N   LIG    1        5.037   9.800  -1.403  0.00  0.00    -0.510 N 
ATOM     13  H   LIG    1        5.247  10.680  -1.753  0.00  0.00    +0.430 HD
ATOM     14  N   LIG    1        3.729   9.325  -1.502  0.00  0.00    -0.500 N 
ATOM     15  H   LIG    1        3.056   9.886  -1.919  0.00  0.00    +0.430 HD
ATOM     16  C   LIG    1        3.372   8.113  -1.035  0.00  0.00    +0.570 A 
ATOM     17  O   LIG    1        2.222   7.732  -1.139  0.00  0.00    -0.520 OA
ATOM     18  C   LIG    1        4.387   7.250  -0.403  0.00  0.00    -0.150 A 
ENDBRANCH   2   5
BRANCH   1  19
ATOM     19  C   LIG    1        1.120   3.657   0.021  0.00  0.00    +0.320 C 
BRANCH  19  22
ATOM     20  O   LIG    1       -1.076   2.094   0.043  0.00  0.00    -0.530 OA
ATOM     21  C   LIG    1       -0.018   1.502   0.024  0.00  0.00    +0.520 C 
ATOM     22  N   LIG    1        1.140   2.192   0.009  0.00  0.00    -0.720 N 
ATOM     23  H   LIG    1        1.986   1.719  -0.011  0.00  0.00    +0.410 HD
BRANCH  21  24
ATOM     24  C   LIG    1        0.003  -0.004   0.012  0.00  0.00    +0.070 C 
BRANCH  24  25
ATOM     25  C   LIG    1       -1.432  -0.534   0.034  0.00  0.00    +0.000 C 
ATOM     26  C   LIG    1       -2.099  -0.199   1.384  0.00  0.00    +0.020 C 
ATOM     27  C   LIG    1       -2.974  -1.439   1.694  0.00  0.00    +0.000 C 
ATOM     28  C   LIG    1       -2.095  -2.612   1.194  0.00  0.00    -0.010 C 
ATOM     29  C   LIG    1       -1.430  -2.068  -0.087  0.00  0.00    +0.020 C 
ENDBRANCH  24  25
ENDBRANCH  21  24
ENDBRANCH  19  22
ENDBRANCH   1  19
TORSDOF 5
