REMARK  Name = ZINCvU00000009kf.0
REMARK                            x       y       z     vdW  Elec       q    Type
REMARK                         _______ _______ _______ _____ _____    ______ ____
ROOT
ATOM      1  C   LIG    1        2.429   3.349   0.345  0.00  0.00    +0.140 C 
ATOM      2  C   LIG    1        1.000   2.914   0.140  0.00  0.00    +0.210 C 
ATOM      3  C   LIG    1        0.058   3.839  -0.137  0.00  0.00    -0.290 C 
ATOM      4  C   LIG    1       -1.365   3.359  -0.337  0.00  0.00    +0.340 C 
ATOM      5  N   LIG    1       -1.603   1.910  -0.218  0.00  0.00    -0.710 N 
ATOM      6  H   LIG    1       -2.493   1.542  -0.340  0.00  0.00    +0.430 HD
ATOM      7  C   LIG    1       -0.558   1.109   0.068  0.00  0.00    +0.710 C 
ATOM      8  O   LIG    1       -0.745  -0.087   0.173  0.00  0.00    -0.560 OA
ATOM      9  N   LIG    1        0.681   1.589   0.236  0.00  0.00    -0.650 N 
ATOM     10  H   LIG    1        1.392   0.960   0.436  0.00  0.00    +0.430 HD
ENDROOT
BRANCH   4  11
ATOM     11  C   LIG    1       -1.811   3.787  -1.712  0.00  0.00    -0.110 A 
ATOM     12  C   LIG    1       -2.688   4.819  -1.841  0.00  0.00    +0.050 A 
ATOM     13  C   LIG    1       -3.102   5.224  -3.121  0.00  0.00    -0.050 A 
ATOM     14  C   LIG    1       -4.002   6.289  -3.294  0.00  0.00    +0.030 A 
ATOM     15  C   LIG    1       -4.385   6.649  -4.550  0.00  0.00    +0.010 A 
ATOM     16  C   LIG    1       -3.897   5.978  -5.669  0.00  0.00    +0.010 A 
ATOM     17  C   LIG    1       -3.023   4.942  -5.540  0.00  0.00    +0.020 A 
ATOM     18  C   LIG    1       -2.605   4.541  -4.260  0.00  0.00    -0.040 A 
ATOM     19  C   LIG    1       -1.705   3.476  -4.087  0.00  0.00    +0.030 A 
ATOM     20  C   LIG    1       -1.323   3.115  -2.831  0.00  0.00    +0.020 A 
ENDBRANCH   4  11
BRANCH   3  21
ATOM     21  C   LIG    1        0.388   5.213  -0.237  0.00  0.00    +0.610 C 
ATOM     22  N   LIG    1        1.045   5.671  -1.322  0.00  0.00    -0.660 N 
ATOM     23  H   LIG    1        1.220   5.077  -2.069  0.00  0.00    +0.410 HD
ATOM     24  O   LIG    1        0.078   5.980   0.655  0.00  0.00    -0.500 OA
BRANCH  22  25
ATOM     25  C   LIG    1        1.475   7.000  -1.369  0.00  0.00    +0.200 A 
ATOM     26  C   LIG    1        1.604   7.732  -0.196  0.00  0.00    +0.030 A 
ATOM     27  C   LIG    1        2.035   9.044  -0.245  0.00  0.00    +0.080 A 
ATOM     28  C   LIG    1        2.326   9.632  -1.463  0.00  0.00    +0.000 A 
ATOM     29  C   LIG    1        2.193   8.907  -2.633  0.00  0.00    +0.090 A 
ATOM     30  C   LIG    1        1.769   7.594  -2.590  0.00  0.00    -0.220 A 
BRANCH  30  31
ATOM     31  C   LIG    1        1.625   6.805  -3.866  0.00  0.00    +0.510 C 
ATOM     32  F   LIG    1        0.325   6.299  -3.958  0.00  0.00    -0.170 F 
ATOM     33  F   LIG    1        2.539   5.746  -3.865  0.00  0.00    -0.180 F 
ATOM     34  F   LIG    1        1.879   7.639  -4.961  0.00  0.00    -0.170 F 
ENDBRANCH  30  31
ENDBRANCH  22  25
ENDBRANCH   3  21
TORSDOF 4
