REMARK  Name = ZINCqH0000004yQq.0
REMARK                            x       y       z     vdW  Elec       q    Type
REMARK                         _______ _______ _______ _____ _____    ______ ____
ROOT
ATOM      1  C   LIG    1        3.560   2.246  -0.019  0.00  0.00    +0.210 A 
ATOM      2  C   LIG    1        2.398   1.498  -0.007  0.00  0.00    -0.150 A 
ATOM      3  C   LIG    1        1.173   2.170   0.003  0.00  0.00    +0.450 A 
ATOM      4  N   LIG    1        1.166   3.498   0.010  0.00  0.00    -0.570 NA
ATOM      5  C   LIG    1        2.303   4.179   0.003  0.00  0.00    +0.400 A 
ATOM      6  N   LIG    1        3.479   3.568  -0.012  0.00  0.00    -0.540 NA
ENDROOT
BRANCH   5   7
ATOM      7  C   LIG    1        2.258   5.662   0.011  0.00  0.00    +0.000 A 
ATOM      8  C   LIG    1        3.435   6.416   0.009  0.00  0.00    +0.030 A 
ATOM      9  C   LIG    1        3.348   7.793   0.013  0.00  0.00    +0.250 A 
ATOM     10  N   LIG    1        2.176   8.398   0.028  0.00  0.00    -0.470 NA
ATOM     11  C   LIG    1        1.042   7.724   0.034  0.00  0.00    +0.250 A 
ATOM     12  C   LIG    1        1.038   6.343   0.026  0.00  0.00    +0.020 A 
ENDBRANCH   5   7
BRANCH   1  14
ATOM     13  C   LIG    1        5.722   2.079  -1.222  0.00  0.00    +0.040 C 
ATOM     14  C   LIG    1        4.904   1.565  -0.035  0.00  0.00    +0.100 C 
ENDBRANCH   1  14
BRANCH   3  15
ATOM     15  N   LIG    1       -0.018   1.461   0.010  0.00  0.00    -0.710 N 
ATOM     16  H   LIG    1       -0.864   1.934   0.017  0.00  0.00    +0.400 HD
BRANCH  15  17
ATOM     17  C   LIG    1        0.002  -0.004   0.002  0.00  0.00    +0.220 C 
ATOM     18  C   LIG    1        0.148  -0.520   1.435  0.00  0.00    +0.030 C 
BRANCH  17  19
ATOM     19  C   LIG    1       -1.304  -0.528  -0.598  0.00  0.00    +0.280 C 
BRANCH  19  20
ATOM     20  C   LIG    1       -1.448  -0.020  -2.009  0.00  0.00    -0.130 A 
ATOM     21  C   LIG    1       -1.905   1.264  -2.238  0.00  0.00    +0.040 A 
ATOM     22  C   LIG    1       -2.033   1.733  -3.531  0.00  0.00    -0.010 A 
ATOM     23  C   LIG    1       -1.712   0.912  -4.599  0.00  0.00    +0.100 A 
ATOM     24  C   LIG    1       -1.260  -0.376  -4.370  0.00  0.00    -0.010 A 
ATOM     25  F   LIG    1       -1.841   1.368  -5.865  0.00  0.00    -0.140 F 
ATOM     26  C   LIG    1       -1.128  -0.841  -3.075  0.00  0.00    +0.060 A 
ENDBRANCH  19  20
BRANCH  19  27
ATOM     27  O   LIG    1       -2.406  -0.071   0.188  0.00  0.00    -0.540 OA
ATOM     28  H   LIG    1       -2.482   0.891   0.237  0.00  0.00    +0.370 HD
ENDBRANCH  19  27
ENDBRANCH  17  19
ENDBRANCH  15  17
ENDBRANCH   3  15
TORSDOF 7
