REMARK  Name = ZINCtj0000001zho.0
REMARK                            x       y       z     vdW  Elec       q    Type
REMARK                         _______ _______ _______ _____ _____    ______ ____
ROOT
ATOM      1  N   LIG    1        4.210  -1.124  -4.583  0.00  0.00    -0.750 N 
ATOM      2  H   LIG    1        3.433  -0.928  -5.131  0.00  0.00    +0.400 HD
ATOM      3  C   LIG    1        4.654  -0.214  -3.694  0.00  0.00    +0.710 C 
ATOM      4  N   LIG    1        3.959   0.927  -3.491  0.00  0.00    -0.620 N 
ATOM      5  C   LIG    1        4.360   1.876  -2.401  0.00  0.00    +0.290 C 
ATOM      6  C   LIG    1        4.890   3.088  -3.036  0.00  0.00    +0.190 C 
ATOM      7  O   LIG    1        3.996   3.752  -3.902  0.00  0.00    -0.330 OA
ATOM      8  C   LIG    1        4.025   3.290  -5.205  0.00  0.00    +0.120 C 
ATOM      9  C   LIG    1        2.924   2.225  -5.454  0.00  0.00    +0.000 C 
ATOM     10  C   LIG    1        3.724   4.443  -6.187  0.00  0.00    +0.010 C 
ATOM     11  C   LIG    1        4.853   5.471  -6.116  0.00  0.00    +0.220 C 
ATOM     12  O   LIG    1        6.085   4.842  -6.476  0.00  0.00    -0.380 OA
ATOM     13  C   LIG    1        6.455   3.772  -5.604  0.00  0.00    +0.200 C 
ATOM     14  C   LIG    1        5.371   2.692  -5.622  0.00  0.00    -0.020 C 
ATOM     15  C   LIG    1        2.809   1.227  -4.284  0.00  0.00    +0.250 C 
ATOM     16  O   LIG    1        5.680  -0.419  -3.075  0.00  0.00    -0.580 OA
ENDROOT
BRANCH   1  17
ATOM     17  C   LIG    1        4.899  -2.409  -4.723  0.00  0.00    +0.340 C 
BRANCH  17  21
ATOM     18  C   LIG    1        2.914  -4.768  -7.617  0.00  0.00    +0.300 A 
ATOM     19  C   LIG    1        3.940  -3.929  -8.039  0.00  0.00    -0.040 A 
ATOM     20  C   LIG    1        4.600  -3.151  -7.104  0.00  0.00    +0.120 A 
ATOM     21  C   LIG    1        4.209  -3.238  -5.775  0.00  0.00    -0.170 A 
ATOM     22  C   LIG    1        3.185  -4.097  -5.426  0.00  0.00    +0.320 A 
ATOM     23  N   LIG    1        2.570  -4.823  -6.339  0.00  0.00    -0.520 NA
BRANCH  18  28
ATOM     24  C   LIG    1       -0.725  -7.279 -10.985  0.00  0.00    +0.330 C 
ATOM     25  N   LIG    1       -0.063  -6.421  -9.993  0.00  0.00    -0.390 N 
ATOM     26  C   LIG    1        0.527  -7.257  -8.939  0.00  0.00    +0.270 C 
ATOM     27  C   LIG    1        1.200  -6.363  -7.896  0.00  0.00    +0.250 C 
ATOM     28  N   LIG    1        2.242  -5.556  -8.545  0.00  0.00    -0.480 N 
ATOM     29  C   LIG    1        1.671  -4.731  -9.620  0.00  0.00    +0.230 C 
ATOM     30  C   LIG    1        0.993  -5.639 -10.649  0.00  0.00    +0.280 C 
ATOM     31  H   LIG    1       -0.741  -5.794  -9.585  0.00  0.00    +0.420 HD
ENDBRANCH  18  28
ENDBRANCH  17  21
ENDBRANCH   1  17
TORSDOF 3
