REMARK  Name = ZINCtj00000nx9uG.0
REMARK                            x       y       z     vdW  Elec       q    Type
REMARK                         _______ _______ _______ _____ _____    ______ ____
ROOT
ATOM      1  N   LIG    1        1.398   3.459   0.007  0.00  0.00    -0.380 N 
ATOM      2  C   LIG    1        2.771   3.970  -0.115  0.00  0.00    +0.290 C 
ATOM      3  C   LIG    1        2.715   5.466  -0.428  0.00  0.00    +0.180 C 
ATOM      4  C   LIG    1        1.824   6.160   0.572  0.00  0.00    +0.040 A 
ATOM      5  N   LIG    1        1.894   7.461   0.689  0.00  0.00    -0.180 NA
ATOM      6  N   LIG    1        1.165   8.122   1.512  0.00  0.00    -0.320 N 
ATOM      7  C   LIG    1        0.273   7.511   2.315  0.00  0.00    +0.480 A 
ATOM      8  C   LIG    1        0.140   6.107   2.251  0.00  0.00    +0.050 A 
ATOM      9  O   LIG    1       -0.410   8.163   3.089  0.00  0.00    -0.500 OA
ATOM     10  C   LIG    1        0.930   5.431   1.365  0.00  0.00    -0.090 A 
ATOM     11  C   LIG    1        0.819   3.935   1.268  0.00  0.00    +0.340 C 
ATOM     12  H   LIG    1        0.842   3.793  -0.766  0.00  0.00    +0.430 HD
ENDROOT
BRANCH   1  13
ATOM     13  C   LIG    1        1.418   1.990  -0.001  0.00  0.00    +0.240 C 
BRANCH  13  14
ATOM     14  C   LIG    1       -0.018   1.461   0.010  0.00  0.00    +0.300 C 
BRANCH  14  16
ATOM     15  C   LIG    1       -0.000  -0.730  -1.271  0.00  0.00    +0.290 C 
ATOM     16  N   LIG    1        0.002  -0.004   0.002  0.00  0.00    -0.630 N 
BRANCH  16  17
ATOM     17  C   LIG    1        0.023  -0.709   1.208  0.00  0.00    +0.190 A 
ATOM     18  C   LIG    1        0.031  -0.022   2.415  0.00  0.00    -0.090 A 
ATOM     19  C   LIG    1        0.047  -0.722   3.606  0.00  0.00    +0.060 A 
ATOM     20  C   LIG    1        0.066  -2.105   3.596  0.00  0.00    -0.030 A 
ATOM     21  C   LIG    1        0.063  -2.792   2.396  0.00  0.00    +0.060 A 
ATOM     22  C   LIG    1        0.042  -2.098   1.202  0.00  0.00    -0.050 A 
ENDBRANCH  16  17
ENDBRANCH  14  16
ENDBRANCH  13  14
ENDBRANCH   1  13
BRANCH   6  23
ATOM     23  C   LIG    1        1.307   9.578   1.580  0.00  0.00    +0.370 C 
BRANCH  23  24
ATOM     24  C   LIG    1        2.355   9.934   2.603  0.00  0.00    +0.520 C 
ATOM     25  N   LIG    1        2.656  11.226   2.839  0.00  0.00    -0.610 N 
ATOM     26  C   LIG    1        2.047  12.384   2.167  0.00  0.00    +0.250 C 
ATOM     27  C   LIG    1        2.718  13.650   2.739  0.00  0.00    +0.040 C 
ATOM     28  C   LIG    1        4.068  13.111   3.282  0.00  0.00    +0.040 C 
ATOM     29  C   LIG    1        3.655  11.713   3.807  0.00  0.00    +0.250 C 
ATOM     30  O   LIG    1        2.927   9.056   3.215  0.00  0.00    -0.530 OA
ENDBRANCH  23  24
ENDBRANCH   6  23
TORSDOF 6
