REMARK  Name = ZINCtj00000nx9uG.1
REMARK                            x       y       z     vdW  Elec       q    Type
REMARK                         _______ _______ _______ _____ _____    ______ ____
ROOT
ATOM      1  N   LIG    1       -0.076   4.061   0.444  0.00  0.00    -0.380 N 
ATOM      2  C   LIG    1       -1.147   3.480  -0.378  0.00  0.00    +0.290 C 
ATOM      3  C   LIG    1       -1.343   2.018   0.032  0.00  0.00    +0.180 C 
ATOM      4  C   LIG    1       -0.016   1.304   0.009  0.00  0.00    +0.040 A 
ATOM      5  N   LIG    1        0.002  -0.004   0.002  0.00  0.00    -0.180 NA
ATOM      6  N   LIG    1        1.091  -0.681  -0.009  0.00  0.00    -0.320 N 
ATOM      7  C   LIG    1        2.297  -0.082  -0.012  0.00  0.00    +0.480 A 
ATOM      8  C   LIG    1        2.364   1.327  -0.008  0.00  0.00    +0.050 A 
ATOM      9  O   LIG    1        3.319  -0.750  -0.020  0.00  0.00    -0.500 OA
ATOM     10  C   LIG    1        1.187   2.022   0.002  0.00  0.00    -0.090 A 
ATOM     11  C   LIG    1        1.215   3.525   0.001  0.00  0.00    +0.340 C 
ATOM     12  H   LIG    1       -0.226   3.822   1.413  0.00  0.00    +0.430 HD
ENDROOT
BRANCH   1  13
ATOM     13  C   LIG    1       -0.078   5.523   0.293  0.00  0.00    +0.240 C 
BRANCH  13  14
ATOM     14  C   LIG    1        0.959   6.135   1.236  0.00  0.00    +0.300 C 
BRANCH  14  16
ATOM     15  C   LIG    1        0.074   8.414   1.917  0.00  0.00    +0.300 C 
ATOM     16  N   LIG    1        0.956   7.592   1.084  0.00  0.00    -0.630 N 
BRANCH  16  17
ATOM     17  C   LIG    1        1.795   8.199   0.146  0.00  0.00    +0.190 A 
ATOM     18  C   LIG    1        2.636   7.422  -0.640  0.00  0.00    -0.090 A 
ATOM     19  C   LIG    1        3.460   8.024  -1.571  0.00  0.00    +0.060 A 
ATOM     20  C   LIG    1        3.456   9.400  -1.712  0.00  0.00    -0.030 A 
ATOM     21  C   LIG    1        2.624  10.176  -0.927  0.00  0.00    +0.060 A 
ATOM     22  C   LIG    1        1.793   9.580   0.001  0.00  0.00    -0.050 A 
ENDBRANCH  16  17
ENDBRANCH  14  16
ENDBRANCH  13  14
ENDBRANCH   1  13
BRANCH   6  23
ATOM     23  C   LIG    1        1.021  -2.145  -0.018  0.00  0.00    +0.370 C 
BRANCH  23  24
ATOM     24  C   LIG    1        1.005  -2.656   1.399  0.00  0.00    +0.520 C 
ATOM     25  N   LIG    1        0.944  -3.981   1.637  0.00  0.00    -0.610 N 
ATOM     26  C   LIG    1        0.881  -5.034   0.613  0.00  0.00    +0.250 C 
ATOM     27  C   LIG    1        0.798  -6.387   1.350  0.00  0.00    +0.040 C 
ATOM     28  C   LIG    1        0.241  -5.988   2.742  0.00  0.00    +0.040 C 
ATOM     29  C   LIG    1        0.922  -4.615   2.968  0.00  0.00    +0.250 C 
ATOM     30  O   LIG    1        1.048  -1.875   2.326  0.00  0.00    -0.530 OA
ENDBRANCH  23  24
ENDBRANCH   6  23
TORSDOF 6
