REMARK  Name = ZINCvU00000007vH.0
REMARK                            x       y       z     vdW  Elec       q    Type
REMARK                         _______ _______ _______ _____ _____    ______ ____
ROOT
ATOM      1  C   LIG    1        1.344  -1.915   0.387  0.00  0.00    +0.150 A 
ATOM      2  N   LIG    1        0.192  -2.510   0.601  0.00  0.00    -0.290 NA
ATOM      3  N   LIG    1        0.296  -3.769   0.368  0.00  0.00    -0.260 NA
ATOM      4  C   LIG    1        1.522  -4.058   0.000  0.00  0.00    +0.230 A 
ATOM      5  N   LIG    1        2.232  -2.879   0.001  0.00  0.00    -0.460 N 
ENDROOT
BRANCH   4   6
ATOM      6  C   LIG    1        2.043  -5.396  -0.349  0.00  0.00    -0.010 A 
ATOM      7  C   LIG    1        1.161  -6.430  -0.666  0.00  0.00    +0.090 A 
ATOM      8  C   LIG    1        1.653  -7.676  -0.997  0.00  0.00    +0.050 A 
ATOM      9  C   LIG    1        3.019  -7.905  -1.002  0.00  0.00    -0.020 A 
ATOM     10  C   LIG    1        3.899  -6.884  -0.683  0.00  0.00    +0.040 A 
ATOM     11 CL   LIG    1        3.631  -9.477  -1.411  0.00  0.00    -0.060 Cl
ATOM     12  C   LIG    1        3.419  -5.633  -0.357  0.00  0.00    +0.030 A 
ENDBRANCH   4   6
BRANCH   1  13
ATOM     13  S   LIG    1        1.683  -0.196   0.571  0.00  0.00    +0.100 S 
BRANCH  13  14
ATOM     14  C   LIG    1        0.053   0.392   1.093  0.00  0.00    +0.110 C 
BRANCH  14  16
ATOM     15  O   LIG    1        1.140   2.486   1.140  0.00  0.00    -0.500 OA
ATOM     16  C   LIG    1        0.103   1.881   1.316  0.00  0.00    +0.540 C 
ATOM     17  N   LIG    1       -1.005   2.542   1.706  0.00  0.00    -0.660 N 
ATOM     18  H   LIG    1       -1.850   2.073   1.777  0.00  0.00    +0.420 HD
BRANCH  17  19
ATOM     19  C   LIG    1       -0.935   3.909   2.011  0.00  0.00    +0.100 A 
ATOM     20  C   LIG    1       -0.061   4.732   1.315  0.00  0.00    +0.090 A 
ATOM     21  C   LIG    1        0.003   6.080   1.613  0.00  0.00    +0.010 A 
ATOM     22  C   LIG    1       -0.796   6.608   2.613  0.00  0.00    +0.120 A 
ATOM     23  C   LIG    1       -1.665   5.788   3.314  0.00  0.00    -0.010 A 
ATOM     24  F   LIG    1       -0.728   7.925   2.905  0.00  0.00    -0.130 F 
ATOM     25  C   LIG    1       -1.737   4.440   3.015  0.00  0.00    +0.110 A 
ATOM     26  F   LIG    1       -2.584   3.640   3.698  0.00  0.00    -0.130 F 
ENDBRANCH  17  19
ENDBRANCH  14  16
ENDBRANCH  13  14
ENDBRANCH   1  13
BRANCH   5  27
ATOM     27  C   LIG    1        3.644  -2.696  -0.341  0.00  0.00    +0.440 C 
BRANCH  27  28
ATOM     28  C   LIG    1        4.469  -2.684   0.920  0.00  0.00    -0.060 A 
ATOM     29  C   LIG    1        5.134  -3.734   1.435  0.00  0.00    -0.020 A 
ATOM     30  C   LIG    1        5.767  -3.280   2.614  0.00  0.00    -0.060 A 
ATOM     31  C   LIG    1        5.451  -1.979   2.750  0.00  0.00    +0.200 A 
ATOM     32  O   LIG    1        4.670  -1.623   1.718  0.00  0.00    -0.160 OA
ENDBRANCH  27  28
ENDBRANCH   5  27
TORSDOF 7
