REMARK  Name = ZINCAx0000000dDg.1
REMARK                            x       y       z     vdW  Elec       q    Type
REMARK                         _______ _______ _______ _____ _____    ______ ____
ROOT
ATOM      1  C   LIG    1        3.112  -5.946  -6.671  0.00  0.00    +0.150 A 
ATOM      2  C   LIG    1        2.582  -4.663  -6.621  0.00  0.00    +0.010 A 
ATOM      3  C   LIG    1        3.324  -3.631  -6.081  0.00  0.00    +0.030 A 
ATOM      4  C   LIG    1        4.594  -3.874  -5.591  0.00  0.00    -0.090 A 
ATOM      5  C   LIG    1        5.127  -5.149  -5.644  0.00  0.00    +0.050 A 
ATOM      6  C   LIG    1        4.388  -6.186  -6.178  0.00  0.00    -0.030 A 
ENDROOT
BRANCH   1   8
ATOM      7  C   LIG    1        1.516  -6.755  -8.238  0.00  0.00    +0.590 C 
ATOM      8  N   LIG    1        2.363  -6.993  -7.217  0.00  0.00    -0.670 N 
ATOM      9  H   LIG    1        2.453  -7.891  -6.861  0.00  0.00    +0.410 HD
ATOM     10  O   LIG    1        1.473  -5.652  -8.748  0.00  0.00    -0.510 OA
BRANCH   7  12
ATOM     11  C   LIG    1       -0.268  -7.753  -9.750  0.00  0.00    +0.080 A 
ATOM     12  C   LIG    1        0.642  -7.832  -8.736  0.00  0.00    -0.220 A 
ATOM     13  C   LIG    1        0.563  -9.214  -8.241  0.00  0.00    -0.030 A 
ATOM     14  C   LIG    1       -0.365  -9.823  -8.994  0.00  0.00    +0.190 A 
ATOM     15  O   LIG    1       -0.850  -8.948  -9.888  0.00  0.00    -0.170 OA
BRANCH  11  16
ATOM     16  C   LIG    1       -0.563  -6.528 -10.576  0.00  0.00    +0.320 C 
BRANCH  16  20
ATOM     17  O   LIG    1        0.941  -8.458 -14.636  0.00  0.00    -0.550 OA
ATOM     18  C   LIG    1        0.820  -7.487 -13.920  0.00  0.00    +0.530 C 
ATOM     19  C   LIG    1        0.015  -7.619 -12.658  0.00  0.00    +0.220 C 
ATOM     20  N   LIG    1        0.318  -6.505 -11.751  0.00  0.00    -0.520 NA
ATOM     21  C   LIG    1        0.210  -5.223 -12.466  0.00  0.00    +0.200 C 
ATOM     22  C   LIG    1        1.353  -5.128 -13.479  0.00  0.00    +0.290 C 
ATOM     23  N   LIG    1        1.408  -6.343 -14.287  0.00  0.00    -0.720 N 
ATOM     24  H   LIG    1        1.892  -6.319 -15.127  0.00  0.00    +0.400 HD
ENDBRANCH  16  20
ENDBRANCH  11  16
ENDBRANCH   7  12
ENDBRANCH   1   8
BRANCH   4  25
ATOM     25  C   LIG    1        5.401  -2.745  -5.003  0.00  0.00    +0.220 C 
BRANCH  25  26
ATOM     26  N   LIG    1        5.130  -2.648  -3.562  0.00  0.00    -0.530 NA
ATOM     27  C   LIG    1        6.067  -1.722  -2.911  0.00  0.00    +0.180 C 
ATOM     28  C   LIG    1        5.803  -1.710  -1.404  0.00  0.00    +0.180 C 
ATOM     29  N   LIG    1        4.412  -1.306  -1.156  0.00  0.00    -0.530 NA
ATOM     30  C   LIG    1        3.475  -2.232  -1.807  0.00  0.00    +0.180 C 
ATOM     31  C   LIG    1        3.739  -2.245  -3.315  0.00  0.00    +0.180 C 
BRANCH  29  32
ATOM     32  C   LIG    1        4.141  -1.209   0.284  0.00  0.00    +0.210 C 
BRANCH  32  33
ATOM     33  C   LIG    1        2.796  -0.563   0.500  0.00  0.00    -0.080 A 
ATOM     34  C   LIG    1        1.658  -1.343   0.573  0.00  0.00    +0.010 A 
ATOM     35  C   LIG    1        0.425  -0.751   0.771  0.00  0.00    +0.000 A 
ATOM     36  C   LIG    1        0.331   0.623   0.897  0.00  0.00    +0.000 A 
ATOM     37  C   LIG    1        1.469   1.403   0.824  0.00  0.00    +0.000 A 
ATOM     38  C   LIG    1        2.702   0.811   0.624  0.00  0.00    +0.020 A 
ENDBRANCH  32  33
ENDBRANCH  29  32
ENDBRANCH  25  26
ENDBRANCH   4  25
TORSDOF 8
