REMARK  Name = ZINCqH0000032ejU.2
REMARK                            x       y       z     vdW  Elec       q    Type
REMARK                         _______ _______ _______ _____ _____    ______ ____
ROOT
ATOM      1  C   UNK    1       -4.368  -0.661   3.317  0.00  0.00    +0.160 C 
ATOM      2  C   UNK    1       -3.625  -0.457   1.995  0.00  0.00    +0.290 C 
ATOM      3  N   UNK    1       -2.510   0.478   2.199  0.00  0.00    -0.390 N 
ATOM      4  C   UNK    1       -3.032   1.773   2.654  0.00  0.00    +0.280 C 
ATOM      5  C   UNK    1       -3.770   1.588   3.982  0.00  0.00    +0.240 C 
ATOM      6  H   UNK    1       -1.882   0.105   2.896  0.00  0.00    +0.420 HD
ATOM      7  N   UNK    1       -4.873   0.634   3.797  0.00  0.00    -0.440 N 
ENDROOT
BRANCH   7   8
ATOM      8  C   UNK    1       -5.596   0.481   4.963  0.00  0.00    +0.300 A 
ATOM      9  N   UNK    1       -5.193  -0.162   6.027  0.00  0.00    -0.440 NA
ATOM     10  C   UNK    1       -6.177  -0.093   6.970  0.00  0.00    -0.040 A 
ATOM     11  C   UNK    1       -7.204   0.617   6.426  0.00  0.00    +0.200 A 
ATOM     12  O   UNK    1       -6.830   0.966   5.183  0.00  0.00    -0.190 OA
BRANCH  10  13
ATOM     13  C   UNK    1       -6.138  -0.679   8.316  0.00  0.00    +0.550 C 
ATOM     14  O   UNK    1       -5.149  -1.297   8.687  0.00  0.00    -0.660 OA
ATOM     15  O   UNK    1       -7.095  -0.549   9.069  0.00  0.00    -0.670 OA
ENDBRANCH  10  13
ENDBRANCH   7   8
BRANCH   1  16
ATOM     16  C   UNK    1       -5.542  -1.618   3.101  0.00  0.00    +0.070 C 
BRANCH  16  18
ATOM     17  C   UNK    1       -7.492  -2.142   1.630  0.00  0.00    +0.020 C 
ATOM     18  C   UNK    1       -6.410  -1.108   1.950  0.00  0.00    -0.030 C 
ATOM     19  C   UNK    1       -7.070   0.212   2.353  0.00  0.00    +0.030 C 
ENDBRANCH  16  18
ENDBRANCH   1  16
BRANCH   3  20
ATOM     20  C   UNK    1       -1.786   0.659   0.934  0.00  0.00    +0.330 C 
BRANCH  20  21
ATOM     21  C   UNK    1       -0.570   1.518   1.170  0.00  0.00    -0.160 A 
ATOM     22  C   UNK    1        0.635   0.932   1.508  0.00  0.00    +0.060 A 
ATOM     23  C   UNK    1        1.752   1.719   1.719  0.00  0.00    +0.040 A 
ATOM     24  C   UNK    1        1.662   3.094   1.596  0.00  0.00    -0.010 A 
ATOM     25  C   UNK    1        0.454   3.680   1.263  0.00  0.00    +0.040 A 
ATOM     26 CL   UNK    1        3.064   4.083   1.859  0.00  0.00    -0.040 Cl
ATOM     27  C   UNK    1       -0.662   2.892   1.053  0.00  0.00    +0.060 A 
ENDBRANCH  20  21
ENDBRANCH   3  20
TORSDOF 6
