REMARK  Name = ZINCqH0000032ejU.1
REMARK                            x       y       z     vdW  Elec       q    Type
REMARK                         _______ _______ _______ _____ _____    ______ ____
ROOT
ATOM      1  C   UNK    1       -5.188   0.903  -0.741  0.00  0.00    +0.200 C 
ATOM      2  C   UNK    1       -6.686   0.697  -0.504  0.00  0.00    +0.280 C 
ATOM      3  N   UNK    1       -6.896  -0.550   0.242  0.00  0.00    -0.390 N 
ATOM      4  C   UNK    1       -6.218  -0.465   1.542  0.00  0.00    +0.270 C 
ATOM      5  C   UNK    1       -4.717  -0.269   1.323  0.00  0.00    +0.260 C 
ATOM      6  H   UNK    1       -6.519  -1.325  -0.283  0.00  0.00    +0.420 HD
ATOM      7  N   UNK    1       -4.494   0.964   0.553  0.00  0.00    -0.440 N 
ENDROOT
BRANCH   7   8
ATOM      8  C   UNK    1       -3.145   1.202   0.381  0.00  0.00    +0.290 A 
ATOM      9  N   UNK    1       -2.222   0.285   0.262  0.00  0.00    -0.440 NA
ATOM     10  C   UNK    1       -1.017   0.906   0.107  0.00  0.00    -0.040 A 
ATOM     11  C   UNK    1       -1.249   2.247   0.143  0.00  0.00    +0.200 A 
ATOM     12  O   UNK    1       -2.572   2.415   0.307  0.00  0.00    -0.200 OA
BRANCH  10  13
ATOM     13  C   UNK    1        0.287   0.250  -0.060  0.00  0.00    +0.550 C 
ATOM     14  O   UNK    1        1.299   0.926  -0.195  0.00  0.00    -0.670 OA
ATOM     15  O   UNK    1        0.362  -0.971  -0.070  0.00  0.00    -0.660 OA
ENDBRANCH  10  13
ENDBRANCH   7   8
BRANCH   1  16
ATOM     16  C   UNK    1       -4.636  -0.264  -1.562  0.00  0.00    -0.010 C 
BRANCH  16  18
ATOM     17  C   UNK    1       -4.268  -1.125  -3.879  0.00  0.00    +0.040 C 
ATOM     18  C   UNK    1       -4.948  -0.038  -3.043  0.00  0.00    -0.010 C 
ATOM     19  C   UNK    1       -6.461  -0.100  -3.260  0.00  0.00    +0.020 C 
ENDBRANCH  16  18
ENDBRANCH   1  16
BRANCH   3  20
ATOM     20  C   UNK    1       -8.335  -0.757   0.454  0.00  0.00    +0.320 C 
BRANCH  20  21
ATOM     21  C   UNK    1       -8.560  -2.095   1.109  0.00  0.00    -0.160 A 
ATOM     22  C   UNK    1       -8.753  -3.221   0.332  0.00  0.00    +0.060 A 
ATOM     23  C   UNK    1       -8.954  -4.450   0.932  0.00  0.00    +0.040 A 
ATOM     24  C   UNK    1       -8.972  -4.550   2.312  0.00  0.00    -0.010 A 
ATOM     25  C   UNK    1       -8.784  -3.422   3.090  0.00  0.00    +0.040 A 
ATOM     26 CL   UNK    1       -9.231  -6.092   3.067  0.00  0.00    -0.040 Cl
ATOM     27  C   UNK    1       -8.579  -2.195   2.488  0.00  0.00    +0.060 A 
ENDBRANCH  20  21
ENDBRANCH   3  20
TORSDOF 6
