REMARK  Name = ZINCpk00000y6x78.0
REMARK                            x       y       z     vdW  Elec       q    Type
REMARK                         _______ _______ _______ _____ _____    ______ ____
ROOT
ATOM      1  N   LIG    1        0.357   1.515  -0.461  0.00  0.00    -0.470 N 
ATOM      2  C   LIG    1        0.396   0.048  -0.506  0.00  0.00    +0.200 C 
ATOM      3  C   LIG    1        0.980  -0.488   0.802  0.00  0.00    +0.050 C 
ATOM      4  C   LIG    1        2.392   0.072   0.994  0.00  0.00    +0.020 C 
ATOM      5  C   LIG    1        2.330   1.602   0.989  0.00  0.00    +0.270 C 
ATOM      6  C   LIG    1        1.707   2.078  -0.326  0.00  0.00    +0.220 C 
ENDROOT
BRANCH   1  10
ATOM      7  C   LIG    1       -3.585   1.776  -3.397  0.00  0.00    +0.140 C 
ATOM      8  C   LIG    1       -2.183   2.173  -3.013  0.00  0.00    +0.200 A 
ATOM      9  C   LIG    1       -1.586   1.631  -1.891  0.00  0.00    -0.100 A 
ATOM     10  C   LIG    1       -0.285   2.030  -1.576  0.00  0.00    +0.360 A 
ATOM     11  N   LIG    1        0.325   2.914  -2.359  0.00  0.00    -0.560 NA
ATOM     12  C   LIG    1       -0.281   3.401  -3.423  0.00  0.00    +0.350 A 
ATOM     13  C   LIG    1        0.446   4.396  -4.290  0.00  0.00    +0.170 C 
ATOM     14  N   LIG    1       -1.508   3.045  -3.747  0.00  0.00    -0.540 NA
ENDBRANCH   1  10
BRANCH   5  15
ATOM     15  N   LIG    1        3.684   2.147   1.114  0.00  0.00    -0.670 N 
ATOM     16  H   LIG    1        4.182   2.396   0.320  0.00  0.00    +0.420 HD
BRANCH  15  17
ATOM     17  C   LIG    1        4.253   2.307   2.366  0.00  0.00    +0.640 A 
ATOM     18  N   LIG    1        3.558   1.962   3.439  0.00  0.00    -0.580 NA
ATOM     19  C   LIG    1        4.068   2.100   4.654  0.00  0.00    +0.500 A 
ATOM     20  C   LIG    1        5.343   2.611   4.798  0.00  0.00    -0.280 A 
ATOM     21  C   LIG    1        6.052   2.966   3.647  0.00  0.00    +0.540 A 
ATOM     22  N   LIG    1        5.480   2.796   2.459  0.00  0.00    -0.620 NA
BRANCH  21  23
ATOM     23  N   LIG    1        7.333   3.483   3.743  0.00  0.00    -0.800 N 
ATOM     24  H   LIG    1        7.788   3.802   2.948  0.00  0.00    +0.410 HD
ATOM     25  H   LIG    1        7.776   3.525   4.605  0.00  0.00    +0.430 HD
ENDBRANCH  21  23
BRANCH  20  26
ATOM     26  N   LIG    1        5.945   2.779   6.139  0.00  0.00    +0.070 N 
ATOM     27  O   LIG    1        7.108   3.127   6.246  0.00  0.00    -0.210 OA
ATOM     28  O   LIG    1        5.279   2.568   7.137  0.00  0.00    -0.150 OA
ENDBRANCH  20  26
ENDBRANCH  15  17
ENDBRANCH   5  15
TORSDOF 5
