REMARK  Name = ZINCpk000004I7GZ.0
REMARK                            x       y       z     vdW  Elec       q    Type
REMARK                         _______ _______ _______ _____ _____    ______ ____
ROOT
ATOM      1  C   LIG    1       -0.037   1.099  -2.490  0.00  0.00    +0.270 C 
ENDROOT
BRANCH   1   2
ATOM      2  N   LIG    1       -0.673   1.681  -3.674  0.00  0.00    -0.610 N 
ATOM      3  C   LIG    1       -1.694   1.038  -4.276  0.00  0.00    +0.520 C 
ATOM      4  O   LIG    1       -2.085  -0.023  -3.837  0.00  0.00    -0.510 OA
ATOM      5  C   LIG    1       -0.201   2.963  -4.205  0.00  0.00    +0.280 C 
BRANCH   3   6
ATOM      6  C   LIG    1       -2.349   1.637  -5.494  0.00  0.00    +0.170 C 
BRANCH   6   7
ATOM      7  C   LIG    1       -3.453   0.727  -5.968  0.00  0.00    +0.030 A 
ATOM      8  N   LIG    1       -3.348  -0.535  -6.269  0.00  0.00    -0.340 NA
ATOM      9  O   LIG    1       -4.408  -0.999  -6.620  0.00  0.00    +0.110 OA
ATOM     10  C   LIG    1       -5.381  -0.077  -6.596  0.00  0.00    +0.000 A 
ATOM     11  C   LIG    1       -4.808   1.074  -6.170  0.00  0.00    -0.050 A 
BRANCH  10  12
ATOM     12  C   LIG    1       -6.828  -0.282  -6.965  0.00  0.00    +0.050 C 
ATOM     13  C   LIG    1       -7.295  -1.716  -7.220  0.00  0.00    +0.040 C 
ATOM     14  C   LIG    1       -7.135  -0.744  -8.391  0.00  0.00    +0.050 C 
ENDBRANCH  10  12
ENDBRANCH   6   7
ENDBRANCH   3   6
ENDBRANCH   1   2
BRANCH   1  15
ATOM     15  C   LIG    1       -0.753   1.593  -1.232  0.00  0.00    +0.170 C 
BRANCH  15  16
ATOM     16  O   LIG    1       -2.093   1.098  -1.221  0.00  0.00    -0.540 OA
ATOM     17  H   LIG    1       -2.157   0.133  -1.226  0.00  0.00    +0.380 HD
ENDBRANCH  15  16
BRANCH  15  18
ATOM     18  C   LIG    1       -0.013   1.086   0.008  0.00  0.00    +0.250 C 
BRANCH  18  20
ATOM     19  C   LIG    1       -1.675   0.814   1.769  0.00  0.00    +0.520 C 
ATOM     20  N   LIG    1       -0.698   1.558   1.213  0.00  0.00    -0.620 N 
ATOM     21  C   LIG    1       -0.323   2.840   1.815  0.00  0.00    +0.280 C 
ATOM     22  O   LIG    1       -1.986  -0.248   1.271  0.00  0.00    -0.530 OA
BRANCH  19  23
ATOM     23  C   LIG    1       -2.380   1.300   3.009  0.00  0.00    +0.050 C 
BRANCH  23  25
ATOM     24  C   LIG    1       -4.065   0.707   4.756  0.00  0.00    +0.010 C 
ATOM     25  C   LIG    1       -3.436   0.275   3.430  0.00  0.00    +0.000 C 
ATOM     26  C   LIG    1       -4.520   0.189   2.354  0.00  0.00    +0.030 C 
ENDBRANCH  23  25
ENDBRANCH  19  23
ENDBRANCH  18  20
ENDBRANCH  15  18
ENDBRANCH   1  15
TORSDOF 10
