REMARK  Name = ZINCrg00000AoZe9.0
REMARK                            x       y       z     vdW  Elec       q    Type
REMARK                         _______ _______ _______ _____ _____    ______ ____
ROOT
ATOM      1  C   LIG    1       -6.039   3.216   0.094  0.00  0.00    +0.250 C 
ENDROOT
BRANCH   1   2
ATOM      2  C   LIG    1       -7.550   2.987   0.033  0.00  0.00    -0.070 C 
ATOM      3  C   LIG    1       -7.883   2.095  -1.165  0.00  0.00    +0.030 C 
ATOM      4  C   LIG    1       -8.264   4.332  -0.119  0.00  0.00    +0.030 C 
ATOM      5  C   LIG    1       -8.015   2.305   1.321  0.00  0.00    +0.020 C 
ENDBRANCH   1   2
BRANCH   1   6
ATOM      6  N   LIG    1       -5.720   4.070   1.241  0.00  0.00    -0.730 N 
ATOM      7  H   LIG    1       -5.461   3.670   2.086  0.00  0.00    +0.400 HD
ATOM      8  C   LIG    1       -5.788   5.411   1.122  0.00  0.00    +0.510 C 
ATOM      9  O   LIG    1       -6.113   5.910   0.066  0.00  0.00    -0.500 OA
BRANCH   8  10
ATOM     10  C   LIG    1       -5.461   6.289   2.302  0.00  0.00    +0.190 C 
BRANCH  10  11
ATOM     11  N   LIG    1       -5.747   7.690   1.964  0.00  0.00    -0.490 NA
ATOM     12  C   LIG    1       -5.516   8.577   3.133  0.00  0.00    +0.170 C 
ATOM     13  C   LIG    1       -6.338   9.848   2.825  0.00  0.00    +0.010 C 
ATOM     14  C   LIG    1       -7.436   9.387   1.845  0.00  0.00    +0.130 C 
ATOM     15  C   LIG    1       -8.821   9.619   2.451  0.00  0.00    +0.010 C 
ATOM     16  C   LIG    1       -7.185   7.877   1.643  0.00  0.00    +0.200 C 
BRANCH  14  17
ATOM     17  O   LIG    1       -7.315  10.081   0.602  0.00  0.00    -0.550 OA
ATOM     18  H   LIG    1       -7.418  11.040   0.675  0.00  0.00    +0.370 HD
ENDBRANCH  14  17
ENDBRANCH  10  11
ENDBRANCH   8  10
ENDBRANCH   1   6
BRANCH   1  19
ATOM     19  C   LIG    1       -5.325   1.871   0.246  0.00  0.00    +0.280 C 
BRANCH  19  21
ATOM     20  C   LIG    1       -3.055   1.050   0.579  0.00  0.00    +0.590 C 
ATOM     21  N   LIG    1       -3.889   2.098   0.424  0.00  0.00    -0.730 N 
ATOM     22  H   LIG    1       -3.538   3.002   0.431  0.00  0.00    +0.400 HD
ATOM     23  O   LIG    1       -3.495  -0.083   0.570  0.00  0.00    -0.540 OA
BRANCH  20  27
ATOM     24  C   LIG    1        1.944   0.286   1.254  0.00  0.00    +0.120 C 
ATOM     25  C   LIG    1        0.592   0.920   1.056  0.00  0.00    +0.010 A 
ATOM     26  C   LIG    1       -0.573   0.258   0.938  0.00  0.00    +0.010 A 
ATOM     27  C   LIG    1       -1.611   1.278   0.758  0.00  0.00    -0.230 A 
ATOM     28  C   LIG    1       -0.968   2.485   0.793  0.00  0.00    +0.220 A 
ATOM     29  N   LIG    1        0.348   2.260   0.968  0.00  0.00    -0.440 N 
ATOM     30  C   LIG    1        1.372   3.304   1.052  0.00  0.00    +0.320 C 
ENDBRANCH  20  27
ENDBRANCH  19  21
ENDBRANCH   1  19
TORSDOF 8
