REMARK  Name = ZINCbw0000000HgQ.0
REMARK                            x       y       z     vdW  Elec       q    Type
REMARK                         _______ _______ _______ _____ _____    ______ ____
ROOT
ATOM      1  C   LIG    1       -0.017   1.378   0.010  0.00  0.00    -0.020 A 
ATOM      2  C   LIG    1        0.002  -0.004   0.002  0.00  0.00    -0.040 A 
ATOM      3  C   LIG    1        1.207  -0.682  -0.014  0.00  0.00    +0.050 A 
ATOM      4  C   LIG    1        2.396   0.020  -0.021  0.00  0.00    -0.070 A 
ATOM      5  C   LIG    1        2.381   1.409  -0.013  0.00  0.00    +0.220 A 
ATOM      6  C   LIG    1        1.169   2.087   0.002  0.00  0.00    -0.060 A 
ENDROOT
BRANCH   5   7
ATOM      7  N   LIG    1        3.582   2.122  -0.020  0.00  0.00    -0.880 N 
ATOM      8  H   LIG    1        3.570   3.092  -0.015  0.00  0.00    +0.400 HD
ATOM      9  H   LIG    1        4.428   1.647  -0.031  0.00  0.00    +0.400 HD
ENDBRANCH   5   7
BRANCH   1  10
ATOM     10  C   LIG    1       -1.332   2.113   0.020  0.00  0.00    +0.070 C 
ATOM     11  C   LIG    1       -2.123   1.725   1.271  0.00  0.00    +0.060 C 
BRANCH  10  13
ATOM     12  C   LIG    1       -3.737   2.750  -1.348  0.00  0.00    +0.130 C 
ATOM     13  S   LIG    1       -2.284   1.670  -1.459  0.00  0.00    -0.250 S 
ENDBRANCH  10  13
ENDBRANCH   1  10
TORSDOF 3
