REMARK  Name = ZINCkj000005eoL2.0
REMARK                            x       y       z     vdW  Elec       q    Type
REMARK                         _______ _______ _______ _____ _____    ______ ____
ROOT
ATOM      1  N   LIG    1       -0.553   1.561   1.396  0.00  0.00    -0.610 N 
ATOM      2  C   LIG    1       -1.371   0.661   1.976  0.00  0.00    +0.520 C 
ATOM      3  O   LIG    1       -2.306   1.038   2.651  0.00  0.00    -0.480 OA
ENDROOT
BRANCH   1   4
ATOM      4  C   LIG    1        0.515   1.110   0.501  0.00  0.00    +0.230 C 
ATOM      5  C   LIG    1        0.315   1.723  -0.888  0.00  0.00    +0.060 C 
ATOM      6  C   LIG    1        1.477   1.310  -1.794  0.00  0.00    +0.270 C 
ATOM      7  N   LIG    1        2.741   1.790  -1.223  0.00  0.00    -0.390 N 
ATOM      8  C   LIG    1        2.975   1.151   0.078  0.00  0.00    +0.270 C 
ATOM      9  C   LIG    1        3.844   1.458  -2.135  0.00  0.00    +0.330 C 
ATOM     10  H   LIG    1        2.696   2.791  -1.102  0.00  0.00    +0.430 HD
ATOM     11  C   LIG    1        1.871   1.558   1.056  0.00  0.00    +0.050 C 
ENDBRANCH   1   4
BRANCH   2  12
ATOM     12  C   LIG    1       -1.125  -0.814   1.787  0.00  0.00    +0.150 C 
ATOM     13  C   LIG    1       -1.470  -1.235   0.341  0.00  0.00    +0.020 C 
ATOM     14  C   LIG    1       -2.098  -2.638   0.499  0.00  0.00    -0.100 C 
ATOM     15  C   LIG    1       -2.058  -2.898   2.021  0.00  0.00    +0.220 C 
ATOM     16  C   LIG    1       -1.267  -3.684  -0.246  0.00  0.00    +0.050 C 
ATOM     17  C   LIG    1       -3.542  -2.639  -0.007  0.00  0.00    +0.050 C 
ATOM     18  O   LIG    1       -2.019  -1.584   2.619  0.00  0.00    -0.340 OA
ENDBRANCH   2  12
BRANCH   1  19
ATOM     19  C   LIG    1       -0.732   2.991   1.661  0.00  0.00    +0.440 C 
BRANCH  19  21
ATOM     20  C   LIG    1       -2.574   3.966   0.030  0.00  0.00    +0.060 C 
ATOM     21  C   LIG    1       -1.757   3.533   0.754  0.00  0.00    -0.230 C 
ENDBRANCH  19  21
ENDBRANCH   1  19
TORSDOF 4
