REMARK  Name = ZINCrH000004niJe.0
REMARK                            x       y       z     vdW  Elec       q    Type
REMARK                         _______ _______ _______ _____ _____    ______ ____
ROOT
ATOM      1  C   LIG    1       -0.712  -0.713   0.895  0.00  0.00    +0.560 C 
ATOM      2  N   LIG    1       -0.016  -0.005  -0.016  0.00  0.00    -0.610 N 
ATOM      3  C   LIG    1        0.775  -0.680  -1.057  0.00  0.00    +0.250 C 
ATOM      4  C   LIG    1        2.188  -0.084  -1.055  0.00  0.00    +0.220 C 
ATOM      5  O   LIG    1        2.097   1.340  -1.150  0.00  0.00    -0.370 OA
ATOM      6  C   LIG    1        1.427   1.959  -0.049  0.00  0.00    +0.200 C 
ATOM      7  C   LIG    1       -0.024   1.467   0.000  0.00  0.00    +0.280 C 
ATOM      8  O   LIG    1       -1.293  -0.140   1.792  0.00  0.00    -0.530 OA
ENDROOT
BRANCH   6   9
ATOM      9  C   LIG    1        1.445   3.455  -0.226  0.00  0.00    -0.090 A 
ATOM     10  C   LIG    1        1.258   4.005  -1.480  0.00  0.00    +0.070 A 
ATOM     11  C   LIG    1        1.269   5.378  -1.642  0.00  0.00    -0.010 A 
ATOM     12  C   LIG    1        1.478   6.202  -0.550  0.00  0.00    +0.100 A 
ATOM     13  C   LIG    1        1.671   5.650   0.706  0.00  0.00    -0.120 A 
ATOM     14  C   LIG    1        1.900   6.545   1.896  0.00  0.00    +0.100 C 
ATOM     15  F   LIG    1        1.495   7.543  -0.708  0.00  0.00    -0.140 F 
ATOM     16  C   LIG    1        1.654   4.277   0.866  0.00  0.00    +0.050 A 
ENDBRANCH   6   9
BRANCH   1  17
ATOM     17  C   LIG    1       -0.767  -2.215   0.800  0.00  0.00    -0.120 C 
ATOM     18  C   LIG    1       -0.560  -3.014   2.088  0.00  0.00    +0.090 C 
ATOM     19  C   LIG    1        0.536  -2.986   1.020  0.00  0.00    +0.050 C 
BRANCH  17  24
ATOM     20  C   LIG    1       -3.779  -2.569  -1.455  0.00  0.00    +0.140 A 
ATOM     21  C   LIG    1       -3.520  -3.785  -2.071  0.00  0.00    -0.080 A 
ATOM     22  C   LIG    1       -2.372  -4.487  -1.755  0.00  0.00    +0.060 A 
ATOM     23  C   LIG    1       -1.480  -3.976  -0.831  0.00  0.00    -0.020 A 
ATOM     24  C   LIG    1       -1.739  -2.767  -0.212  0.00  0.00    -0.000 A 
ATOM     25  C   LIG    1       -2.885  -2.061  -0.524  0.00  0.00    -0.010 A 
BRANCH  20  27
ATOM     26  C   LIG    1       -5.782  -2.460  -2.732  0.00  0.00    +0.250 C 
ATOM     27  O   LIG    1       -4.907  -1.877  -1.764  0.00  0.00    -0.320 OA
ENDBRANCH  20  27
ENDBRANCH  17  24
ENDBRANCH   1  17
TORSDOF 4
