REMARK  Name = ZINC5b0000002oms.0
REMARK                            x       y       z     vdW  Elec       q    Type
REMARK                         _______ _______ _______ _____ _____    ______ ____
ROOT
ATOM      1  C   LIG    1        0.002  -0.004   0.002  0.00  0.00    +0.210 C 
ATOM      2  C   LIG    1       -0.807  -0.532   1.189  0.00  0.00    +0.100 C 
ENDROOT
BRANCH   1   3
ATOM      3  N   LIG    1        1.389  -0.475   0.107  0.00  0.00    -0.640 N 
ATOM      4  H   LIG    1        1.795  -0.138   0.967  0.00  0.00    +0.430 HD
ATOM      5  H   LIG    1        1.923  -0.128  -0.676  0.00  0.00    +0.440 HD
ATOM      6  H   LIG    1        1.403  -1.484   0.101  0.00  0.00    +0.440 HD
ENDBRANCH   1   3
BRANCH   1   8
ATOM      7  C   LIG    1        1.107   2.173   0.003  0.00  0.00    +0.050 C 
ATOM      8  C   LIG    1       -0.018   1.503   0.010  0.00  0.00    -0.040 C 
ENDBRANCH   1   8
TORSDOF 2
