REMARK  Name = ZINCpk000000o4An.0
REMARK                            x       y       z     vdW  Elec       q    Type
REMARK                         _______ _______ _______ _____ _____    ______ ____
ROOT
ATOM      1  C   LIG    1       -2.803   0.307  -0.020  0.00  0.00    +0.590 C 
ATOM      2  N   LIG    1       -2.639   1.639   0.111  0.00  0.00    -0.630 N 
ATOM      3  H   LIG    1       -3.413   2.214   0.219  0.00  0.00    +0.410 HD
ATOM      4  O   LIG    1       -1.831  -0.415  -0.156  0.00  0.00    -0.520 OA
ENDROOT
BRANCH   1   7
ATOM      5  C   LIG    1       -4.023   0.099   2.428  0.00  0.00    +0.140 C 
ATOM      6  C   LIG    1       -4.726  -0.374   1.182  0.00  0.00    +0.220 C 
ATOM      7  C   LIG    1       -4.102  -0.252   0.001  0.00  0.00    -0.300 C 
ATOM      8  C   LIG    1       -4.717  -0.688  -1.303  0.00  0.00    +0.410 C 
ATOM      9  N   LIG    1       -5.910  -1.481  -1.034  0.00  0.00    -0.400 N 
ATOM     10  N   LIG    1       -6.684  -2.273  -1.881  0.00  0.00    -0.060 NA
ATOM     11  N   LIG    1       -7.639  -2.760  -1.156  0.00  0.00    -0.020 NA
ATOM     12  N   LIG    1       -7.534  -2.349   0.061  0.00  0.00    -0.340 NA
ATOM     13  C   LIG    1       -6.497  -1.571   0.187  0.00  0.00    +0.470 A 
ATOM     14  N   LIG    1       -5.986  -0.910   1.294  0.00  0.00    -0.500 N 
ATOM     15  C   LIG    1       -6.757  -0.793   2.535  0.00  0.00    +0.350 C 
ENDBRANCH   1   7
BRANCH   2  16
ATOM     16  C   LIG    1       -1.348   2.194   0.090  0.00  0.00    -0.000 A 
ATOM     17  C   LIG    1       -0.186   1.510  -0.054  0.00  0.00    +0.260 A 
ATOM     18  N   LIG    1        0.831   2.411  -0.028  0.00  0.00    -0.470 N 
ATOM     19  H   LIG    1        1.775   2.205  -0.113  0.00  0.00    +0.450 HD
ATOM     20  N   LIG    1        0.279   3.687   0.143  0.00  0.00    -0.260 NA
ATOM     21  C   LIG    1       -1.029   3.564   0.218  0.00  0.00    +0.110 A 
BRANCH  21  22
ATOM     22  C   LIG    1       -1.999   4.671   0.400  0.00  0.00    -0.020 A 
ATOM     23  C   LIG    1       -3.245   4.620  -0.224  0.00  0.00    +0.010 A 
ATOM     24  C   LIG    1       -4.145   5.650  -0.047  0.00  0.00    +0.010 A 
ATOM     25  C   LIG    1       -3.810   6.738   0.738  0.00  0.00    +0.020 A 
ATOM     26  C   LIG    1       -2.573   6.797   1.355  0.00  0.00    +0.010 A 
ATOM     27  C   LIG    1       -1.667   5.770   1.190  0.00  0.00    +0.040 A 
ENDBRANCH  21  22
ENDBRANCH   2  16
TORSDOF 3
