REMARK  Name = ZINCpk00000KfLqD.0
REMARK                            x       y       z     vdW  Elec       q    Type
REMARK                         _______ _______ _______ _____ _____    ______ ____
ROOT
ATOM      1  N   LIG    1        1.173  -0.661  -0.114  0.00  0.00    -0.740 N 
ATOM      2  H   LIG    1        2.008  -0.168  -0.120  0.00  0.00    +0.400 HD
ATOM      3  C   LIG    1        0.002  -0.004   0.002  0.00  0.00    +0.710 C 
ATOM      4  N   LIG    1       -0.016   1.343   0.010  0.00  0.00    -0.630 N 
ATOM      5  C   LIG    1       -1.288   2.081   0.015  0.00  0.00    +0.310 C 
ATOM      6  C   LIG    1       -1.247   3.107   1.159  0.00  0.00    +0.180 C 
ATOM      7  N   LIG    1       -0.046   3.941   1.018  0.00  0.00    -0.530 NA
ATOM      8  C   LIG    1        1.178   3.140   1.146  0.00  0.00    +0.180 C 
ATOM      9  C   LIG    1        1.236   2.115   0.008  0.00  0.00    +0.280 C 
ATOM     10  O   LIG    1       -1.038  -0.627   0.100  0.00  0.00    -0.590 OA
ENDROOT
BRANCH   1  11
ATOM     11  C   LIG    1        1.184  -2.122  -0.233  0.00  0.00    +0.310 C 
BRANCH  11  15
ATOM     12  C   LIG    1        4.031  -4.507  -1.485  0.00  0.00    +0.060 C 
ATOM     13  C   LIG    1        2.849  -4.106  -0.600  0.00  0.00    -0.030 C 
ATOM     14  C   LIG    1        3.166  -3.503   0.771  0.00  0.00    +0.030 C 
ATOM     15  C   LIG    1        2.629  -2.612  -0.351  0.00  0.00    -0.060 C 
ENDBRANCH  11  15
ENDBRANCH   1  11
BRANCH   7  16
ATOM     16  C   LIG    1       -0.056   5.046   1.986  0.00  0.00    +0.310 C 
BRANCH  16  17
ATOM     17  C   LIG    1       -1.417   5.692   1.997  0.00  0.00    +0.170 A 
ATOM     18  N   LIG    1       -2.427   5.361   2.758  0.00  0.00    -0.290 NA
ATOM     19  N   LIG    1       -3.430   6.129   2.506  0.00  0.00    -0.290 NA
ATOM     20  C   LIG    1       -3.102   6.983   1.579  0.00  0.00    +0.180 A 
ATOM     21  C   LIG    1       -3.966   8.073   0.998  0.00  0.00    +0.150 C 
ATOM     22  C   LIG    1       -3.855   8.038  -0.529  0.00  0.00    +0.030 C 
ATOM     23  C   LIG    1       -2.681   8.904  -0.977  0.00  0.00    +0.010 C 
ATOM     24  C   LIG    1       -1.555   8.853   0.055  0.00  0.00    +0.030 C 
ATOM     25  C   LIG    1       -1.046   7.415   0.193  0.00  0.00    +0.300 C 
ATOM     26  N   LIG    1       -1.820   6.727   1.227  0.00  0.00    -0.460 N 
ENDBRANCH  16  17
ENDBRANCH   7  16
TORSDOF 4
