REMARK  Name = ZINCrg00000B0wEs.0
REMARK                            x       y       z     vdW  Elec       q    Type
REMARK                         _______ _______ _______ _____ _____    ______ ____
ROOT
ATOM      1  C   LIG    1        2.537   1.133   1.060  0.00  0.00    +0.110 A 
ATOM      2  N   LIG    1        3.209   2.268   0.924  0.00  0.00    -0.330 NA
ATOM      3  C   LIG    1        2.476   3.277   1.357  0.00  0.00    -0.570 A 
ATOM      4  C   LIG    1        1.258   2.765   1.799  0.00  0.00    +0.130 A 
ATOM      5  C   LIG    1        0.108   3.352   2.351  0.00  0.00    +0.060 A 
ATOM      6  C   LIG    1       -0.947   2.557   2.689  0.00  0.00    +0.090 A 
ATOM      7  C   LIG    1       -0.868   1.173   2.474  0.00  0.00    +0.030 A 
ATOM      8  C   LIG    1        0.249   0.625   1.947  0.00  0.00    +0.270 A 
ATOM      9  N   LIG    1        1.310   1.408   1.605  0.00  0.00    -0.310 N 
ENDROOT
BRANCH   1  16
ATOM     10  C   LIG    1        4.757  -1.643  -0.258  0.00  0.00    +0.310 C 
ATOM     11  C   LIG    1        5.385  -1.407  -1.640  0.00  0.00    +0.030 C 
ATOM     12  C   LIG    1        6.485  -0.350  -1.521  0.00  0.00    +0.010 C 
ATOM     13  C   LIG    1        5.878   0.969  -1.037  0.00  0.00    +0.020 C 
ATOM     14  C   LIG    1        5.254   0.761   0.347  0.00  0.00    +0.280 C 
ATOM     15  N   LIG    1        4.298  -0.352   0.273  0.00  0.00    -0.580 N 
ATOM     16  C   LIG    1        3.026  -0.195   0.689  0.00  0.00    +0.610 C 
ATOM     17  O   LIG    1        2.284  -1.157   0.756  0.00  0.00    -0.510 OA
BRANCH  10  21
ATOM     18  C   LIG    1        1.687  -5.558   0.347  0.00  0.00    +0.350 C 
ATOM     19  N   LIG    1        2.253  -4.290  -0.119  0.00  0.00    -0.380 N 
ATOM     20  C   LIG    1        3.427  -3.753   0.273  0.00  0.00    +0.230 A 
ATOM     21  C   LIG    1        3.586  -2.582  -0.387  0.00  0.00    -0.210 A 
ATOM     22  C   LIG    1        2.467  -2.394  -1.206  0.00  0.00    +0.250 A 
ATOM     23  N   LIG    1        1.670  -3.420  -1.050  0.00  0.00    -0.300 NA
ENDBRANCH  10  21
ENDBRANCH   1  16
BRANCH   3  24
ATOM     24  S   LIG    1        2.955   4.973   1.372  0.00  0.00    +2.740 S 
ATOM     25  O   LIG    1        2.404   5.535   2.555  0.00  0.00    -0.950 OA
ATOM     26  O   LIG    1        2.683   5.479   0.072  0.00  0.00    -0.950 OA
BRANCH  24  27
ATOM     27  N   LIG    1        4.600   5.017   1.556  0.00  0.00    -1.240 NA
ATOM     28  H   LIG    1        5.052   4.312   2.046  0.00  0.00    +0.420 HD
ATOM     29  H   LIG    1        5.112   5.747   1.175  0.00  0.00    +0.420 HD
ENDBRANCH  24  27
ENDBRANCH   3  24
TORSDOF 4
