REMARK  Name = ZINCqH0000034wVi.0
REMARK                            x       y       z     vdW  Elec       q    Type
REMARK                         _______ _______ _______ _____ _____    ______ ____
ROOT
ATOM      1  N   LIG    1        0.068  -6.042  -1.703  0.00  0.00    -0.660 N 
ATOM      2  H   LIG    1        0.061  -6.662  -0.956  0.00  0.00    +0.420 HD
ATOM      3  C   LIG    1        0.167  -4.717  -1.478  0.00  0.00    +0.510 C 
ATOM      4  O   LIG    1        0.097  -3.938  -2.404  0.00  0.00    -0.510 OA
ENDROOT
BRANCH   1  11
ATOM      5  C   LIG    1        0.401  -7.818  -3.317  0.00  0.00    +0.060 A 
ATOM      6  C   LIG    1        0.305  -8.290  -4.618  0.00  0.00    -0.050 A 
ATOM      7  C   LIG    1       -0.212  -7.478  -5.612  0.00  0.00    +0.010 A 
ATOM      8  C   LIG    1       -0.634  -6.196  -5.312  0.00  0.00    +0.050 A 
ATOM      9  C   LIG    1       -0.548  -5.720  -4.016  0.00  0.00    +0.030 A 
ATOM     10 CL   LIG    1        0.834  -9.899  -4.999  0.00  0.00    -0.060 Cl
ATOM     11  C   LIG    1       -0.026  -6.525  -3.015  0.00  0.00    +0.180 A 
BRANCH   5  13
ATOM     12  C   LIG    1        0.106  -9.845  -2.135  0.00  0.00    +0.210 C 
ATOM     13  N   LIG    1        0.924  -8.637  -2.309  0.00  0.00    -0.500 N 
ATOM     14  C   LIG    1        2.324  -8.986  -2.588  0.00  0.00    +0.210 C 
ENDBRANCH   5  13
ENDBRANCH   1  11
BRANCH   3  15
ATOM     15  C   LIG    1        0.365  -4.204  -0.075  0.00  0.00    +0.130 C 
BRANCH  15  16
ATOM     16  C   LIG    1        0.444  -2.699  -0.097  0.00  0.00    -0.100 A 
ATOM     17  C   LIG    1       -0.707  -1.946   0.037  0.00  0.00    +0.050 A 
ATOM     18  C   LIG    1       -0.638  -0.566   0.017  0.00  0.00    -0.030 A 
ATOM     19  C   LIG    1        0.589   0.064  -0.139  0.00  0.00    +0.170 A 
ATOM     20  C   LIG    1        1.744  -0.696  -0.278  0.00  0.00    +0.000 A 
ATOM     21  C   LIG    1        1.669  -2.075  -0.251  0.00  0.00    +0.050 A 
BRANCH  19  22
ATOM     22  N   LIG    1        0.663   1.461  -0.160  0.00  0.00    -0.560 N 
ATOM     23  C   LIG    1       -0.504   2.352  -0.152  0.00  0.00    +0.260 C 
ATOM     24  C   LIG    1        0.024   3.727  -0.617  0.00  0.00    +0.060 C 
ATOM     25  C   LIG    1        1.516   3.643  -0.217  0.00  0.00    +0.070 C 
ATOM     26  C   LIG    1        1.810   2.160  -0.185  0.00  0.00    +0.510 C 
ATOM     27  O   LIG    1        2.921   1.672  -0.184  0.00  0.00    -0.510 OA
ENDBRANCH  19  22
ENDBRANCH  15  16
ENDBRANCH   3  15
TORSDOF 5
