REMARK  Name = ZINCpk00000xZCRT.0
REMARK                            x       y       z     vdW  Elec       q    Type
REMARK                         _______ _______ _______ _____ _____    ______ ____
ROOT
ATOM      1  N   LIG    1       -0.704   1.423   3.716  0.00  0.00    -0.590 N 
ATOM      2  C   LIG    1       -2.026   1.598   3.739  0.00  0.00    +0.520 C 
ATOM      3  C   LIG    1       -2.884   1.597   2.506  0.00  0.00    +0.080 C 
ATOM      4  C   LIG    1       -2.125   0.950   1.344  0.00  0.00    +0.050 C 
ATOM      5  C   LIG    1       -0.729   1.579   1.267  0.00  0.00    +0.000 C 
ATOM      6  O   LIG    1       -2.564   1.768   4.812  0.00  0.00    -0.540 OA
ATOM      7  C   LIG    1        0.065   1.163   2.506  0.00  0.00    +0.340 C 
ENDROOT
BRANCH   7   8
ATOM      8  C   LIG    1        1.354   1.943   2.557  0.00  0.00    +0.180 A 
ATOM      9  N   LIG    1        1.470   3.198   2.895  0.00  0.00    -0.460 NA
ATOM     10  C   LIG    1        2.760   3.557   2.828  0.00  0.00    +0.140 A 
ATOM     11  C   LIG    1        3.471   2.483   2.432  0.00  0.00    +0.140 A 
ATOM     12  N   LIG    1        2.580   1.458   2.266  0.00  0.00    -0.450 N 
ATOM     13  C   LIG    1        2.897   0.090   1.846  0.00  0.00    +0.320 C 
ENDBRANCH   7   8
BRANCH   1  15
ATOM     14  C   LIG    1        0.087   0.103   5.617  0.00  0.00    +0.020 C 
ATOM     15  C   LIG    1        0.020   1.496   4.987  0.00  0.00    +0.280 C 
ENDBRANCH   1  15
BRANCH   5  16
ATOM     16  C   LIG    1       -0.013   1.086   0.008  0.00  0.00    +0.280 C 
BRANCH  16  17
ATOM     17  N   LIG    1       -0.721   1.571  -1.179  0.00  0.00    -0.700 N 
ATOM     18  H   LIG    1       -1.516   2.118  -1.079  0.00  0.00    +0.410 HD
BRANCH  17  19
ATOM     19  C   LIG    1       -0.255   1.250  -2.444  0.00  0.00    +0.380 A 
ATOM     20  C   LIG    1        0.893   0.467  -2.587  0.00  0.00    +0.170 A 
ATOM     21  N   LIG    1        1.334   0.157  -3.787  0.00  0.00    -0.370 NA
ATOM     22  C   LIG    1        0.690   0.598  -4.867  0.00  0.00    +0.060 A 
ATOM     23  C   LIG    1       -0.454   1.384  -4.724  0.00  0.00    +0.350 A 
ATOM     24  N   LIG    1       -0.898   1.690  -3.519  0.00  0.00    -0.500 NA
BRANCH  22  25
ATOM     25  C   LIG    1        1.173   0.267  -6.174  0.00  0.00    +0.270 C 
ATOM     26  N   LIG    1        1.555   0.003  -7.211  0.00  0.00    -0.390 NA
ENDBRANCH  22  25
ENDBRANCH  17  19
ENDBRANCH  16  17
ENDBRANCH   5  16
TORSDOF 6
