REMARK  Name = ZINCkj00000hbgVx.0
REMARK                            x       y       z     vdW  Elec       q    Type
REMARK                         _______ _______ _______ _____ _____    ______ ____
ROOT
ATOM      1  C   LIG    1        0.890   1.286  -0.041  0.00  0.00    +0.740 C 
ENDROOT
BRANCH   1   2
ATOM      2  N   LIG    1        0.762   2.580  -0.139  0.00  0.00    -0.660 NA
ATOM      3  C   LIG    1       -0.571   3.186  -0.145  0.00  0.00    +0.350 C 
ATOM      4  H   LIG    1        1.551   3.141  -0.208  0.00  0.00    +0.440 HD
ENDBRANCH   1   2
BRANCH   1   5
ATOM      5  N   LIG    1        2.136   0.729   0.125  0.00  0.00    -0.690 NA
ATOM      6  H   LIG    1        2.231  -0.234   0.198  0.00  0.00    +0.440 HD
BRANCH   5   7
ATOM      7  C   LIG    1        3.320   1.589   0.192  0.00  0.00    +0.390 C 
BRANCH   7   9
ATOM      8  C   LIG    1        5.287   0.228  -0.612  0.00  0.00    -0.040 A 
ATOM      9  C   LIG    1        4.550   0.737   0.376  0.00  0.00    -0.260 A 
ATOM     10  S   LIG    1        5.228   0.257   1.926  0.00  0.00    +0.140 S 
ATOM     11  C   LIG    1        6.516  -0.629   1.122  0.00  0.00    +0.010 A 
ATOM     12  C   LIG    1        6.375  -0.523  -0.200  0.00  0.00    +0.000 A 
BRANCH   8  14
ATOM     13  C   LIG    1        5.570   1.781  -2.524  0.00  0.00    +0.030 C 
ATOM     14  C   LIG    1        4.962   0.454  -2.066  0.00  0.00    +0.080 C 
ENDBRANCH   8  14
ENDBRANCH   7   9
ENDBRANCH   5   7
ENDBRANCH   1   5
BRANCH   1  15
ATOM     15  N   LIG    1       -0.221   0.479  -0.104  0.00  0.00    -0.700 NA
ATOM     16  H   LIG    1       -0.119  -0.485  -0.134  0.00  0.00    +0.440 HD
BRANCH  15  17
ATOM     17  C   LIG    1       -1.559   1.075  -0.133  0.00  0.00    +0.430 C 
BRANCH  17  18
ATOM     18  C   LIG    1       -2.597  -0.017  -0.115  0.00  0.00    +0.220 A 
ATOM     19  N   LIG    1       -3.136  -0.546   0.953  0.00  0.00    -0.510 NA
ATOM     20  C   LIG    1       -4.014  -1.484   0.599  0.00  0.00    +0.440 A 
ATOM     21  N   LIG    1       -4.045  -1.565  -0.706  0.00  0.00    -0.290 NA
ATOM     22  N   LIG    1       -3.133  -0.614  -1.193  0.00  0.00    -0.360 N 
ATOM     23  C   LIG    1       -2.826  -0.332  -2.597  0.00  0.00    +0.380 C 
ENDBRANCH  17  18
ENDBRANCH  15  17
ENDBRANCH   1  15
TORSDOF 8
