REMARK  Name = ZINCvU000000056R.0
REMARK                            x       y       z     vdW  Elec       q    Type
REMARK                         _______ _______ _______ _____ _____    ______ ____
ROOT
ATOM      1  C   LIG    1       -6.578   0.016   0.064  0.00  0.00    -0.270 A 
ATOM      2  C   LIG    1       -7.668   0.863   0.078  0.00  0.00    +0.300 A 
ATOM      3  N   LIG    1       -8.778   0.105   0.085  0.00  0.00    -0.300 N 
ATOM      4  N   LIG    1       -8.425  -1.247   0.075  0.00  0.00    -0.270 NA
ATOM      5  C   LIG    1       -7.115  -1.349   0.056  0.00  0.00    +0.190 A 
ENDROOT
BRANCH   5   6
ATOM      6  C   LIG    1       -6.329  -2.606   0.036  0.00  0.00    -0.050 A 
ATOM      7  C   LIG    1       -5.131  -2.669  -0.674  0.00  0.00    +0.130 A 
ATOM      8  C   LIG    1       -4.399  -3.839  -0.686  0.00  0.00    -0.020 A 
ATOM      9  C   LIG    1       -4.860  -4.953  -0.003  0.00  0.00    +0.120 A 
ATOM     10  C   LIG    1       -6.053  -4.896   0.699  0.00  0.00    -0.030 A 
ATOM     11  F   LIG    1       -4.143  -6.098  -0.022  0.00  0.00    -0.140 F 
ATOM     12  C   LIG    1       -6.788  -3.729   0.721  0.00  0.00    +0.090 A 
ENDBRANCH   5   6
BRANCH   3  13
ATOM     13  C   LIG    1      -10.090   0.597   0.099  0.00  0.00    +0.140 A 
ATOM     14  C   LIG    1      -10.320   1.966   0.113  0.00  0.00    -0.010 A 
ATOM     15  C   LIG    1      -11.615   2.447   0.120  0.00  0.00    +0.050 A 
ATOM     16  C   LIG    1      -12.681   1.567   0.126  0.00  0.00    +0.010 A 
ATOM     17  C   LIG    1      -12.456   0.203   0.118  0.00  0.00    +0.050 A 
ATOM     18  C   LIG    1      -11.163  -0.285   0.105  0.00  0.00    +0.030 A 
ENDBRANCH   3  13
BRANCH   1  21
ATOM     19  N   LIG    1       -4.817   1.709   0.056  0.00  0.00    -0.630 N 
ATOM     20  H   LIG    1       -5.507   2.391   0.066  0.00  0.00    +0.420 HD
ATOM     21  C   LIG    1       -5.159   0.405   0.053  0.00  0.00    +0.590 C 
ATOM     22  O   LIG    1       -4.294  -0.450   0.040  0.00  0.00    -0.450 OA
BRANCH  19  29
ATOM     23  C   LIG    1        2.476   3.913  -0.001  0.00  0.00    +0.110 C 
ATOM     24  C   LIG    1        1.170   3.160   0.007  0.00  0.00    -0.070 A 
ATOM     25  C   LIG    1        1.169   1.774   0.000  0.00  0.00    +0.040 A 
ATOM     26  C   LIG    1       -0.013   1.076   0.008  0.00  0.00    +0.080 A 
ATOM     27  C   LIG    1       -1.246   1.760   0.018  0.00  0.00    +0.100 A 
ATOM     28  N   LIG    1       -2.494   1.250   0.032  0.00  0.00    -0.460 NA
ATOM     29  C   LIG    1       -3.483   2.075   0.045  0.00  0.00    +0.340 A 
ATOM     30  S   LIG    1       -2.896   3.733   0.048  0.00  0.00    +0.060 S 
ATOM     31  C   LIG    1       -1.231   3.158   0.030  0.00  0.00    -0.170 A 
ATOM     32  C   LIG    1       -0.022   3.850   0.022  0.00  0.00    +0.060 A 
ENDBRANCH  19  29
ENDBRANCH   1  21
TORSDOF 4
