REMARK  Name = ZINCtV000002zjoQ.0
REMARK                            x       y       z     vdW  Elec       q    Type
REMARK                         _______ _______ _______ _____ _____    ______ ____
ROOT
ATOM      1  C   LIG    1       -0.879   2.116   0.079  0.00  0.00    +0.520 C 
ATOM      2  N   LIG    1        0.166   1.267   0.021  0.00  0.00    -0.670 N 
ATOM      3  H   LIG    1        0.012   0.311  -0.023  0.00  0.00    +0.420 HD
ATOM      4  O   LIG    1       -0.692   3.314   0.024  0.00  0.00    -0.490 OA
ENDROOT
BRANCH   2   5
ATOM      5  C   LIG    1        1.475   1.767   0.019  0.00  0.00    +0.160 A 
ATOM      6  C   LIG    1        1.745   3.010   0.571  0.00  0.00    +0.050 A 
ATOM      7  C   LIG    1        3.039   3.499   0.571  0.00  0.00    -0.010 A 
ATOM      8  C   LIG    1        4.064   2.755   0.013  0.00  0.00    +0.020 A 
ATOM      9  C   LIG    1        3.800   1.517  -0.543  0.00  0.00    +0.060 A 
ATOM     10 CL   LIG    1        3.378   5.053   1.267  0.00  0.00    -0.050 Cl
ATOM     11  C   LIG    1        2.507   1.018  -0.543  0.00  0.00    +0.050 A 
BRANCH  11  12
ATOM     12  O   LIG    1        2.246  -0.199  -1.090  0.00  0.00    -0.250 OA
BRANCH  12  13
ATOM     13  C   LIG    1        1.898  -0.247  -2.402  0.00  0.00    +0.110 A 
ATOM     14  C   LIG    1        1.709   0.928  -3.115  0.00  0.00    -0.060 A 
ATOM     15  C   LIG    1        1.361   0.877  -4.451  0.00  0.00    +0.050 A 
ATOM     16  C   LIG    1        1.189  -0.345  -5.075  0.00  0.00    -0.020 A 
ATOM     17  C   LIG    1        1.371  -1.518  -4.365  0.00  0.00    +0.050 A 
ATOM     18  C   LIG    1        1.725  -1.472  -3.031  0.00  0.00    -0.010 A 
ENDBRANCH  12  13
ENDBRANCH  11  12
ENDBRANCH   2   5
BRANCH   1  19
ATOM     19  C   LIG    1       -2.281   1.578   0.213  0.00  0.00    +0.220 C 
BRANCH  19  21
ATOM     20  C   LIG    1       -3.255   3.417  -1.026  0.00  0.00    +0.200 C 
ATOM     21  N   LIG    1       -3.233   2.696   0.254  0.00  0.00    -0.520 NA
BRANCH  21  22
ATOM     22  C   LIG    1       -4.577   2.230   0.619  0.00  0.00    +0.230 C 
BRANCH  22  23
ATOM     23  C   LIG    1       -5.464   3.418   0.891  0.00  0.00    -0.060 A 
ATOM     24  C   LIG    1       -5.553   3.935   2.170  0.00  0.00    +0.060 A 
ATOM     25  C   LIG    1       -6.362   5.028   2.420  0.00  0.00    +0.040 A 
ATOM     26  C   LIG    1       -7.091   5.597   1.392  0.00  0.00    -0.030 A 
ATOM     27  C   LIG    1       -7.006   5.076   0.112  0.00  0.00    -0.030 A 
ATOM     28 CL   LIG    1       -7.921   5.790  -1.179  0.00  0.00    -0.050 Cl
ATOM     29 CL   LIG    1       -8.113   6.965   1.707  0.00  0.00    -0.050 Cl
ATOM     30  C   LIG    1       -6.192   3.986  -0.137  0.00  0.00    +0.050 A 
ENDBRANCH  22  23
ENDBRANCH  21  22
ENDBRANCH  19  21
ENDBRANCH   1  19
TORSDOF 7
