REMARK  Name = ZINCnE000001Ohqk.1
REMARK                            x       y       z     vdW  Elec       q    Type
REMARK                         _______ _______ _______ _____ _____    ______ ____
ROOT
ATOM      1  N   LIG    1       -1.213  -2.000   0.724  0.00  0.00    -0.730 N 
ATOM      2  H   LIG    1       -0.483  -2.473   0.295  0.00  0.00    +0.400 HD
ATOM      3  C   LIG    1       -2.209  -2.690   1.314  0.00  0.00    +0.650 C 
ATOM      4  N   LIG    1       -2.191  -4.038   1.306  0.00  0.00    -0.680 NA
ATOM      5  O   LIG    1       -3.124  -2.098   1.852  0.00  0.00    -0.650 OA
ENDROOT
BRANCH   4   6
ATOM      6  C   LIG    1       -3.218  -4.750   1.914  0.00  0.00    +0.370 A 
ATOM      7  N   LIG    1       -3.297  -6.043   1.964  0.00  0.00    -0.570 NA
ATOM      8  C   LIG    1       -4.344  -6.555   2.584  0.00  0.00    +0.120 A 
ATOM      9  C   LIG    1       -5.190  -5.651   3.082  0.00  0.00    -0.240 A 
ATOM     10  S   LIG    1       -4.558  -4.049   2.712  0.00  0.00    +0.010 S 
BRANCH   8  11
ATOM     11  C   LIG    1       -4.566  -8.039   2.719  0.00  0.00    +0.060 C 
ATOM     12  C   LIG    1       -5.991  -8.411   3.163  0.00  0.00    +0.010 C 
ATOM     13  C   LIG    1       -5.345  -9.489   4.053  0.00  0.00    -0.000 C 
ATOM     14  C   LIG    1       -4.080  -8.615   4.060  0.00  0.00    +0.010 C 
ENDBRANCH   8  11
ENDBRANCH   4   6
BRANCH   1  15
ATOM     15  C   LIG    1       -1.233  -0.535   0.732  0.00  0.00    +0.240 C 
BRANCH  15  17
ATOM     16  C   LIG    1       -0.005  -0.506  -1.443  0.00  0.00    +0.070 C 
ATOM     17  C   LIG    1        0.002  -0.004   0.002  0.00  0.00    +0.160 C 
BRANCH  17  18
ATOM     18  C   LIG    1       -0.018   1.503   0.010  0.00  0.00    -0.110 A 
ATOM     19  C   LIG    1       -1.225   2.178   0.020  0.00  0.00    +0.020 A 
ATOM     20  C   LIG    1       -1.244   3.560   0.032  0.00  0.00    +0.000 A 
ATOM     21  C   LIG    1       -0.056   4.267   0.025  0.00  0.00    +0.000 A 
ATOM     22  C   LIG    1        1.151   3.592   0.010  0.00  0.00    +0.000 A 
ATOM     23  C   LIG    1        1.169   2.210   0.003  0.00  0.00    +0.030 A 
ENDBRANCH  17  18
BRANCH  17  24
ATOM     24  O   LIG    1        1.182  -0.468   0.662  0.00  0.00    -0.550 OA
ATOM     25  H   LIG    1        1.253  -0.187   1.584  0.00  0.00    +0.380 HD
ENDBRANCH  17  24
ENDBRANCH  15  17
ENDBRANCH   1  15
TORSDOF 6
