REMARK  Name = ZINCpe00000c9DJH.0
REMARK                            x       y       z     vdW  Elec       q    Type
REMARK                         _______ _______ _______ _____ _____    ______ ____
ROOT
ATOM      1  O   LIG    1        3.294   0.620  -2.360  0.00  0.00    -0.520 OA
ATOM      2  C   LIG    1        4.086   0.729  -1.448  0.00  0.00    +0.530 C 
ATOM      3  N   LIG    1        5.409   0.766  -1.706  0.00  0.00    -0.610 N 
ATOM      4  C   LIG    1        6.477   0.902  -0.699  0.00  0.00    +0.250 C 
ATOM      5  C   LIG    1        7.731   0.283  -1.369  0.00  0.00    +0.040 C 
ATOM      6  C   LIG    1        7.554   0.742  -2.841  0.00  0.00    +0.050 C 
ATOM      7  C   LIG    1        6.025   0.685  -3.039  0.00  0.00    +0.320 C 
ENDROOT
BRANCH   7   8
ATOM      8  C   LIG    1        5.570   1.846  -3.885  0.00  0.00    -0.020 A 
ATOM      9  C   LIG    1        5.521   1.892  -5.237  0.00  0.00    +0.150 A 
ATOM     10  N   LIG    1        5.050   3.120  -5.556  0.00  0.00    -0.290 N 
ATOM     11  N   LIG    1        4.842   3.768  -4.463  0.00  0.00    -0.080 NA
ATOM     12  N   LIG    1        5.142   3.035  -3.449  0.00  0.00    -0.250 NA
BRANCH  10  13
ATOM     13  C   LIG    1        4.824   3.627  -6.911  0.00  0.00    +0.340 C 
BRANCH  13  14
ATOM     14  C   LIG    1        3.379   4.115  -7.039  0.00  0.00    +0.200 C 
BRANCH  14  15
ATOM     15  O   LIG    1        3.159   4.610  -8.361  0.00  0.00    -0.570 OA
ATOM     16  H   LIG    1        2.261   4.937  -8.514  0.00  0.00    +0.390 HD
ENDBRANCH  14  15
ENDBRANCH  13  14
ENDBRANCH  10  13
ENDBRANCH   7   8
BRANCH   2  17
ATOM     17  C   LIG    1        3.593   0.824  -0.028  0.00  0.00    +0.150 C 
BRANCH  17  18
ATOM     18  C   LIG    1        2.087   0.758  -0.014  0.00  0.00    -0.240 A 
ATOM     19  C   LIG    1        1.316  -0.397  -0.013  0.00  0.00    +0.120 A 
ATOM     20  C   LIG    1        1.640  -1.768  -0.024  0.00  0.00    +0.030 A 
ATOM     21  C   LIG    1        0.637  -2.687  -0.019  0.00  0.00    +0.060 A 
ATOM     22  C   LIG    1       -0.700  -2.256  -0.004  0.00  0.00    -0.020 A 
ATOM     23  C   LIG    1       -0.993  -0.939   0.006  0.00  0.00    +0.280 A 
ATOM     24  N   LIG    1        0.002  -0.004   0.002  0.00  0.00    -0.270 N 
ATOM     25  N   LIG    1       -0.017   1.396   0.010  0.00  0.00    -0.320 NA
ATOM     26  C   LIG    1        1.221   1.839   0.000  0.00  0.00    +0.290 A 
ENDBRANCH  17  18
ENDBRANCH   2  17
TORSDOF 6
