REMARK  Name = ZINCrD0000074ly8.0
REMARK                            x       y       z     vdW  Elec       q    Type
REMARK                         _______ _______ _______ _____ _____    ______ ____
ROOT
ATOM      1  C   LIG    1       -0.014   1.208   0.009  0.00  0.00    +0.520 C 
ATOM      2  N   LIG    1        1.143   1.898   0.001  0.00  0.00    -0.690 N 
ATOM      3  H   LIG    1        1.130   2.868   0.007  0.00  0.00    +0.410 HD
ATOM      4  C   LIG    1        2.320   1.240  -0.013  0.00  0.00    +0.700 C 
ATOM      5  N   LIG    1        3.478   1.930  -0.021  0.00  0.00    -0.730 N 
ATOM      6  H   LIG    1        3.465   2.900  -0.015  0.00  0.00    +0.400 HD
ATOM      7  O   LIG    1        2.336   0.025  -0.020  0.00  0.00    -0.520 OA
ATOM      8  O   LIG    1        0.002  -0.004   0.002  0.00  0.00    -0.440 OA
ENDROOT
BRANCH   5   9
ATOM      9  C   LIG    1        4.756   1.214  -0.037  0.00  0.00    +0.260 C 
ATOM     10  C   LIG    1        5.154   0.848   1.395  0.00  0.00    +0.000 C 
ATOM     11  C   LIG    1        6.489   0.101   1.378  0.00  0.00    +0.020 C 
ATOM     12  C   LIG    1        7.566   0.997   0.763  0.00  0.00    +0.010 C 
ATOM     13  C   LIG    1        7.169   1.363  -0.669  0.00  0.00    +0.030 C 
ATOM     14  C   LIG    1        5.834   2.110  -0.652  0.00  0.00    -0.020 C 
ATOM     15  C   LIG    1        5.436   2.476  -2.083  0.00  0.00    +0.020 C 
ENDBRANCH   5   9
BRANCH   1  16
ATOM     16  C   LIG    1       -1.330   1.944   0.019  0.00  0.00    +0.270 C 
BRANCH  16  17
ATOM     17  O   LIG    1       -2.420   0.985   0.019  0.00  0.00    -0.320 OA
BRANCH  17  18
ATOM     18  C   LIG    1       -3.673   1.484   0.028  0.00  0.00    +0.560 C 
ATOM     19  O   LIG    1       -3.849   2.687   0.035  0.00  0.00    -0.480 OA
BRANCH  18  22
ATOM     20  C   LIG    1       -6.653   2.373   0.047  0.00  0.00    +0.150 C 
ATOM     21  C   LIG    1       -6.128   0.961   0.036  0.00  0.00    -0.050 A 
ATOM     22  C   LIG    1       -4.825   0.574   0.028  0.00  0.00    -0.030 A 
ATOM     23  O   LIG    1       -4.751  -0.774   0.015  0.00  0.00    -0.170 OA
ATOM     24  C   LIG    1       -5.981  -1.322   0.022  0.00  0.00    +0.080 A 
ATOM     25  C   LIG    1       -6.438  -2.635   0.016  0.00  0.00    +0.030 A 
ATOM     26  C   LIG    1       -7.793  -2.890   0.021  0.00  0.00    +0.070 A 
ATOM     27  C   LIG    1       -8.711  -1.849   0.031  0.00  0.00    +0.000 A 
ATOM     28  C   LIG    1       -8.285  -0.550   0.037  0.00  0.00    +0.080 A 
ATOM     29  C   LIG    1       -6.916  -0.270   0.033  0.00  0.00    -0.150 A 
ENDBRANCH  18  22
ENDBRANCH  17  18
ENDBRANCH  16  17
ENDBRANCH   1  16
TORSDOF 5
