REMARK  Name = ZINCpe000015sVlu.0
REMARK                            x       y       z     vdW  Elec       q    Type
REMARK                         _______ _______ _______ _____ _____    ______ ____
ROOT
ATOM      1  N   LIG    1        0.469   5.498   0.467  0.00  0.00    -0.710 N 
ATOM      2  H   LIG    1       -0.320   6.056   0.546  0.00  0.00    +0.400 HD
ATOM      3  C   LIG    1        0.340   4.174   0.253  0.00  0.00    +0.560 C 
ATOM      4  O   LIG    1        1.329   3.474   0.153  0.00  0.00    -0.510 OA
ENDROOT
BRANCH   3   5
ATOM      5  C   LIG    1       -1.004   3.572   0.138  0.00  0.00    -0.120 A 
ATOM      6  C   LIG    1       -2.141   4.345   0.378  0.00  0.00    +0.070 A 
ATOM      7  C   LIG    1       -3.393   3.776   0.276  0.00  0.00    +0.030 A 
ATOM      8  C   LIG    1       -3.528   2.442  -0.071  0.00  0.00    +0.060 A 
ATOM      9  C   LIG    1       -2.411   1.668  -0.317  0.00  0.00    +0.020 A 
ATOM     10  C   LIG    1       -1.144   2.224  -0.218  0.00  0.00    +0.190 A 
BRANCH  10  11
ATOM     11  N   LIG    1       -0.013   1.441  -0.466  0.00  0.00    -0.330 N 
ATOM     12  C   LIG    1        0.340   0.287   0.169  0.00  0.00    +0.210 A 
ATOM     13  C   LIG    1        1.494  -0.129  -0.392  0.00  0.00    +0.120 A 
ATOM     14  N   LIG    1        1.851   0.734  -1.344  0.00  0.00    -0.240 NA
ATOM     15  N   LIG    1        0.985   1.683  -1.423  0.00  0.00    -0.020 NA
ENDBRANCH  10  11
ENDBRANCH   3   5
BRANCH   1  17
ATOM     16  C   LIG    1        1.820   7.419   1.363  0.00  0.00    +0.270 C 
ATOM     17  C   LIG    1        1.802   6.095   0.581  0.00  0.00    +0.250 C 
ATOM     18  C   LIG    1        2.221   6.907  -0.656  0.00  0.00    +0.020 C 
ATOM     19  C   LIG    1        2.831   7.928   0.319  0.00  0.00    +0.180 C 
BRANCH  16  23
ATOM     20  C   LIG    1        5.061   7.199   5.179  0.00  0.00    +0.110 C 
ATOM     21  C   LIG    1        3.785   7.200   4.378  0.00  0.00    -0.230 A 
ATOM     22  C   LIG    1        3.687   7.355   3.037  0.00  0.00    +0.220 A 
ATOM     23  N   LIG    1        2.378   7.297   2.711  0.00  0.00    -0.360 N 
ATOM     24  N   LIG    1        1.648   7.105   3.891  0.00  0.00    -0.290 NA
ATOM     25  C   LIG    1        2.493   7.042   4.889  0.00  0.00    +0.230 A 
ENDBRANCH  16  23
BRANCH  19  26
ATOM     26  O   LIG    1        2.619   9.287  -0.069  0.00  0.00    -0.550 OA
ATOM     27  H   LIG    1        3.223   9.599  -0.757  0.00  0.00    +0.390 HD
ENDBRANCH  19  26
ENDBRANCH   1  17
TORSDOF 5
