REMARK  Name = ZINCrH000004t7vj.0
REMARK                            x       y       z     vdW  Elec       q    Type
REMARK                         _______ _______ _______ _____ _____    ______ ____
ROOT
ATOM      1  N   LIG    1        1.750  -1.729  -0.024  0.00  0.00    -0.660 N 
ATOM      2  H   LIG    1        1.111  -2.459  -0.022  0.00  0.00    +0.410 HD
ATOM      3  C   LIG    1        3.072  -1.990  -0.038  0.00  0.00    +0.710 C 
ATOM      4  N   LIG    1        3.506  -3.266  -0.049  0.00  0.00    -0.730 N 
ATOM      5  H   LIG    1        2.868  -3.996  -0.047  0.00  0.00    +0.400 HD
ATOM      6  O   LIG    1        3.872  -1.075  -0.041  0.00  0.00    -0.550 OA
ENDROOT
BRANCH   1  12
ATOM      7  C   LIG    1       -1.172  -0.880   0.008  0.00  0.00    +0.360 C 
ATOM      8  N   LIG    1        0.002  -0.004   0.002  0.00  0.00    -0.380 N 
ATOM      9  N   LIG    1       -0.017   1.396   0.010  0.00  0.00    -0.260 NA
ATOM     10  C   LIG    1        1.229   1.827   0.000  0.00  0.00    +0.160 A 
ATOM     11  C   LIG    1        2.080   0.704  -0.014  0.00  0.00    -0.070 A 
ATOM     12  C   LIG    1        1.300  -0.408  -0.013  0.00  0.00    +0.320 A 
BRANCH  10  13
ATOM     13  C   LIG    1        1.658   3.242   0.003  0.00  0.00    +0.050 A 
ATOM     14  C   LIG    1        0.837   4.324   0.011  0.00  0.00    -0.020 A 
ATOM     15  C   LIG    1        1.667   5.464   0.013  0.00  0.00    -0.070 A 
ATOM     16  C   LIG    1        2.940   5.024  -0.001  0.00  0.00    +0.190 A 
ATOM     17  O   LIG    1        2.931   3.681  -0.007  0.00  0.00    -0.160 OA
ENDBRANCH  10  13
ENDBRANCH   1  12
BRANCH   4  18
ATOM     18  C   LIG    1        4.944  -3.550  -0.064  0.00  0.00    +0.270 C 
ATOM     19  C   LIG    1        5.500  -3.573   1.374  0.00  0.00    +0.030 C 
ATOM     20  C   LIG    1        6.051  -5.003   1.568  0.00  0.00    +0.190 C 
ATOM     21  N   LIG    1        6.337  -5.483   0.192  0.00  0.00    -0.460 N 
ATOM     22  C   LIG    1        5.204  -4.966  -0.619  0.00  0.00    +0.190 C 
BRANCH  21  23
ATOM     23  C   LIG    1        6.388  -6.878   0.149  0.00  0.00    +0.110 A 
ATOM     24  C   LIG    1        5.507  -7.582  -0.661  0.00  0.00    -0.040 A 
ATOM     25  C   LIG    1        5.562  -8.962  -0.706  0.00  0.00    +0.050 A 
ATOM     26  C   LIG    1        6.487  -9.643   0.063  0.00  0.00    +0.000 A 
ATOM     27  C   LIG    1        7.364  -8.945   0.876  0.00  0.00    -0.010 A 
ATOM     28 CL   LIG    1        8.524  -9.805   1.840  0.00  0.00    -0.060 Cl
ATOM     29  C   LIG    1        7.317  -7.565   0.920  0.00  0.00    +0.010 A 
ENDBRANCH  21  23
ENDBRANCH   4  18
TORSDOF 4
