REMARK  Name = ZINCrH00000No4N7.0
REMARK                            x       y       z     vdW  Elec       q    Type
REMARK                         _______ _______ _______ _____ _____    ______ ____
ROOT
ATOM      1  C   LIG    1       -0.562   1.433  -3.660  0.00  0.00    +0.560 C 
ATOM      2  N   LIG    1        0.002   1.259  -2.449  0.00  0.00    -0.730 N 
ATOM      3  H   LIG    1        0.865   0.823  -2.374  0.00  0.00    +0.400 HD
ATOM      4  O   LIG    1       -1.645   1.980  -3.754  0.00  0.00    -0.530 OA
ENDROOT
BRANCH   1   8
ATOM      5  C   LIG    1        1.440   0.073  -7.150  0.00  0.00    +0.180 A 
ATOM      6  C   LIG    1        0.201   0.699  -7.260  0.00  0.00    +0.010 A 
ATOM      7  C   LIG    1       -0.450   1.140  -6.130  0.00  0.00    +0.100 A 
ATOM      8  C   LIG    1        0.133   0.960  -4.873  0.00  0.00    -0.150 A 
ATOM      9  C   LIG    1        1.380   0.337  -4.768  0.00  0.00    +0.070 A 
ATOM     10  C   LIG    1        2.024  -0.107  -5.900  0.00  0.00    -0.020 A 
BRANCH   5  12
ATOM     11  C   LIG    1        1.974   0.308  -9.451  0.00  0.00    +0.540 C 
ATOM     12  N   LIG    1        2.096  -0.373  -8.295  0.00  0.00    -0.670 N 
ATOM     13  H   LIG    1        2.642  -1.174  -8.260  0.00  0.00    +0.420 HD
ATOM     14  O   LIG    1        1.369   1.364  -9.474  0.00  0.00    -0.520 OA
BRANCH  11  16
ATOM     15  C   LIG    1        2.449   0.449 -11.827  0.00  0.00    +0.160 C 
ATOM     16  C   LIG    1        2.570  -0.224 -10.686  0.00  0.00    -0.090 C 
ENDBRANCH  11  16
ENDBRANCH   5  12
ENDBRANCH   1   8
BRANCH   2  17
ATOM     17  C   LIG    1       -0.689   1.728  -1.245  0.00  0.00    +0.260 C 
BRANCH  17  18
ATOM     18  C   LIG    1        0.160   1.409  -0.013  0.00  0.00    +0.110 C 
BRANCH  18  19
ATOM     19  C   LIG    1       -0.550   1.891   1.225  0.00  0.00    -0.170 A 
ATOM     20  C   LIG    1       -1.417   1.190   1.973  0.00  0.00    +0.100 A 
ATOM     21  N   LIG    1       -1.858   1.956   3.018  0.00  0.00    -0.580 N 
ATOM     22  H   LIG    1       -2.490   1.665   3.693  0.00  0.00    +0.420 HD
ATOM     23  C   LIG    1       -1.269   3.200   2.966  0.00  0.00    +0.060 A 
ATOM     24  C   LIG    1       -1.361   4.338   3.765  0.00  0.00    +0.090 A 
ATOM     25  C   LIG    1       -0.625   5.460   3.445  0.00  0.00    +0.010 A 
ATOM     26  C   LIG    1        0.207   5.467   2.333  0.00  0.00    +0.010 A 
ATOM     27  C   LIG    1        0.310   4.362   1.537  0.00  0.00    +0.050 A 
ATOM     28  F   LIG    1       -2.167   4.342   4.849  0.00  0.00    -0.140 F 
ATOM     29  C   LIG    1       -1.842  -0.230   1.701  0.00  0.00    +0.140 C 
ATOM     30  C   LIG    1       -0.421   3.212   1.845  0.00  0.00    -0.070 A 
ENDBRANCH  18  19
ENDBRANCH  17  18
ENDBRANCH   2  17
TORSDOF 6
