REMARK  Name = ZINCrD000000D1Nf.0
REMARK                            x       y       z     vdW  Elec       q    Type
REMARK                         _______ _______ _______ _____ _____    ______ ____
ROOT
ATOM      1  N   LIG    1        1.369   2.014  -0.000  0.00  0.00    -1.000 NA
ATOM      2  C   LIG    1       -0.019   1.528   0.010  0.00  0.00    +0.300 C 
ATOM      3  C   LIG    1        0.002  -0.004   0.002  0.00  0.00    +0.180 C 
ATOM      4  N   LIG    1        0.837  -0.485   1.111  0.00  0.00    -0.520 NA
ATOM      5  C   LIG    1        2.233  -0.058   0.950  0.00  0.00    +0.170 C 
ATOM      6  C   LIG    1        2.304   1.472   0.998  0.00  0.00    +0.300 C 
ENDROOT
BRANCH   1   8
ATOM      7  O   LIG    1        3.262   2.911  -1.240  0.00  0.00    -0.950 OA
ATOM      8  S   LIG    1        1.866   3.142  -1.106  0.00  0.00    +2.600 S 
ATOM      9  O   LIG    1        0.986   2.966  -2.207  0.00  0.00    -0.950 OA
BRANCH   8  10
ATOM     10  C   LIG    1        1.561   4.736  -0.295  0.00  0.00    -0.300 C 
BRANCH  10  11
ATOM     11  C   LIG    1        1.978   5.855  -1.214  0.00  0.00    -0.100 A 
ATOM     12  C   LIG    1        3.269   6.346  -1.164  0.00  0.00    +0.020 A 
ATOM     13  C   LIG    1        3.654   7.369  -2.010  0.00  0.00    +0.010 A 
ATOM     14  C   LIG    1        2.744   7.909  -2.900  0.00  0.00    +0.020 A 
ATOM     15  C   LIG    1        1.451   7.422  -2.946  0.00  0.00    +0.010 A 
ATOM     16  C   LIG    1        1.068   6.395  -2.104  0.00  0.00    +0.020 A 
ENDBRANCH  10  11
ENDBRANCH   8  10
ENDBRANCH   1   8
BRANCH   4  17
ATOM     17  C   LIG    1        0.746  -1.946   1.243  0.00  0.00    +0.230 C 
BRANCH  17  18
ATOM     18  C   LIG    1        1.791  -2.428   2.216  0.00  0.00    -0.040 A 
ATOM     19  C   LIG    1        2.969  -2.978   1.748  0.00  0.00    +0.010 A 
ATOM     20  C   LIG    1        3.929  -3.417   2.641  0.00  0.00    +0.040 A 
ATOM     21  C   LIG    1        3.707  -3.314   4.001  0.00  0.00    +0.020 A 
ATOM     22  C   LIG    1        2.526  -2.768   4.469  0.00  0.00    +0.070 A 
ATOM     23  C   LIG    1        1.568  -2.325   3.577  0.00  0.00    -0.160 A 
BRANCH  23  24
ATOM     24  C   LIG    1        0.281  -1.731   4.087  0.00  0.00    +0.510 C 
ATOM     25  F   LIG    1       -0.799  -2.490   3.624  0.00  0.00    -0.180 F 
ATOM     26  F   LIG    1        0.158  -0.416   3.624  0.00  0.00    -0.150 F 
ATOM     27  F   LIG    1        0.287  -1.734   5.486  0.00  0.00    -0.180 F 
ENDBRANCH  23  24
ENDBRANCH  17  18
ENDBRANCH   4  17
TORSDOF 6
