REMARK  Name = ZINCrD000000BhPZ.0
REMARK                            x       y       z     vdW  Elec       q    Type
REMARK                         _______ _______ _______ _____ _____    ______ ____
ROOT
ATOM      1  C   LIG    1        1.408   2.927   1.018  0.00  0.00    -0.030 C 
ATOM      2  C   LIG    1        2.731   3.304   1.688  0.00  0.00    +0.020 C 
ATOM      3  C   LIG    1        3.087   2.253   2.743  0.00  0.00    +0.020 C 
ATOM      4  C   LIG    1        1.994   2.220   3.815  0.00  0.00    +0.260 C 
ATOM      5  N   LIG    1        0.697   2.002   3.161  0.00  0.00    -0.600 N 
ATOM      6  C   LIG    1       -0.110   0.997   3.554  0.00  0.00    +0.560 C 
ATOM      7  O   LIG    1       -1.214   0.878   3.066  0.00  0.00    -0.530 OA
ATOM      8  C   LIG    1        0.295   2.901   2.071  0.00  0.00    +0.290 C 
ENDROOT
BRANCH   6   9
ATOM      9  C   LIG    1        0.359   0.020   4.601  0.00  0.00    -0.120 C 
ATOM     10  C   LIG    1       -0.703  -0.620   5.498  0.00  0.00    +0.090 C 
ATOM     11  C   LIG    1        0.240   0.443   6.067  0.00  0.00    +0.050 C 
BRANCH   9  12
ATOM     12  C   LIG    1        1.545  -0.827   4.216  0.00  0.00    -0.040 A 
ATOM     13  C   LIG    1        2.684  -0.819   4.999  0.00  0.00    +0.010 A 
ATOM     14  C   LIG    1        3.769  -1.599   4.648  0.00  0.00    +0.020 A 
ATOM     15  C   LIG    1        3.721  -2.379   3.508  0.00  0.00    +0.000 A 
ATOM     16  C   LIG    1        2.584  -2.382   2.721  0.00  0.00    +0.010 A 
ATOM     17  C   LIG    1        1.496  -1.606   3.075  0.00  0.00    +0.010 A 
ENDBRANCH   9  12
ENDBRANCH   6   9
BRANCH   1  18
ATOM     18  C   LIG    1        1.069   3.959  -0.059  0.00  0.00    +0.270 C 
BRANCH  18  21
ATOM     19  O   LIG    1        1.058   5.518  -2.260  0.00  0.00    -0.530 OA
ATOM     20  C   LIG    1        1.977   4.725  -2.187  0.00  0.00    +0.560 C 
ATOM     21  N   LIG    1        2.072   3.900  -1.125  0.00  0.00    -0.730 N 
ATOM     22  H   LIG    1        2.805   3.268  -1.067  0.00  0.00    +0.400 HD
BRANCH  20  23
ATOM     23  C   LIG    1        2.989   4.666  -3.262  0.00  0.00    -0.140 A 
ATOM     24  C   LIG    1        4.048   3.761  -3.179  0.00  0.00    +0.030 A 
ATOM     25  C   LIG    1        4.987   3.707  -4.188  0.00  0.00    +0.000 A 
ATOM     26  C   LIG    1        4.887   4.556  -5.276  0.00  0.00    +0.040 A 
ATOM     27  C   LIG    1        3.842   5.458  -5.363  0.00  0.00    +0.000 A 
ATOM     28  C   LIG    1        2.893   5.519  -4.363  0.00  0.00    +0.080 A 
ENDBRANCH  20  23
ENDBRANCH  18  21
ENDBRANCH   1  18
TORSDOF 5
