REMARK  Name = ZINCpk000000nlqT.0
REMARK                            x       y       z     vdW  Elec       q    Type
REMARK                         _______ _______ _______ _____ _____    ______ ____
ROOT
ATOM      1  N   LIG    1       -2.565  -2.847   0.688  0.00  0.00    -0.530 NA
ATOM      2  C   LIG    1       -3.781  -2.039   0.846  0.00  0.00    +0.180 C 
ATOM      3  C   LIG    1       -3.786  -0.919  -0.200  0.00  0.00    +0.300 C 
ATOM      4  N   LIG    1       -2.525  -0.171  -0.090  0.00  0.00    -0.610 N 
ATOM      5  C   LIG    1       -1.264  -0.928  -0.108  0.00  0.00    +0.290 C 
ATOM      6  C   LIG    1       -2.524   1.172   0.020  0.00  0.00    +0.590 C 
ATOM      7  O   LIG    1       -3.576   1.774   0.123  0.00  0.00    -0.520 OA
ATOM      8  C   LIG    1       -1.358  -2.048   0.940  0.00  0.00    +0.180 C 
ENDROOT
BRANCH   6   9
ATOM      9  C   LIG    1       -1.252   1.910   0.015  0.00  0.00    -0.260 A 
ATOM     10  C   LIG    1       -0.544   2.095  -1.171  0.00  0.00    +0.170 A 
ATOM     11  C   LIG    1        0.662   2.794  -1.136  0.00  0.00    -0.080 A 
ATOM     12  C   LIG    1        1.129   3.289   0.039  0.00  0.00    +0.330 A 
ATOM     13  N   LIG    1        0.444   3.118   1.194  0.00  0.00    -0.600 N 
ATOM     14  H   LIG    1        0.801   3.482   2.019  0.00  0.00    +0.420 HD
ATOM     15  C   LIG    1       -0.726   2.450   1.216  0.00  0.00    +0.530 A 
ATOM     16  O   LIG    1       -1.328   2.307   2.267  0.00  0.00    -0.530 OA
ENDBRANCH   6   9
BRANCH   1  17
ATOM     17  C   LIG    1       -2.603  -4.031   1.556  0.00  0.00    +0.330 C 
BRANCH  17  20
ATOM     18  C   LIG    1        0.419  -5.909   1.118  0.00  0.00    +0.190 A 
ATOM     19  N   LIG    1       -0.231  -4.941   1.718  0.00  0.00    -0.480 NA
ATOM     20  C   LIG    1       -1.469  -4.956   1.193  0.00  0.00    +0.180 A 
ATOM     21  N   LIG    1       -1.510  -5.918   0.321  0.00  0.00    -0.370 NA
ATOM     22  O   LIG    1       -0.434  -6.475   0.259  0.00  0.00    +0.080 OA
BRANCH  18  24
ATOM     23  C   LIG    1        2.035  -6.718   2.815  0.00  0.00    +0.070 C 
ATOM     24  C   LIG    1        1.853  -6.308   1.352  0.00  0.00    +0.030 C 
ATOM     25  C   LIG    1        2.769  -5.124   1.037  0.00  0.00    +0.070 C 
ATOM     26  C   LIG    1        2.210  -7.486   0.443  0.00  0.00    +0.070 C 
ENDBRANCH  18  24
ENDBRANCH  17  20
ENDBRANCH   1  17
TORSDOF 4
