REMARK  Name = ZINCrH000004jTgr.0
REMARK                            x       y       z     vdW  Elec       q    Type
REMARK                         _______ _______ _______ _____ _____    ______ ____
ROOT
ATOM      1  C   LIG    1        4.903   3.854  -0.458  0.00  0.00    +0.320 C 
ATOM      2  N   LIG    1        4.993   5.290  -0.180  0.00  0.00    -0.580 N 
ATOM      3  C   LIG    1        3.869   6.023  -0.054  0.00  0.00    +0.560 C 
ATOM      4  O   LIG    1        3.943   7.213   0.181  0.00  0.00    -0.530 OA
ENDROOT
BRANCH   3   5
ATOM      5  C   LIG    1        2.542   5.378  -0.202  0.00  0.00    +0.140 A 
ATOM      6  N   LIG    1        2.478   4.122  -0.599  0.00  0.00    -0.420 NA
ATOM      7  C   LIG    1        1.307   3.502  -0.746  0.00  0.00    +0.150 A 
ATOM      8  C   LIG    1        1.246   2.160  -1.169  0.00  0.00    -0.030 A 
ATOM      9  C   LIG    1        0.037   1.552  -1.310  0.00  0.00    +0.150 A 
ATOM     10  C   LIG    1       -1.148   2.237  -1.048  0.00  0.00    +0.040 A 
ATOM     11  C   LIG    1       -1.130   3.533  -0.630  0.00  0.00    +0.110 A 
ATOM     12  C   LIG    1        0.099   4.195  -0.474  0.00  0.00    -0.090 A 
ATOM     13  C   LIG    1        0.157   5.536  -0.050  0.00  0.00    +0.120 A 
ATOM     14  C   LIG    1        1.385   6.118   0.082  0.00  0.00    +0.040 A 
BRANCH   8  15
ATOM     15  N   LIG    1        2.491   1.415  -1.460  0.00  0.00    +0.030 N 
ATOM     16  O   LIG    1        3.563   1.994  -1.455  0.00  0.00    -0.120 OA
ATOM     17  O   LIG    1        2.444   0.223  -1.705  0.00  0.00    -0.180 OA
ENDBRANCH   8  15
ENDBRANCH   3   5
BRANCH   2  18
ATOM     18  C   LIG    1        6.304   5.929  -0.039  0.00  0.00    +0.280 C 
BRANCH  18  19
ATOM     19  C   LIG    1        6.741   5.878   1.426  0.00  0.00    +0.240 C 
BRANCH  19  20
ATOM     20  C   LIG    1        8.029   6.642   1.593  0.00  0.00    -0.100 A 
ATOM     21  C   LIG    1        9.232   6.049   1.255  0.00  0.00    +0.020 A 
ATOM     22  C   LIG    1       10.414   6.751   1.403  0.00  0.00    +0.050 A 
ATOM     23  C   LIG    1       10.394   8.042   1.899  0.00  0.00    -0.090 A 
ATOM     24  C   LIG    1        9.191   8.633   2.241  0.00  0.00    +0.050 A 
ATOM     25 BR   LIG    1       12.011   9.000   2.108  0.00  0.00    -0.050 Br
ATOM     26  C   LIG    1        8.009   7.932   2.088  0.00  0.00    +0.040 A 
ENDBRANCH  19  20
BRANCH  19  27
ATOM     27  O   LIG    1        6.939   4.519   1.818  0.00  0.00    -0.550 OA
ATOM     28  H   LIG    1        7.613   4.055   1.303  0.00  0.00    +0.370 HD
ENDBRANCH  19  27
ENDBRANCH  18  19
ENDBRANCH   2  18
TORSDOF 6
