REMARK  Name = ZINCrH000004oTam.0
REMARK                            x       y       z     vdW  Elec       q    Type
REMARK                         _______ _______ _______ _____ _____    ______ ____
ROOT
ATOM      1  C   LIG    1       -1.194   1.875   3.611  0.00  0.00    +0.050 C 
ENDROOT
BRANCH   1   2
ATOM      2  C   LIG    1       -0.374   1.312   2.479  0.00  0.00    +0.540 C 
ATOM      3  N   LIG    1       -0.721   1.570   1.202  0.00  0.00    -0.610 N 
ATOM      4  C   LIG    1       -1.874   2.383   0.767  0.00  0.00    +0.250 C 
ATOM      5  C   LIG    1       -2.199   1.882  -0.662  0.00  0.00    +0.040 C 
ATOM      6  C   LIG    1       -0.779   1.607  -1.226  0.00  0.00    +0.040 C 
ATOM      7  C   LIG    1       -0.013   1.086   0.008  0.00  0.00    +0.220 C 
ATOM      8  O   LIG    1        0.597   0.626   2.717  0.00  0.00    -0.530 OA
BRANCH   7   9
ATOM      9  C   LIG    1        1.419   1.625  -0.003  0.00  0.00    -0.010 C 
ATOM     10  C   LIG    1        1.387   3.155  -0.012  0.00  0.00    +0.010 C 
ATOM     11  C   LIG    1        2.819   3.695  -0.023  0.00  0.00    +0.000 C 
ATOM     12  C   LIG    1        3.544   3.192  -1.273  0.00  0.00    +0.000 C 
ATOM     13  C   LIG    1        3.576   1.663  -1.264  0.00  0.00    +0.000 C 
ATOM     14  C   LIG    1        2.144   1.123  -1.253  0.00  0.00    +0.010 C 
ENDBRANCH   7   9
ENDBRANCH   1   2
BRANCH   1  15
ATOM     15  C   LIG    1       -0.591   1.435   4.946  0.00  0.00    +0.330 C 
BRANCH  15  25
ATOM     16  C   LIG    1       -4.399   2.710   7.051  0.00  0.00    +0.060 C 
ATOM     17  C   LIG    1       -3.263   1.884   7.657  0.00  0.00    +0.230 C 
ATOM     18  O   LIG    1       -2.445   2.726   8.473  0.00  0.00    -0.300 OA
ATOM     19  C   LIG    1       -1.625   3.597   7.825  0.00  0.00    +0.080 A 
ATOM     20  C   LIG    1       -1.329   4.831   8.376  0.00  0.00    +0.030 A 
ATOM     21  C   LIG    1       -0.493   5.704   7.702  0.00  0.00    +0.030 A 
ATOM     22  C   LIG    1        0.047   5.347   6.480  0.00  0.00    +0.020 A 
ATOM     23  C   LIG    1       -0.245   4.115   5.923  0.00  0.00    +0.000 A 
ATOM     24  C   LIG    1       -1.077   3.235   6.596  0.00  0.00    +0.100 A 
ATOM     25  N   LIG    1       -1.388   1.983   6.046  0.00  0.00    -0.550 N 
ATOM     26  C   LIG    1       -2.431   1.288   6.551  0.00  0.00    +0.490 C 
ATOM     27  O   LIG    1       -2.696   0.188   6.114  0.00  0.00    -0.500 OA
ENDBRANCH  15  25
ENDBRANCH   1  15
TORSDOF 4
