REMARK  Name = ZINCtV000002xisS.0
REMARK                            x       y       z     vdW  Elec       q    Type
REMARK                         _______ _______ _______ _____ _____    ______ ____
ROOT
ATOM      1  C   LIG    1        1.052   3.120   0.203  0.00  0.00    -0.140 A 
ATOM      2  C   LIG    1        1.077   1.734   0.292  0.00  0.00    +0.130 A 
ATOM      3  C   LIG    1       -0.106   1.025   0.346  0.00  0.00    +0.020 A 
ATOM      4  C   LIG    1       -1.321   1.696   0.306  0.00  0.00    +0.230 A 
ATOM      5  C   LIG    1       -1.347   3.083   0.223  0.00  0.00    -0.230 A 
ATOM      6  C   LIG    1       -0.164   3.792   0.169  0.00  0.00    +0.150 A 
ENDROOT
BRANCH   5   7
ATOM      7  C   LIG    1       -2.665   3.811   0.186  0.00  0.00    +0.510 C 
ATOM      8  F   LIG    1       -3.384   3.534   1.354  0.00  0.00    -0.180 F 
ATOM      9  F   LIG    1       -3.401   3.388  -0.926  0.00  0.00    -0.170 F 
ATOM     10  F   LIG    1       -2.435   5.188   0.096  0.00  0.00    -0.170 F 
ENDBRANCH   5   7
BRANCH   4  11
ATOM     11  N   LIG    1       -2.522   0.976   0.356  0.00  0.00    -0.660 N 
ATOM     12  H   LIG    1       -3.327   1.397   0.695  0.00  0.00    +0.420 HD
ATOM     13  C   LIG    1       -2.558  -0.303  -0.068  0.00  0.00    +0.620 C 
ATOM     14  O   LIG    1       -1.534  -0.854  -0.426  0.00  0.00    -0.500 OA
BRANCH  13  15
ATOM     15  C   LIG    1       -3.839  -1.035  -0.097  0.00  0.00    -0.020 A 
ATOM     16  N   LIG    1       -5.018  -0.565   0.259  0.00  0.00    -0.250 NA
ATOM     17  N   LIG    1       -5.919  -1.468   0.107  0.00  0.00    -0.220 N 
ATOM     18  C   LIG    1       -5.359  -2.610  -0.371  0.00  0.00    +0.180 A 
ATOM     19  C   LIG    1       -4.035  -2.372  -0.520  0.00  0.00    +0.010 A 
BRANCH  17  20
ATOM     20  C   LIG    1       -7.281  -1.301   0.393  0.00  0.00    +0.130 A 
ATOM     21  C   LIG    1       -8.169  -2.347   0.184  0.00  0.00    +0.020 A 
ATOM     22  C   LIG    1       -9.510  -2.180   0.471  0.00  0.00    +0.040 A 
ATOM     23  C   LIG    1       -9.969  -0.970   0.956  0.00  0.00    +0.020 A 
ATOM     24  C   LIG    1       -9.088   0.076   1.160  0.00  0.00    +0.040 A 
ATOM     25  C   LIG    1       -7.745  -0.086   0.879  0.00  0.00    +0.030 A 
ENDBRANCH  17  20
ENDBRANCH  13  15
ENDBRANCH   4  11
BRANCH   1  26
ATOM     26  S   LIG    1        2.561   4.027   0.134  0.00  0.00    -0.130 S 
BRANCH  26  27
ATOM     27  C   LIG    1        2.976   3.995  -1.631  0.00  0.00    +0.020 C 
ATOM     28  C   LIG    1        3.375   2.574  -2.036  0.00  0.00    +0.050 C 
BRANCH  27  30
ATOM     29  C   LIG    1        3.704   6.385  -1.611  0.00  0.00    +0.030 C 
ATOM     30  C   LIG    1        4.143   4.948  -1.898  0.00  0.00    +0.050 C 
ENDBRANCH  27  30
ENDBRANCH  26  27
ENDBRANCH   1  26
TORSDOF 7
