REMARK  Name = ZINCrD0000074eH9.0
REMARK                            x       y       z     vdW  Elec       q    Type
REMARK                         _______ _______ _______ _____ _____    ______ ____
ROOT
ATOM      1  N   LIG    1       -4.872   1.617   0.034  0.00  0.00    -0.620 N 
ATOM      2  H   LIG    1       -5.037   0.661   0.029  0.00  0.00    +0.430 HD
ATOM      3  C   LIG    1       -3.608   2.083   0.030  0.00  0.00    +0.510 C 
ATOM      4  O   LIG    1       -3.402   3.279   0.036  0.00  0.00    -0.500 OA
ENDROOT
BRANCH   1   8
ATOM      5  C   LIG    1       -8.078   3.141   0.057  0.00  0.00    +0.060 A 
ATOM      6  C   LIG    1       -7.552   4.367   0.061  0.00  0.00    -0.120 A 
ATOM      7  S   LIG    1       -5.798   4.209   0.052  0.00  0.00    +0.250 S 
ATOM      8  C   LIG    1       -5.941   2.506   0.044  0.00  0.00    +0.230 A 
ATOM      9  N   LIG    1       -7.191   2.163   0.043  0.00  0.00    -0.500 NA
BRANCH   5  10
ATOM     10  C   LIG    1       -9.565   2.892   0.063  0.00  0.00    +0.320 C 
BRANCH  10  16
ATOM     11  C   LIG    1      -10.002   4.902  -4.405  0.00  0.00    +0.020 C 
ATOM     12  C   LIG    1      -10.348   3.695  -3.532  0.00  0.00    -0.010 C 
ATOM     13  C   LIG    1       -9.799   2.421  -4.181  0.00  0.00    +0.000 C 
ATOM     14  C   LIG    1      -10.098   1.225  -3.272  0.00  0.00    +0.020 C 
ATOM     15  C   LIG    1       -9.476   1.470  -1.895  0.00  0.00    +0.170 C 
ATOM     16  N   LIG    1      -10.034   2.699  -1.316  0.00  0.00    -0.520 NA
ATOM     17  C   LIG    1       -9.719   3.868  -2.147  0.00  0.00    +0.170 C 
ENDBRANCH  10  16
ENDBRANCH   5  10
ENDBRANCH   1   8
BRANCH   3  18
ATOM     18  C   LIG    1       -2.449   1.120   0.020  0.00  0.00    +0.330 C 
BRANCH  18  19
ATOM     19  N   LIG    1       -1.191   1.869   0.018  0.00  0.00    -0.720 N 
ATOM     20  H   LIG    1       -1.204   2.839   0.023  0.00  0.00    +0.410 HD
ATOM     21  C   LIG    1       -0.014   1.211   0.009  0.00  0.00    +0.570 C 
ATOM     22  O   LIG    1        0.002  -0.004   0.002  0.00  0.00    -0.530 OA
BRANCH  21  23
ATOM     23  C   LIG    1        1.255   1.968   0.001  0.00  0.00    -0.140 A 
ATOM     24  C   LIG    1        1.239   3.364   0.003  0.00  0.00    +0.070 A 
ATOM     25  C   LIG    1        2.427   4.064   0.001  0.00  0.00    +0.020 A 
ATOM     26  C   LIG    1        3.635   3.385  -0.014  0.00  0.00    -0.010 A 
ATOM     27  C   LIG    1        3.657   2.000  -0.022  0.00  0.00    +0.020 A 
ATOM     28 CL   LIG    1        5.126   4.273  -0.024  0.00  0.00    -0.060 Cl
ATOM     29  C   LIG    1        2.475   1.289  -0.015  0.00  0.00    +0.110 A 
ENDBRANCH  21  23
ENDBRANCH  18  19
ENDBRANCH   3  18
TORSDOF 6
