REMARK  Name = ZINCpk000000n3b4.0
REMARK                            x       y       z     vdW  Elec       q    Type
REMARK                         _______ _______ _______ _____ _____    ______ ____
ROOT
ATOM      1  C   LIG    1        1.669  -6.902  -1.196  0.00  0.00    +0.520 C 
ATOM      2  N   LIG    1        2.715  -6.203  -1.681  0.00  0.00    -0.730 N 
ATOM      3  H   LIG    1        3.548  -6.655  -1.884  0.00  0.00    +0.400 HD
ATOM      4  O   LIG    1        0.627  -6.336  -0.943  0.00  0.00    -0.530 OA
ENDROOT
BRANCH   1   9
ATOM      5  C   LIG    1        0.395 -12.133  -1.903  0.00  0.00    +0.530 C 
ATOM      6  N   LIG    1        1.075 -11.088  -1.389  0.00  0.00    -0.610 N 
ATOM      7  C   LIG    1        0.620 -10.434  -0.154  0.00  0.00    +0.280 C 
ATOM      8  C   LIG    1        0.477  -8.931  -0.417  0.00  0.00    +0.060 C 
ATOM      9  C   LIG    1        1.796  -8.386  -0.968  0.00  0.00    -0.010 C 
ATOM     10  C   LIG    1        2.122  -9.079  -2.293  0.00  0.00    +0.030 C 
ATOM     11  C   LIG    1        2.284 -10.583  -2.052  0.00  0.00    +0.280 C 
ATOM     12  O   LIG    1       -0.548 -12.599  -1.299  0.00  0.00    -0.530 OA
BRANCH   5  14
ATOM     13  C   LIG    1       -0.150 -13.855  -3.602  0.00  0.00    +0.050 C 
ATOM     14  C   LIG    1        0.806 -12.721  -3.228  0.00  0.00    -0.090 C 
ATOM     15  C   LIG    1        2.231 -13.269  -3.122  0.00  0.00    +0.040 C 
ATOM     16  C   LIG    1        0.757 -11.635  -4.305  0.00  0.00    +0.040 C 
ENDBRANCH   5  14
ENDBRANCH   1   9
BRANCH   2  17
ATOM     17  C   LIG    1        2.591  -4.760  -1.902  0.00  0.00    +0.270 C 
BRANCH  17  18
ATOM     18  C   LIG    1        3.910  -4.214  -2.453  0.00  0.00    +0.270 C 
BRANCH  18  19
ATOM     19  N   LIG    1        3.787  -2.771  -2.674  0.00  0.00    -0.720 N 
ATOM     20  H   LIG    1        2.954  -2.319  -2.472  0.00  0.00    +0.410 HD
ATOM     21  C   LIG    1        4.833  -2.072  -3.159  0.00  0.00    +0.610 C 
ATOM     22  O   LIG    1        5.879  -2.640  -3.413  0.00  0.00    -0.520 OA
BRANCH  21  23
ATOM     23  C   LIG    1        4.710  -0.627  -3.381  0.00  0.00    -0.090 A 
ATOM     24  C   LIG    1        5.685   0.196  -3.865  0.00  0.00    +0.050 A 
ATOM     25  C   LIG    1        5.137   1.487  -3.912  0.00  0.00    -0.070 A 
ATOM     26  C   LIG    1        3.866   1.396  -3.461  0.00  0.00    +0.210 A 
ATOM     27  O   LIG    1        3.613   0.120  -3.142  0.00  0.00    -0.170 OA
ENDBRANCH  21  23
ENDBRANCH  18  19
ENDBRANCH  17  18
ENDBRANCH   2  17
TORSDOF 6
