REMARK  Name = ZINCqH00000035sh.0
REMARK                            x       y       z     vdW  Elec       q    Type
REMARK                         _______ _______ _______ _____ _____    ______ ____
ROOT
ATOM      1  C   LIG    1        1.764  -0.613  -0.018  0.00  0.00    -0.080 A 
ATOM      2  C   LIG    1        0.595   0.132   0.128  0.00  0.00    +0.050 A 
ATOM      3  C   LIG    1        0.581   1.468  -0.219  0.00  0.00    +0.040 A 
ATOM      4  C   LIG    1        1.722   2.078  -0.713  0.00  0.00    +0.040 A 
ATOM      5  C   LIG    1        2.890   1.358  -0.864  0.00  0.00    +0.050 A 
ATOM      6  C   LIG    1        2.926   0.007  -0.520  0.00  0.00    +0.020 A 
ENDROOT
BRANCH   6   7
ATOM      7  C   LIG    1        4.171  -0.767  -0.679  0.00  0.00    +0.220 A 
ATOM      8  N   LIG    1        4.294  -2.063  -0.502  0.00  0.00    -0.430 NA
ATOM      9  C   LIG    1        5.562  -2.413  -0.734  0.00  0.00    +0.180 A 
ATOM     10  C   LIG    1        6.249  -1.285  -1.067  0.00  0.00    +0.000 A 
ATOM     11  O   LIG    1        5.367  -0.263  -1.035  0.00  0.00    -0.190 OA
BRANCH  10  12
ATOM     12  C   LIG    1        7.684  -1.197  -1.406  0.00  0.00    -0.020 A 
ATOM     13  C   LIG    1        8.478  -2.346  -1.399  0.00  0.00    +0.040 A 
ATOM     14  C   LIG    1        9.816  -2.258  -1.721  0.00  0.00    +0.010 A 
ATOM     15  C   LIG    1       10.374  -1.032  -2.040  0.00  0.00    -0.070 A 
ATOM     16  C   LIG    1        9.595   0.111  -2.044  0.00  0.00    +0.010 A 
ATOM     17  C   LIG    1       11.839  -0.943  -2.385  0.00  0.00    +0.090 C 
ATOM     18  C   LIG    1        8.254   0.036  -1.729  0.00  0.00    +0.040 A 
ENDBRANCH  10  12
ENDBRANCH   6   7
BRANCH   1  20
ATOM     19  N   LIG    1        0.943  -2.906  -0.249  0.00  0.00    -0.600 N 
ATOM     20  C   LIG    1        1.786  -2.042   0.352  0.00  0.00    +0.570 C 
ATOM     21  O   LIG    1        2.563  -2.440   1.197  0.00  0.00    -0.500 OA
BRANCH  19  23
ATOM     22  C   LIG    1        0.867  -2.514  -2.662  0.00  0.00    +0.010 C 
ATOM     23  C   LIG    1        0.087  -2.450  -1.347  0.00  0.00    +0.270 C 
ENDBRANCH  19  23
BRANCH  19  24
ATOM     24  C   LIG    1        0.883  -4.300   0.197  0.00  0.00    +0.300 C 
BRANCH  24  25
ATOM     25  C   LIG    1       -0.169  -4.439   1.299  0.00  0.00    +0.170 C 
BRANCH  25  26
ATOM     26  O   LIG    1       -1.463  -4.158   0.761  0.00  0.00    -0.570 OA
ATOM     27  H   LIG    1       -2.180  -4.226   1.406  0.00  0.00    +0.380 HD
ENDBRANCH  25  26
ENDBRANCH  24  25
ENDBRANCH  19  24
ENDBRANCH   1  20
TORSDOF 7
