REMARK  Name = ZINCqH0000050lpi.0
REMARK                            x       y       z     vdW  Elec       q    Type
REMARK                         _______ _______ _______ _____ _____    ______ ____
ROOT
ATOM      1  C   LIG    1       -2.524   1.026   0.020  0.00  0.00    +0.040 C 
ATOM      2  C   LIG    1       -3.334   1.413  -1.220  0.00  0.00    +0.050 C 
ATOM      3  C   LIG    1       -4.689   0.702  -1.181  0.00  0.00    +0.200 C 
ATOM      4  N   LIG    1       -5.411   1.088   0.038  0.00  0.00    -0.480 N 
ATOM      5  C   LIG    1       -4.674   0.683   1.242  0.00  0.00    +0.190 C 
ATOM      6  C   LIG    1       -3.319   1.394   1.275  0.00  0.00    +0.050 C 
ENDROOT
BRANCH   1  11
ATOM      7  C   LIG    1        2.389   3.982   0.000  0.00  0.00    +0.130 C 
ATOM      8  C   LIG    1        1.111   3.182   0.008  0.00  0.00    +0.120 A 
ATOM      9  C   LIG    1        1.169   1.802   0.001  0.00  0.00    -0.030 A 
ATOM     10  C   LIG    1       -0.013   1.076   0.008  0.00  0.00    +0.060 A 
ATOM     11  C   LIG    1       -1.213   1.769   0.017  0.00  0.00    -0.140 A 
ATOM     12  C   LIG    1       -1.192   3.151   0.030  0.00  0.00    +0.260 A 
ATOM     13  N   LIG    1       -0.050   3.809   0.022  0.00  0.00    -0.480 NA
ENDBRANCH   1  11
BRANCH   4  14
ATOM     14  C   LIG    1       -6.704   0.560   0.042  0.00  0.00    +0.120 A 
ATOM     15  C   LIG    1       -7.577   0.821  -1.011  0.00  0.00    +0.030 A 
ATOM     16  C   LIG    1       -8.850   0.276  -0.962  0.00  0.00    +0.100 A 
ATOM     17  C   LIG    1       -9.209  -0.503   0.122  0.00  0.00    -0.460 A 
ATOM     18  N   LIG    1       -8.359  -0.732   1.104  0.00  0.00    -0.360 NA
ATOM     19  C   LIG    1       -7.137  -0.237   1.094  0.00  0.00    +0.200 A 
BRANCH  17  20
ATOM     20  S   LIG    1      -10.826  -1.200   0.193  0.00  0.00    +2.500 S 
ATOM     21  O   LIG    1      -11.621  -0.321  -0.591  0.00  0.00    -0.930 OA
ATOM     22  O   LIG    1      -11.074  -1.369   1.582  0.00  0.00    -0.910 OA
BRANCH  20  23
ATOM     23  C   LIG    1      -10.661  -2.811  -0.625  0.00  0.00    -0.530 C 
ATOM     24  C   LIG    1      -10.190  -2.604  -2.066  0.00  0.00    +0.090 C 
ATOM     25  C   LIG    1      -12.015  -3.522  -0.627  0.00  0.00    +0.100 C 
ATOM     26  C   LIG    1       -9.638  -3.663   0.129  0.00  0.00    +0.100 C 
ENDBRANCH  20  23
ENDBRANCH  17  20
ENDBRANCH   4  14
TORSDOF 4
