REMARK  Name = ZINCpe000000Yxc2.0
REMARK                            x       y       z     vdW  Elec       q    Type
REMARK                         _______ _______ _______ _____ _____    ______ ____
ROOT
ATOM      1  N   LIG    1       -2.012   1.308  -3.707  0.00  0.00    -0.540 NA
ATOM      2  C   LIG    1       -0.677   1.914  -3.606  0.00  0.00    +0.190 C 
ATOM      3  C   LIG    1        0.059   1.323  -2.401  0.00  0.00    +0.190 C 
ATOM      4  N   LIG    1       -0.723   1.572  -1.182  0.00  0.00    -0.520 NA
ATOM      5  C   LIG    1       -2.058   0.966  -1.283  0.00  0.00    +0.190 C 
ATOM      6  C   LIG    1       -2.794   1.557  -2.488  0.00  0.00    +0.180 C 
ENDROOT
BRANCH   1   7
ATOM      7  C   LIG    1       -2.723   1.794  -4.897  0.00  0.00    +0.210 C 
BRANCH   7   8
ATOM      8  C   LIG    1       -3.992   0.967  -5.107  0.00  0.00    +0.080 C 
BRANCH   8  11
ATOM      9  N   LIG    1       -5.874   0.883  -6.710  0.00  0.00    -0.630 N 
ATOM     10  H   LIG    1       -6.236   0.142  -6.198  0.00  0.00    +0.420 HD
ATOM     11  C   LIG    1       -4.721   1.466  -6.328  0.00  0.00    +0.510 C 
ATOM     12  O   LIG    1       -4.269   2.393  -6.967  0.00  0.00    -0.500 OA
BRANCH   9  14
ATOM     13  C   LIG    1       -7.719   0.818  -8.309  0.00  0.00    -0.120 A 
ATOM     14  C   LIG    1       -6.546   1.343  -7.834  0.00  0.00    +0.060 A 
ATOM     15  S   LIG    1       -6.020   2.632  -8.817  0.00  0.00    +0.320 S 
ATOM     16  C   LIG    1       -7.400   2.479  -9.889  0.00  0.00    -0.110 A 
ATOM     17  C   LIG    1       -8.196   1.495  -9.495  0.00  0.00    +0.080 A 
BRANCH  13  19
ATOM     18  N   LIG    1       -8.943  -1.152  -7.208  0.00  0.00    -0.420 NA
ATOM     19  C   LIG    1       -8.402  -0.280  -7.695  0.00  0.00    +0.270 C 
ENDBRANCH  13  19
ENDBRANCH   9  14
ENDBRANCH   8  11
ENDBRANCH   7   8
ENDBRANCH   1   7
BRANCH   4  20
ATOM     20  C   LIG    1       -0.013   1.086   0.008  0.00  0.00    +0.220 C 
BRANCH  20  21
ATOM     21  C   LIG    1       -0.718   1.572   1.248  0.00  0.00    +0.520 C 
ATOM     22  N   LIG    1       -0.242   1.246   2.466  0.00  0.00    -0.710 N 
ATOM     23  H   LIG    1        0.555   0.699   2.544  0.00  0.00    +0.400 HD
ATOM     24  O   LIG    1       -1.714   2.256   1.150  0.00  0.00    -0.520 OA
BRANCH  22  25
ATOM     25  C   LIG    1       -0.927   1.718   3.671  0.00  0.00    +0.220 C 
ATOM     26  C   LIG    1       -0.061   2.264   4.809  0.00  0.00    +0.010 C 
ATOM     27  C   LIG    1       -0.747   0.902   4.952  0.00  0.00    +0.010 C 
ENDBRANCH  22  25
ENDBRANCH  20  21
ENDBRANCH   4  20
TORSDOF 8
