REMARK  Name = ZINCkj000005g1oi.0
REMARK                            x       y       z     vdW  Elec       q    Type
REMARK                         _______ _______ _______ _____ _____    ______ ____
ROOT
ATOM      1  N   LIG    1       -0.600   0.426  -1.939  0.00  0.00    -0.540 NA
ATOM      2  C   LIG    1       -1.141   1.231  -3.043  0.00  0.00    +0.170 C 
ATOM      3  C   LIG    1       -1.405   2.657  -2.548  0.00  0.00    +0.270 C 
ATOM      4  N   LIG    1       -0.169   3.179  -1.946  0.00  0.00    -0.630 N 
ATOM      5  C   LIG    1        0.508   2.362  -0.927  0.00  0.00    +0.310 C 
ATOM      6  C   LIG    1        0.330   4.375  -2.317  0.00  0.00    +0.710 C 
ATOM      7  N   LIG    1       -0.247   5.063  -3.321  0.00  0.00    -0.750 N 
ATOM      8  H   LIG    1       -1.063   4.734  -3.729  0.00  0.00    +0.400 HD
ATOM      9  O   LIG    1        1.301   4.832  -1.745  0.00  0.00    -0.580 OA
ATOM     10  C   LIG    1        0.697   0.947  -1.486  0.00  0.00    +0.170 C 
ENDROOT
BRANCH   1  12
ATOM     11  C   LIG    1       -1.894  -1.562  -2.548  0.00  0.00    +0.030 C 
ATOM     12  C   LIG    1       -0.493  -0.988  -2.322  0.00  0.00    +0.160 C 
ENDBRANCH   1  12
BRANCH   7  13
ATOM     13  C   LIG    1        0.358   6.310  -3.797  0.00  0.00    +0.280 C 
ATOM     14  C   LIG    1        1.438   5.990  -4.833  0.00  0.00    +0.040 C 
BRANCH  13  15
ATOM     15  C   LIG    1       -0.719   7.188  -4.438  0.00  0.00    -0.090 C 
ATOM     16  C   LIG    1       -1.799   7.508  -3.402  0.00  0.00    +0.070 C 
ATOM     17  C   LIG    1       -1.348   6.443  -5.618  0.00  0.00    +0.050 C 
BRANCH  15  18
ATOM     18  C   LIG    1       -0.087   8.489  -4.935  0.00  0.00    +0.270 C 
BRANCH  18  19
ATOM     19  N   LIG    1       -1.113   9.314  -5.586  0.00  0.00    -0.390 N 
ATOM     20  C   LIG    1       -0.476  10.213  -6.557  0.00  0.00    +0.310 C 
ATOM     21  C   LIG    1       -1.818  10.110  -4.572  0.00  0.00    +0.310 C 
ATOM     22  H   LIG    1       -1.772   8.717  -6.063  0.00  0.00    +0.420 HD
ENDBRANCH  18  19
ENDBRANCH  15  18
ENDBRANCH  13  15
ENDBRANCH   7  13
TORSDOF 5
