REMARK  Name = ZINCqH0000031Gqs.1
REMARK                            x       y       z     vdW  Elec       q    Type
REMARK                         _______ _______ _______ _____ _____    ______ ____
ROOT
ATOM      1  N   LIG    1        4.044   0.568  -1.427  0.00  0.00    -0.680 NA
ATOM      2  H   LIG    1        3.558   1.264  -1.971  0.00  0.00    +0.340 HD
ENDROOT
BRANCH   1   3
ATOM      3  C   LIG    1        5.497   0.779  -1.479  0.00  0.00    +0.220 C 
BRANCH   3   7
ATOM      4  C   LIG    1        6.789   0.801  -5.553  0.00  0.00    +0.140 A 
ATOM      5  C   LIG    1        6.404   1.986  -4.939  0.00  0.00    +0.010 A 
ATOM      6  C   LIG    1        5.987   1.975  -3.622  0.00  0.00    +0.030 A 
ATOM      7  C   LIG    1        5.952   0.787  -2.915  0.00  0.00    -0.100 A 
ATOM      8  C   LIG    1        6.340  -0.394  -3.523  0.00  0.00    +0.050 A 
ATOM      9  C   LIG    1        6.753  -0.391  -4.840  0.00  0.00    -0.020 A 
BRANCH   4  12
ATOM     10  C   LIG    1        8.230   1.933  -8.840  0.00  0.00    +0.110 C 
ATOM     11  C   LIG    1        7.878   1.873  -7.376  0.00  0.00    +0.510 C 
ATOM     12  N   LIG    1        7.212   0.808  -6.886  0.00  0.00    -0.680 N 
ATOM     13  H   LIG    1        7.027   0.047  -7.458  0.00  0.00    +0.410 HD
ATOM     14  O   LIG    1        8.194   2.782  -6.638  0.00  0.00    -0.530 OA
ENDBRANCH   4  12
ENDBRANCH   3   7
ENDBRANCH   1   3
BRANCH   1  15
ATOM     15  C   LIG    1        3.564   0.555  -0.039  0.00  0.00    +0.260 C 
BRANCH  15  16
ATOM     16  C   LIG    1        2.072   0.336  -0.025  0.00  0.00    -0.230 A 
ATOM     17  C   LIG    1        1.126   1.303  -0.063  0.00  0.00    +0.090 A 
ATOM     18  N   LIG    1       -0.082   0.696  -0.035  0.00  0.00    -0.320 N 
ATOM     19  N   LIG    1        0.131  -0.687   0.022  0.00  0.00    -0.290 NA
ATOM     20  C   LIG    1        1.374   2.788  -0.126  0.00  0.00    +0.140 C 
ATOM     21  C   LIG    1        1.422  -0.902   0.028  0.00  0.00    +0.100 A 
ATOM     22  C   LIG    1        2.093  -2.250   0.082  0.00  0.00    +0.160 C 
BRANCH  18  23
ATOM     23  C   LIG    1       -1.328   1.338  -0.064  0.00  0.00    +0.150 A 
ATOM     24  C   LIG    1       -1.498   2.556   0.580  0.00  0.00    +0.000 A 
ATOM     25  C   LIG    1       -2.725   3.189   0.544  0.00  0.00    +0.030 A 
ATOM     26  C   LIG    1       -3.787   2.605  -0.121  0.00  0.00    +0.010 A 
ATOM     27  C   LIG    1       -3.623   1.389  -0.759  0.00  0.00    +0.030 A 
ATOM     28  C   LIG    1       -2.396   0.754  -0.732  0.00  0.00    +0.020 A 
ENDBRANCH  18  23
ENDBRANCH  15  16
ENDBRANCH   1  15
TORSDOF 6
