REMARK  Name = ZINCpe000015nweH.0
REMARK                            x       y       z     vdW  Elec       q    Type
REMARK                         _______ _______ _______ _____ _____    ______ ____
ROOT
ATOM      1  C   LIG    1        1.500  -0.899  -0.114  0.00  0.00    +0.320 C 
ATOM      2  C   LIG    1        2.826  -0.351  -0.644  0.00  0.00    +0.230 C 
ATOM      3  C   LIG    1        3.199   0.898   0.163  0.00  0.00    +0.030 C 
ATOM      4  C   LIG    1        2.187   2.001  -0.157  0.00  0.00    +0.090 C 
ATOM      5  C   LIG    1        0.790   1.462  -0.043  0.00  0.00    +0.510 C 
ATOM      6  O   LIG    1       -0.124   2.252   0.053  0.00  0.00    -0.530 OA
ATOM      7  N   LIG    1        0.501   0.160  -0.047  0.00  0.00    -0.580 N 
ENDROOT
BRANCH   1  13
ATOM      8  C   LIG    1        0.920  -0.647  -3.149  0.00  0.00    +0.340 C 
ATOM      9  N   LIG    1        0.761  -1.866  -2.352  0.00  0.00    -0.360 N 
ATOM     10  N   LIG    1        0.324  -3.110  -2.827  0.00  0.00    -0.280 NA
ATOM     11  C   LIG    1        0.312  -3.949  -1.823  0.00  0.00    +0.240 A 
ATOM     12  C   LIG    1        0.745  -3.269  -0.680  0.00  0.00    -0.100 A 
ATOM     13  C   LIG    1        1.010  -1.989  -1.032  0.00  0.00    +0.070 A 
ENDBRANCH   1  13
BRANCH   2  14
ATOM     14  N   LIG    1        3.873  -1.365  -0.493  0.00  0.00    -0.700 N 
ATOM     15  H   LIG    1        3.789  -2.051   0.188  0.00  0.00    +0.410 HD
ATOM     16  C   LIG    1        4.952  -1.345  -1.300  0.00  0.00    +0.590 C 
ATOM     17  O   LIG    1        5.057  -0.486  -2.153  0.00  0.00    -0.520 OA
BRANCH  16  18
ATOM     18  C   LIG    1        6.010  -2.370  -1.147  0.00  0.00    +0.020 A 
ATOM     19  C   LIG    1        7.125  -2.354  -1.984  0.00  0.00    +0.290 A 
ATOM     20  N   LIG    1        8.069  -3.268  -1.840  0.00  0.00    -0.440 NA
ATOM     21  C   LIG    1        7.952  -4.200  -0.911  0.00  0.00    +0.260 A 
ATOM     22  C   LIG    1        6.841  -4.221  -0.080  0.00  0.00    +0.230 A 
ATOM     23  N   LIG    1        5.897  -3.311  -0.214  0.00  0.00    -0.410 NA
ENDBRANCH  16  18
ENDBRANCH   2  14
BRANCH   7  24
ATOM     24  C   LIG    1       -0.909  -0.230   0.021  0.00  0.00    +0.170 C 
ATOM     25  C   LIG    1       -1.776   0.437   1.090  0.00  0.00    +0.050 C 
ATOM     26  C   LIG    1       -1.363  -1.029   1.245  0.00  0.00    +0.020 C 
ENDBRANCH   7  24
TORSDOF 4
