REMARK  Name = ZINCvU00000006Ts.0
REMARK                            x       y       z     vdW  Elec       q    Type
REMARK                         _______ _______ _______ _____ _____    ______ ____
ROOT
ATOM      1  C   LIG    1        1.698  -1.808   2.067  0.00  0.00    +0.120 C 
ATOM      2  C   LIG    1        1.565  -0.403   1.538  0.00  0.00    -0.060 A 
ATOM      3  C   LIG    1        2.578   0.154   0.822  0.00  0.00    +0.060 A 
ATOM      4  C   LIG    1        2.437   1.471   0.334  0.00  0.00    +0.250 A 
ATOM      5  N   LIG    1        3.246   2.242  -0.376  0.00  0.00    -0.470 NA
ATOM      6  C   LIG    1        2.651   3.427  -0.594  0.00  0.00    +0.120 A 
ATOM      7  C   LIG    1        1.410   3.399   0.008  0.00  0.00    +0.160 A 
ATOM      8  N   LIG    1        1.280   2.168   0.589  0.00  0.00    -0.360 N 
ATOM      9  C   LIG    1        0.271   1.592   1.311  0.00  0.00    +0.230 A 
ATOM     10  C   LIG    1        0.394   0.335   1.783  0.00  0.00    +0.010 A 
ENDROOT
BRANCH   6  11
ATOM     11  C   LIG    1        3.228   4.566  -1.347  0.00  0.00    -0.010 A 
ATOM     12  C   LIG    1        2.404   5.380  -2.124  0.00  0.00    +0.020 A 
ATOM     13  C   LIG    1        2.946   6.442  -2.818  0.00  0.00    +0.010 A 
ATOM     14  C   LIG    1        4.306   6.692  -2.755  0.00  0.00    +0.010 A 
ATOM     15  C   LIG    1        5.128   5.885  -1.990  0.00  0.00    +0.010 A 
ATOM     16  C   LIG    1        4.597   4.823  -1.287  0.00  0.00    +0.040 A 
ENDBRANCH   6  11
BRANCH   7  17
ATOM     17  N   LIG    1        0.468   4.430   0.021  0.00  0.00    -0.650 N 
ATOM     18  H   LIG    1        0.654   5.250   0.504  0.00  0.00    +0.420 HD
ATOM     19  C   LIG    1       -0.699   4.284  -0.637  0.00  0.00    +0.510 C 
ATOM     20  O   LIG    1       -0.969   3.227  -1.167  0.00  0.00    -0.490 OA
BRANCH  19  21
ATOM     21  C   LIG    1       -1.668   5.436  -0.716  0.00  0.00    +0.180 C 
BRANCH  21  22
ATOM     22  C   LIG    1       -2.884   5.016  -1.501  0.00  0.00    +0.080 A 
ATOM     23  C   LIG    1       -4.122   5.121  -1.004  0.00  0.00    -0.060 A 
ATOM     24  S   LIG    1       -5.255   4.532  -2.219  0.00  0.00    +0.110 S 
ATOM     25  C   LIG    1       -3.908   4.195  -3.304  0.00  0.00    +0.110 A 
ATOM     26  N   LIG    1       -2.795   4.530  -2.717  0.00  0.00    -0.400 NA
BRANCH  25  27
ATOM     27  C   LIG    1       -4.023   3.628  -4.664  0.00  0.00    +0.190 A 
ATOM     28  C   LIG    1       -5.281   3.311  -5.178  0.00  0.00    -0.010 A 
ATOM     29  C   LIG    1       -5.373   2.786  -6.455  0.00  0.00    +0.070 A 
ATOM     30  C   LIG    1       -4.203   2.585  -7.174  0.00  0.00    -0.020 A 
ATOM     31  C   LIG    1       -2.988   2.917  -6.602  0.00  0.00    +0.270 A 
ATOM     32  N   LIG    1       -2.928   3.420  -5.387  0.00  0.00    -0.440 NA
ENDBRANCH  25  27
ENDBRANCH  21  22
ENDBRANCH  19  21
ENDBRANCH   7  17
TORSDOF 5
