REMARK  Name = ZINCvU0000000FlI.0
REMARK                            x       y       z     vdW  Elec       q    Type
REMARK                         _______ _______ _______ _____ _____    ______ ____
ROOT
ATOM      1  C   LIG    1       -1.271  -0.764   0.011  0.00  0.00    +0.130 A 
ATOM      2  N   LIG    1       -1.492  -1.895  -0.606  0.00  0.00    -0.260 NA
ATOM      3  O   LIG    1       -2.829  -2.281  -0.339  0.00  0.00    +0.040 OA
ATOM      4  N   LIG    1       -3.407  -1.284   0.485  0.00  0.00    -0.260 NA
ATOM      5  C   LIG    1       -2.502  -0.372   0.707  0.00  0.00    +0.300 A 
ENDROOT
BRANCH   1   9
ATOM      6  C   LIG    1        2.380   1.423  -0.013  0.00  0.00    +0.130 A 
ATOM      7  C   LIG    1        1.169   2.096   0.002  0.00  0.00    -0.020 A 
ATOM      8  C   LIG    1       -0.017   1.390   0.010  0.00  0.00    +0.040 A 
ATOM      9  C   LIG    1        0.002  -0.004   0.002  0.00  0.00    -0.050 A 
ATOM     10  C   LIG    1        1.220  -0.683  -0.013  0.00  0.00    +0.020 A 
ATOM     11  C   LIG    1        2.405   0.029  -0.021  0.00  0.00    +0.110 A 
BRANCH   6  12
ATOM     12  O   LIG    1        3.546   2.122  -0.020  0.00  0.00    -0.300 OA
BRANCH  12  14
ATOM     13  C   LIG    1        4.850   4.157  -0.022  0.00  0.00    +0.070 C 
ATOM     14  C   LIG    1        3.447   3.548  -0.012  0.00  0.00    +0.190 C 
ENDBRANCH  12  14
ENDBRANCH   6  12
BRANCH  11  15
ATOM     15  O   LIG    1        3.595  -0.629  -0.035  0.00  0.00    -0.300 OA
BRANCH  15  16
ATOM     16  C   LIG    1        3.545  -2.058  -0.042  0.00  0.00    +0.180 C 
ATOM     17  C   LIG    1        4.969  -2.617  -0.058  0.00  0.00    +0.070 C 
ENDBRANCH  15  16
ENDBRANCH  11  15
ENDBRANCH   1   9
BRANCH   5  18
ATOM     18  N   LIG    1       -2.674   0.777   1.474  0.00  0.00    -0.630 N 
ATOM     19  H   LIG    1       -1.940   1.402   1.583  0.00  0.00    +0.430 HD
ATOM     20  C   LIG    1       -3.861   1.022   2.064  0.00  0.00    +0.600 C 
ATOM     21  O   LIG    1       -4.782   0.239   1.927  0.00  0.00    -0.450 OA
BRANCH  20  22
ATOM     22  C   LIG    1       -4.042   2.235   2.873  0.00  0.00    -0.050 A 
ATOM     23  C   LIG    1       -5.189   2.584   3.512  0.00  0.00    -0.050 A 
ATOM     24  C   LIG    1       -4.909   3.853   4.184  0.00  0.00    -0.140 A 
ATOM     25  C   LIG    1       -5.657   4.715   4.989  0.00  0.00    +0.080 A 
ATOM     26  C   LIG    1       -5.084   5.856   5.475  0.00  0.00    -0.100 A 
ATOM     27  C   LIG    1       -3.765   6.164   5.173  0.00  0.00    +0.070 A 
ATOM     28  C   LIG    1       -3.009   5.326   4.381  0.00  0.00    +0.030 A 
ATOM     29  C   LIG    1       -5.890   6.787   6.343  0.00  0.00    +0.100 C 
ATOM     30  C   LIG    1       -3.570   4.160   3.875  0.00  0.00    +0.080 A 
ATOM     31  C   LIG    1       -6.488   1.819   3.526  0.00  0.00    +0.150 C 
ATOM     32  O   LIG    1       -3.093   3.168   3.099  0.00  0.00    -0.190 OA
ENDBRANCH  20  22
ENDBRANCH   5  18
TORSDOF 7
