REMARK  Name = ZINCkj00000xA78H.0
REMARK                            x       y       z     vdW  Elec       q    Type
REMARK                         _______ _______ _______ _____ _____    ______ ____
ROOT
ATOM      1  N   LIG    1        1.145   3.539   0.010  0.00  0.00    -0.700 NA
ATOM      2  H   LIG    1        0.298   4.013   0.021  0.00  0.00    +0.440 HD
ENDROOT
BRANCH   1   3
ATOM      3  C   LIG    1        2.403   4.289   0.002  0.00  0.00    +0.280 C 
BRANCH   3   4
ATOM      4  C   LIG    1        2.103   5.789   0.013  0.00  0.00    +0.090 C 
BRANCH   4   9
ATOM      5  C   LIG    1        5.171   7.630  -1.202  0.00  0.00    +0.130 A 
ATOM      6  C   LIG    1        5.776   7.978  -0.003  0.00  0.00    -0.070 A 
ATOM      7  C   LIG    1        5.190   7.615   1.195  0.00  0.00    +0.060 A 
ATOM      8  C   LIG    1        4.000   6.912   1.199  0.00  0.00    -0.020 A 
ATOM      9  C   LIG    1        3.398   6.560   0.005  0.00  0.00    -0.060 A 
ATOM     10  C   LIG    1        3.979   6.920  -1.195  0.00  0.00    -0.020 A 
BRANCH   5  12
ATOM     11  C   LIG    1        6.972   8.715  -2.313  0.00  0.00    +0.250 C 
ATOM     12  O   LIG    1        5.746   7.985  -2.382  0.00  0.00    -0.320 OA
ENDBRANCH   5  12
ENDBRANCH   4   9
ENDBRANCH   3   4
ENDBRANCH   1   3
BRANCH   1  13
ATOM     13  C   LIG    1        1.163   2.164   0.003  0.00  0.00    +0.730 C 
BRANCH  13  14
ATOM     14  N   LIG    1        2.301   1.528  -0.012  0.00  0.00    -0.770 NA
ATOM     15  H   LIG    1        2.314   0.558  -0.017  0.00  0.00    +0.440 HD
ATOM     16  H   LIG    1        3.134   2.024  -0.017  0.00  0.00    +0.440 HD
ENDBRANCH  13  14
BRANCH  13  17
ATOM     17  N   LIG    1       -0.018   1.461   0.010  0.00  0.00    -0.690 NA
ATOM     18  H   LIG    1       -0.864   1.934   0.017  0.00  0.00    +0.440 HD
BRANCH  17  19
ATOM     19  C   LIG    1        0.002  -0.004   0.002  0.00  0.00    +0.270 C 
BRANCH  19  20
ATOM     20  C   LIG    1       -1.433  -0.534   0.013  0.00  0.00    +0.170 C 
ATOM     21  C   LIG    1       -1.423  -2.074   0.121  0.00  0.00    +0.040 C 
ATOM     22  C   LIG    1       -2.580  -2.479  -0.832  0.00  0.00    +0.020 C 
ATOM     23  C   LIG    1       -2.461  -1.383  -1.922  0.00  0.00    +0.220 C 
ATOM     24  O   LIG    1       -2.087  -0.190  -1.214  0.00  0.00    -0.380 OA
ENDBRANCH  19  20
ENDBRANCH  17  19
ENDBRANCH  13  17
ENDBRANCH   1  13
TORSDOF 9
