REMARK  Name = ZINCkj00000GeQjI.0
REMARK                            x       y       z     vdW  Elec       q    Type
REMARK                         _______ _______ _______ _____ _____    ______ ____
ROOT
ATOM      1  C   LIG    1       -0.030   0.946  -2.535  0.00  0.00    +0.080 C 
ATOM      2  C   LIG    1       -0.777   1.736  -1.459  0.00  0.00    +0.230 C 
ATOM      3  C   LIG    1       -0.118   1.512  -0.099  0.00  0.00    +0.250 C 
ATOM      4  N   LIG    1       -0.852   2.214   0.964  0.00  0.00    -0.390 N 
ATOM      5  C   LIG    1       -0.260   1.747   2.251  0.00  0.00    +0.250 C 
ATOM      6  C   LIG    1       -1.042   0.483   2.662  0.00  0.00    +0.070 C 
ATOM      7  C   LIG    1       -2.154   0.332   1.595  0.00  0.00    +0.080 C 
ATOM      8  C   LIG    1       -2.254   1.764   1.035  0.00  0.00    +0.170 C 
ATOM      9  C   LIG    1       -2.989   1.824  -0.283  0.00  0.00    +0.320 C 
ATOM     10  H   LIG    1       -0.792   3.215   0.855  0.00  0.00    +0.430 HD
ATOM     11  N   LIG    1       -2.168   1.259  -1.363  0.00  0.00    -0.620 N 
ATOM     12  C   LIG    1       -2.664   0.348  -2.224  0.00  0.00    +0.500 C 
ATOM     13  O   LIG    1       -1.990  -0.033  -3.157  0.00  0.00    -0.500 OA
ENDROOT
BRANCH  12  14
ATOM     14  C   LIG    1       -4.055  -0.196  -2.028  0.00  0.00    +0.230 C 
BRANCH  14  15
ATOM     15  C   LIG    1       -4.002  -1.393  -1.115  0.00  0.00    -0.080 A 
ATOM     16  C   LIG    1       -3.491  -2.592  -1.576  0.00  0.00    +0.020 A 
ATOM     17  C   LIG    1       -3.438  -3.689  -0.737  0.00  0.00    +0.020 A 
ATOM     18  C   LIG    1       -3.905  -3.591   0.560  0.00  0.00    +0.020 A 
ATOM     19  C   LIG    1       -4.422  -2.393   1.020  0.00  0.00    +0.010 A 
ATOM     20  C   LIG    1       -4.470  -1.295   0.182  0.00  0.00    +0.000 A 
ENDBRANCH  14  15
BRANCH  14  21
ATOM     21  N   LIG    1       -4.613  -0.595  -3.327  0.00  0.00    -0.810 NA
ATOM     22  H   LIG    1       -4.045  -1.307  -3.761  0.00  0.00    +0.360 HD
ATOM     23  H   LIG    1       -4.719   0.203  -3.936  0.00  0.00    +0.350 HD
ENDBRANCH  14  21
ENDBRANCH  12  14
TORSDOF 3
