REMARK  Name = ZINCkj00000GeQjI.1
REMARK                            x       y       z     vdW  Elec       q    Type
REMARK                         _______ _______ _______ _____ _____    ______ ____
ROOT
ATOM      1  C   LIG    1       -4.964   0.490  -2.908  0.00  0.00    +0.050 C 
ATOM      2  C   LIG    1       -4.583   1.173  -1.593  0.00  0.00    +0.260 C 
ATOM      3  C   LIG    1       -5.534   2.350  -1.335  0.00  0.00    +0.270 C 
ATOM      4  N   LIG    1       -5.268   3.375  -2.337  0.00  0.00    -0.400 N 
ATOM      5  C   LIG    1       -6.137   4.561  -2.268  0.00  0.00    +0.270 C 
ATOM      6  C   LIG    1       -5.339   5.641  -3.046  0.00  0.00    +0.070 C 
ATOM      7  C   LIG    1       -3.860   5.186  -2.957  0.00  0.00    +0.080 C 
ATOM      8  C   LIG    1       -3.908   3.925  -2.087  0.00  0.00    +0.170 C 
ATOM      9  C   LIG    1       -2.902   2.856  -2.497  0.00  0.00    +0.310 C 
ATOM     10  H   LIG    1       -5.310   2.972  -3.261  0.00  0.00    +0.420 HD
ATOM     11  N   LIG    1       -3.201   1.662  -1.679  0.00  0.00    -0.630 N 
ATOM     12  C   LIG    1       -2.213   1.024  -1.022  0.00  0.00    +0.540 C 
ATOM     13  O   LIG    1       -2.464   0.045  -0.352  0.00  0.00    -0.490 OA
ENDROOT
BRANCH  12  14
ATOM     14  C   LIG    1       -0.795   1.527  -1.120  0.00  0.00    +0.230 C 
BRANCH  14  15
ATOM     15  C   LIG    1       -0.185   1.059  -2.416  0.00  0.00    -0.140 A 
ATOM     16  C   LIG    1        0.307  -0.228  -2.523  0.00  0.00    +0.010 A 
ATOM     17  C   LIG    1        0.863  -0.659  -3.713  0.00  0.00    +0.020 A 
ATOM     18  C   LIG    1        0.936   0.201  -4.793  0.00  0.00    +0.020 A 
ATOM     19  C   LIG    1        0.449   1.490  -4.684  0.00  0.00    +0.020 A 
ATOM     20  C   LIG    1       -0.111   1.919  -3.495  0.00  0.00    +0.000 A 
ENDBRANCH  14  15
BRANCH  14  21
ATOM     21  N   LIG    1       -0.012   1.005   0.008  0.00  0.00    -0.820 NA
ATOM     22  H   LIG    1        0.925   1.379   0.001  0.00  0.00    +0.360 HD
ATOM     23  H   LIG    1        0.002  -0.004   0.002  0.00  0.00    +0.360 HD
ENDBRANCH  14  21
ENDBRANCH  12  14
TORSDOF 3
