REMARK  Name = ZINCpe000000XTxK.0
REMARK                            x       y       z     vdW  Elec       q    Type
REMARK                         _______ _______ _______ _____ _____    ______ ____
ROOT
ATOM      1  C   LIG    1       -1.416   7.352   0.054  0.00  0.00    +0.340 C 
ENDROOT
BRANCH   1  10
ATOM      2  C   LIG    1       -2.510   0.962   0.019  0.00  0.00    +0.110 C 
ATOM      3  C   LIG    1       -1.219   1.739   0.017  0.00  0.00    -0.070 A 
ATOM      4  C   LIG    1       -0.013   1.076   0.008  0.00  0.00    +0.060 A 
ATOM      5  C   LIG    1        1.186   1.778   0.000  0.00  0.00    +0.000 A 
ATOM      6  C   LIG    1        1.190   3.155   0.008  0.00  0.00    +0.090 A 
ATOM      7  C   LIG    1       -0.019   3.846   0.023  0.00  0.00    -0.190 A 
ATOM      8  C   LIG    1       -0.076   5.316   0.031  0.00  0.00    +0.560 A 
ATOM      9  O   LIG    1        0.939   5.988   0.025  0.00  0.00    -0.510 OA
ATOM     10  N   LIG    1       -1.301   5.892   0.045  0.00  0.00    -0.530 N 
ATOM     11  C   LIG    1       -2.425   5.128   0.052  0.00  0.00    +0.580 A 
ATOM     12  N   LIG    1       -2.405   3.830   0.045  0.00  0.00    -0.510 NA
ATOM     13  C   LIG    1       -1.240   3.135   0.031  0.00  0.00    +0.150 A 
ENDBRANCH   1  10
BRANCH   1  14
ATOM     14  C   LIG    1       -1.442   7.846   1.477  0.00  0.00    +0.500 C 
ATOM     15  N   LIG    1       -1.544   9.165   1.731  0.00  0.00    -0.730 N 
ATOM     16  H   LIG    1       -1.601   9.797   0.998  0.00  0.00    +0.400 HD
ATOM     17  O   LIG    1       -1.372   7.055   2.394  0.00  0.00    -0.520 OA
BRANCH  15  18
ATOM     18  C   LIG    1       -1.570   9.645   3.115  0.00  0.00    +0.260 C 
BRANCH  18  19
ATOM     19  C   LIG    1       -1.690  11.170   3.124  0.00  0.00    +0.000 C 
BRANCH  19  20
ATOM     20  C   LIG    1       -1.716  11.672   4.569  0.00  0.00    +0.300 C 
BRANCH  20  21
ATOM     21  N   LIG    1       -1.832  13.132   4.578  0.00  0.00    -0.620 N 
ATOM     22  C   LIG    1       -0.689  14.053   4.577  0.00  0.00    +0.250 C 
ATOM     23  C   LIG    1       -1.265  15.422   4.148  0.00  0.00    +0.040 C 
ATOM     24  C   LIG    1       -2.742  15.292   4.587  0.00  0.00    +0.050 C 
ATOM     25  C   LIG    1       -2.998  13.801   4.592  0.00  0.00    +0.520 C 
ATOM     26  O   LIG    1       -4.095  13.284   4.608  0.00  0.00    -0.530 OA
ENDBRANCH  20  21
ENDBRANCH  19  20
ENDBRANCH  18  19
ENDBRANCH  15  18
ENDBRANCH   1  14
TORSDOF 6
