REMARK  Name = ZINCpk00000y6tVB.0
REMARK                            x       y       z     vdW  Elec       q    Type
REMARK                         _______ _______ _______ _____ _____    ______ ____
ROOT
ATOM      1  C   LIG    1        2.228   6.939   0.018  0.00  0.00    +0.300 C 
ENDROOT
BRANCH   1   6
ATOM      2  C   LIG    1        2.400   9.464   0.086  0.00  0.00    +0.270 C 
ATOM      3  O   LIG    1        1.871  10.468  -0.793  0.00  0.00    -0.370 OA
ATOM      4  C   LIG    1        0.633  10.017  -1.367  0.00  0.00    +0.210 C 
ATOM      5  C   LIG    1        0.704   8.470  -1.315  0.00  0.00    +0.030 C 
ATOM      6  C   LIG    1        1.443   8.253   0.033  0.00  0.00    -0.020 C 
BRANCH   2  11
ATOM      7  N   LIG    1        1.740  11.010   2.000  0.00  0.00    -0.350 N 
ATOM      8  N   LIG    1        2.112  11.186   3.339  0.00  0.00    -0.300 NA
ATOM      9  C   LIG    1        3.037  10.305   3.624  0.00  0.00    +0.230 A 
ATOM     10  C   LIG    1        3.279   9.539   2.480  0.00  0.00    -0.110 A 
ATOM     11  C   LIG    1        2.472   9.996   1.494  0.00  0.00    +0.070 A 
BRANCH   7  13
ATOM     12  C   LIG    1       -0.636  11.125   1.430  0.00  0.00    +0.030 C 
ATOM     13  C   LIG    1        0.733  11.791   1.276  0.00  0.00    +0.320 C 
ENDBRANCH   7  13
ENDBRANCH   2  11
ENDBRANCH   1   6
BRANCH   1  14
ATOM     14  N   LIG    1        1.292   5.812   0.021  0.00  0.00    -0.730 N 
ATOM     15  H   LIG    1        0.336   5.975   0.031  0.00  0.00    +0.400 HD
ATOM     16  C   LIG    1        1.761   4.548   0.010  0.00  0.00    +0.600 C 
ATOM     17  O   LIG    1        2.960   4.344  -0.003  0.00  0.00    -0.520 OA
BRANCH  16  18
ATOM     18  C   LIG    1        0.825   3.420   0.013  0.00  0.00    -0.300 A 
ATOM     19  C   LIG    1        1.160   2.052   0.002  0.00  0.00    +0.320 A 
ATOM     20  N   LIG    1        2.330   1.412  -0.012  0.00  0.00    -0.440 NA
ATOM     21  C   LIG    1        2.380   0.098  -0.020  0.00  0.00    +0.380 A 
ATOM     22  C   LIG    1        1.196  -0.649  -0.013  0.00  0.00    -0.040 A 
ATOM     23  C   LIG    1        0.002  -0.004   0.002  0.00  0.00    +0.360 A 
ATOM     24  N   LIG    1       -0.016   1.359   0.009  0.00  0.00    -0.310 N 
ATOM     25  N   LIG    1       -1.066   2.284   0.019  0.00  0.00    -0.310 NA
ATOM     26  C   LIG    1       -0.579   3.497   0.026  0.00  0.00    +0.330 A 
ENDBRANCH  16  18
ENDBRANCH   1  14
TORSDOF 5
