REMARK  Name = ZINCrD000006Vecs.0
REMARK                            x       y       z     vdW  Elec       q    Type
REMARK                         _______ _______ _______ _____ _____    ______ ____
ROOT
ATOM      1  O   LIG    1       -1.605   8.067   0.061  0.00  0.00    -0.320 OA
ENDROOT
BRANCH   1   2
ATOM      2  C   LIG    1       -2.334   6.932   0.062  0.00  0.00    +0.550 C 
ATOM      3  O   LIG    1       -3.549   6.990   0.074  0.00  0.00    -0.470 OA
BRANCH   2   6
ATOM      4  C   LIG    1       -3.777   4.177   0.061  0.00  0.00    +0.160 C 
ATOM      5  C   LIG    1       -2.290   4.423   0.047  0.00  0.00    -0.050 A 
ATOM      6  C   LIG    1       -1.661   5.628   0.048  0.00  0.00    -0.020 A 
ATOM      7  O   LIG    1       -0.324   5.444   0.034  0.00  0.00    -0.170 OA
ATOM      8  C   LIG    1       -0.021   4.130   0.024  0.00  0.00    +0.070 A 
ATOM      9  C   LIG    1        1.181   3.433   0.009  0.00  0.00    +0.070 A 
ATOM     10  C   LIG    1        1.180   2.056   0.002  0.00  0.00    +0.050 A 
ATOM     11  C   LIG    1       -0.016   1.347   0.009  0.00  0.00    +0.080 A 
ATOM     12  C   LIG    1       -1.220   2.017   0.019  0.00  0.00    +0.060 A 
ATOM     13  F   LIG    1        0.002  -0.004   0.002  0.00  0.00    -0.130 F 
ATOM     14  C   LIG    1       -1.232   3.414   0.031  0.00  0.00    -0.120 A 
ENDBRANCH   2   6
ENDBRANCH   1   2
BRANCH   1  15
ATOM     15  C   LIG    1       -2.338   9.321   0.075  0.00  0.00    +0.260 C 
BRANCH  15  16
ATOM     16  C   LIG    1       -1.365  10.471   0.072  0.00  0.00    +0.390 C 
ATOM     17  O   LIG    1       -0.171  10.256   0.059  0.00  0.00    -0.410 OA
BRANCH  16  18
ATOM     18  C   LIG    1       -1.862  11.856   0.085  0.00  0.00    -0.110 A 
ATOM     19  C   LIG    1       -3.238  12.109   0.095  0.00  0.00    +0.040 A 
ATOM     20  C   LIG    1       -3.696  13.409   0.113  0.00  0.00    +0.120 A 
ATOM     21  C   LIG    1       -2.799  14.463   0.110  0.00  0.00    -0.630 A 
ATOM     22  C   LIG    1       -1.436  14.221   0.094  0.00  0.00    +0.120 A 
ATOM     23  C   LIG    1       -0.962  12.927   0.082  0.00  0.00    +0.070 A 
BRANCH  21  24
ATOM     24  S   LIG    1       -3.394  16.121   0.125  0.00  0.00    +2.500 S 
ATOM     25  O   LIG    1       -2.343  16.866   0.724  0.00  0.00    -0.930 OA
ATOM     26  O   LIG    1       -4.671  16.029   0.743  0.00  0.00    -0.930 OA
ATOM     27  C   LIG    1       -3.566  16.557  -1.627  0.00  0.00    -0.250 C 
ENDBRANCH  21  24
ENDBRANCH  16  18
ENDBRANCH  15  16
ENDBRANCH   1  15
TORSDOF 6
