REMARK  Name = ZINCrg00001JduRm.0
REMARK                            x       y       z     vdW  Elec       q    Type
REMARK                         _______ _______ _______ _____ _____    ______ ____
ROOT
ATOM      1  C   LIG    1       -1.205   1.629  -0.797  0.00  0.00    +0.230 C 
ATOM      2  C   LIG    1       -1.864   1.533   0.580  0.00  0.00    +0.030 C 
ENDROOT
BRANCH   1   4
ATOM      3  C   LIG    1        1.189   1.581  -0.345  0.00  0.00    +0.520 C 
ATOM      4  N   LIG    1        0.085   0.935  -0.770  0.00  0.00    -0.720 N 
ATOM      5  H   LIG    1        0.146   0.012  -1.062  0.00  0.00    +0.410 HD
ATOM      6  O   LIG    1        1.129   2.756  -0.052  0.00  0.00    -0.520 OA
BRANCH   3   7
ATOM      7  C   LIG    1        2.498   0.843  -0.234  0.00  0.00    +0.250 C 
BRANCH   7   8
ATOM      8  C   LIG    1        2.412  -0.181   0.900  0.00  0.00    +0.000 C 
ATOM      9  C   LIG    1        2.037   0.530   2.202  0.00  0.00    +0.030 C 
BRANCH   8  11
ATOM     10  C   LIG    1        1.321  -2.298   1.656  0.00  0.00    +0.030 C 
ATOM     11  C   LIG    1        1.346  -1.226   0.564  0.00  0.00    +0.000 C 
ENDBRANCH   8  11
ENDBRANCH   7   8
BRANCH   7  12
ATOM     12  N   LIG    1        3.574   1.796   0.049  0.00  0.00    -1.100 NA
ATOM     13  H   LIG    1        3.405   2.563   0.618  0.00  0.00    +0.430 HD
BRANCH  12  14
ATOM     14  S   LIG    1        5.079   1.564  -0.601  0.00  0.00    +2.610 S 
ATOM     15  O   LIG    1        5.398   0.218  -0.274  0.00  0.00    -0.950 OA
ATOM     16  O   LIG    1        5.851   2.644  -0.094  0.00  0.00    -0.950 OA
ATOM     17  C   LIG    1        4.832   1.743  -2.389  0.00  0.00    -0.290 C 
ENDBRANCH  12  14
ENDBRANCH   7  12
ENDBRANCH   3   7
ENDBRANCH   1   4
BRANCH   1  18
ATOM     18  C   LIG    1       -2.112   0.978  -1.843  0.00  0.00    +0.240 C 
ATOM     19  C   LIG    1       -2.231  -0.520  -1.555  0.00  0.00    +0.040 C 
BRANCH  18  20
ATOM     20  N   LIG    1       -3.440   1.593  -1.788  0.00  0.00    -0.720 N 
ATOM     21  H   LIG    1       -3.747   2.011  -0.968  0.00  0.00    +0.400 HD
ATOM     22  C   LIG    1       -4.236   1.578  -2.876  0.00  0.00    +0.590 C 
ATOM     23  O   LIG    1       -3.850   1.054  -3.904  0.00  0.00    -0.490 OA
BRANCH  22  24
ATOM     24  C   LIG    1       -5.569   2.196  -2.820  0.00  0.00    -0.010 A 
ATOM     25  C   LIG    1       -6.496   2.267  -3.847  0.00  0.00    -0.130 A 
ATOM     26  C   LIG    1       -7.596   2.939  -3.306  0.00  0.00    +0.060 A 
ATOM     27  N   LIG    1       -7.313   3.237  -2.064  0.00  0.00    -0.250 NA
ATOM     28  C   LIG    1       -8.877   3.268  -4.028  0.00  0.00    +0.160 C 
ATOM     29 BR   LIG    1       -6.314   1.595  -5.605  0.00  0.00    +0.020 Br
ATOM     30  N   LIG    1       -6.141   2.819  -1.746  0.00  0.00    -0.370 N 
ATOM     31  H   LIG    1       -5.724   2.930  -0.877  0.00  0.00    +0.450 HD
ENDBRANCH  22  24
ENDBRANCH  18  20
ENDBRANCH   1  18
TORSDOF 9
