REMARK  Name = ZINCqH0000006RPc.0
REMARK                            x       y       z     vdW  Elec       q    Type
REMARK                         _______ _______ _______ _____ _____    ______ ____
ROOT
ATOM      1  N   LIG    1        2.062  -7.202   0.489  0.00  0.00    -0.660 N 
ATOM      2  H   LIG    1        1.164  -6.995   0.792  0.00  0.00    +0.420 HD
ATOM      3  C   LIG    1        2.874  -6.215   0.064  0.00  0.00    +0.540 C 
ATOM      4  O   LIG    1        4.023  -6.461  -0.236  0.00  0.00    -0.500 OA
ENDROOT
BRANCH   1   7
ATOM      5  C   LIG    1        4.290 -10.118   0.787  0.00  0.00    +0.180 A 
ATOM      6  C   LIG    1        3.842  -8.806   0.783  0.00  0.00    -0.040 A 
ATOM      7  C   LIG    1        2.514  -8.527   0.493  0.00  0.00    +0.220 A 
ATOM      8  C   LIG    1        1.633  -9.562   0.214  0.00  0.00    -0.070 A 
ATOM      9  C   LIG    1        2.082 -10.873   0.213  0.00  0.00    +0.180 A 
ATOM     10  C   LIG    1        3.410 -11.152   0.502  0.00  0.00    -0.170 A 
BRANCH   5  12
ATOM     11  C   LIG    1        5.982 -11.766   1.057  0.00  0.00    +0.250 C 
ATOM     12  O   LIG    1        5.590 -10.392   1.071  0.00  0.00    -0.310 OA
ENDBRANCH   5  12
BRANCH   9  13
ATOM     13  O   LIG    1        1.221 -11.887  -0.067  0.00  0.00    -0.310 OA
ATOM     14  C   LIG    1        1.752 -13.213  -0.045  0.00  0.00    +0.250 C 
ENDBRANCH   9  13
ENDBRANCH   1   7
BRANCH   3  15
ATOM     15  C   LIG    1        2.354  -4.804  -0.040  0.00  0.00    +0.020 C 
ATOM     16  C   LIG    1        1.552  -4.649  -1.333  0.00  0.00    +0.090 C 
BRANCH  15  17
ATOM     17  S   LIG    1        3.747  -3.647  -0.052  0.00  0.00    +0.070 S 
BRANCH  17  18
ATOM     18  C   LIG    1        2.873  -2.117  -0.025  0.00  0.00    +0.250 A 
ATOM     19  N   LIG    1        1.569  -1.995  -0.002  0.00  0.00    -0.490 NA
ATOM     20  C   LIG    1        1.234  -0.678   0.015  0.00  0.00    +0.060 A 
ATOM     21  C   LIG    1        0.014   0.002   0.041  0.00  0.00    +0.060 A 
ATOM     22  C   LIG    1       -0.001   1.379   0.053  0.00  0.00    +0.010 A 
ATOM     23  C   LIG    1        1.185   2.096   0.040  0.00  0.00    +0.030 A 
ATOM     24  C   LIG    1        2.399   1.440   0.016  0.00  0.00    +0.010 A 
ATOM     25  C   LIG    1        2.433   0.054   0.002  0.00  0.00    +0.050 A 
ATOM     26  N   LIG    1        3.455  -0.881  -0.023  0.00  0.00    -0.480 N 
ATOM     27  C   LIG    1        4.893  -0.597  -0.044  0.00  0.00    +0.330 C 
ENDBRANCH  17  18
ENDBRANCH  15  17
ENDBRANCH   3  15
TORSDOF 6
