REMARK  Name = ZINCvU0000000D9f.0
REMARK                            x       y       z     vdW  Elec       q    Type
REMARK                         _______ _______ _______ _____ _____    ______ ____
ROOT
ATOM      1  C   LIG    1       -7.291   3.851  -0.339  0.00  0.00    +0.140 A 
ATOM      2  C   LIG    1       -7.291   5.240  -0.318  0.00  0.00    +0.030 A 
ATOM      3  C   LIG    1       -6.099   5.934  -0.228  0.00  0.00    +0.040 A 
ATOM      4  C   LIG    1       -4.902   5.252  -0.152  0.00  0.00    +0.030 A 
ATOM      5  C   LIG    1       -4.891   3.856  -0.178  0.00  0.00    -0.120 A 
ATOM      6  C   LIG    1       -6.094   3.156  -0.270  0.00  0.00    +0.100 A 
ENDROOT
BRANCH   1   8
ATOM      7  C   LIG    1       -8.655   1.983   0.220  0.00  0.00    +0.510 C 
ATOM      8  N   LIG    1       -8.501   3.153  -0.432  0.00  0.00    -0.670 N 
ATOM      9  H   LIG    1       -9.228   3.511  -0.964  0.00  0.00    +0.420 HD
ATOM     10  O   LIG    1       -7.720   1.494   0.817  0.00  0.00    -0.480 OA
BRANCH   7  11
ATOM     11  C   LIG    1       -9.990   1.283   0.205  0.00  0.00    +0.240 C 
BRANCH  11  12
ATOM     12  O   LIG    1       -9.901   0.073   0.960  0.00  0.00    -0.290 OA
BRANCH  12  17
ATOM     13  C   LIG    1      -14.566  -3.063   1.323  0.00  0.00    +0.100 C 
ATOM     14  C   LIG    1      -13.318  -2.224   1.226  0.00  0.00    -0.120 A 
ATOM     15  C   LIG    1      -12.157  -2.639   1.852  0.00  0.00    +0.050 A 
ATOM     16  C   LIG    1      -11.011  -1.871   1.765  0.00  0.00    -0.010 A 
ATOM     17  C   LIG    1      -11.026  -0.684   1.048  0.00  0.00    +0.120 A 
ATOM     18  C   LIG    1      -12.194  -0.267   0.425  0.00  0.00    -0.080 A 
ATOM     19  C   LIG    1      -13.335  -1.041   0.510  0.00  0.00    +0.050 A 
ENDBRANCH  12  17
ENDBRANCH  11  12
ENDBRANCH   7  11
ENDBRANCH   1   8
BRANCH   5  20
ATOM     20  C   LIG    1       -3.610   3.123  -0.103  0.00  0.00    +0.560 C 
ATOM     21  N   LIG    1       -2.449   3.802  -0.015  0.00  0.00    -0.670 N 
ATOM     22  H   LIG    1       -2.457   4.768   0.074  0.00  0.00    +0.410 HD
ATOM     23  O   LIG    1       -3.603   1.907  -0.120  0.00  0.00    -0.500 OA
BRANCH  21  24
ATOM     24  C   LIG    1       -1.232   3.114  -0.051  0.00  0.00    +0.150 A 
ATOM     25  C   LIG    1       -1.104   1.966  -0.822  0.00  0.00    +0.050 A 
ATOM     26  C   LIG    1        0.098   1.286  -0.851  0.00  0.00    +0.040 A 
ATOM     27  C   LIG    1        1.176   1.753  -0.122  0.00  0.00    +0.050 A 
ATOM     28  C   LIG    1        1.054   2.898   0.643  0.00  0.00    -0.160 A 
ATOM     29  C   LIG    1       -0.147   3.580   0.680  0.00  0.00    +0.040 A 
BRANCH  28  30
ATOM     30  C   LIG    1        2.232   3.404   1.435  0.00  0.00    +0.510 C 
ATOM     31  F   LIG    1        1.901   3.432   2.795  0.00  0.00    -0.180 F 
ATOM     32  F   LIG    1        2.562   4.694   1.009  0.00  0.00    -0.180 F 
ATOM     33  F   LIG    1        3.325   2.554   1.239  0.00  0.00    -0.170 F 
ENDBRANCH  28  30
ENDBRANCH  21  24
ENDBRANCH   5  20
TORSDOF 7
