REMARK  Name = ZINCrH000004vAsg.0
REMARK                            x       y       z     vdW  Elec       q    Type
REMARK                         _______ _______ _______ _____ _____    ______ ____
ROOT
ATOM      1  C   LIG    1        0.679   0.530   5.041  0.00  0.00    -0.190 A 
ATOM      2  C   LIG    1        1.206  -0.151   3.939  0.00  0.00    +0.150 A 
ATOM      3  C   LIG    1        0.791   0.175   2.668  0.00  0.00    -0.050 A 
ATOM      4  C   LIG    1       -0.151   1.181   2.478  0.00  0.00    +0.300 A 
ATOM      5  C   LIG    1       -0.674   1.865   3.573  0.00  0.00    -0.130 A 
ATOM      6  C   LIG    1       -0.268   1.540   4.847  0.00  0.00    +0.190 A 
ENDROOT
BRANCH   1   8
ATOM      7  O   LIG    1        0.304   0.059   7.296  0.00  0.00    -0.530 OA
ATOM      8  C   LIG    1        1.122   0.184   6.405  0.00  0.00    +0.570 C 
ATOM      9  N   LIG    1        2.432   0.004   6.663  0.00  0.00    -0.610 N 
ATOM     10  C   LIG    1        3.431   0.052   5.583  0.00  0.00    +0.250 C 
ATOM     11  C   LIG    1        4.550   1.016   6.008  0.00  0.00    +0.220 C 
ATOM     12  O   LIG    1        5.031   0.636   7.300  0.00  0.00    -0.380 OA
ATOM     13  C   LIG    1        4.051   0.723   8.337  0.00  0.00    +0.220 C 
ATOM     14  C   LIG    1        2.906  -0.251   8.033  0.00  0.00    +0.260 C 
ENDBRANCH   1   8
BRANCH   5  15
ATOM     15  N   LIG    1       -1.672   2.939   3.366  0.00  0.00    +0.040 N 
ATOM     16  O   LIG    1       -2.520   2.824   2.500  0.00  0.00    -0.180 OA
ATOM     17  O   LIG    1       -1.644   3.938   4.063  0.00  0.00    -0.140 OA
ENDBRANCH   5  15
BRANCH   4  18
ATOM     18  N   LIG    1       -0.568   1.508   1.193  0.00  0.00    -0.720 N 
ATOM     19  H   LIG    1       -1.271   2.164   1.063  0.00  0.00    +0.420 HD
BRANCH  18  20
ATOM     20  C   LIG    1        0.056   0.864   0.034  0.00  0.00    +0.260 C 
BRANCH  20  21
ATOM     21  C   LIG    1       -0.580   1.398  -1.250  0.00  0.00    +0.060 C 
BRANCH  21  22
ATOM     22  C   LIG    1        0.061   0.735  -2.442  0.00  0.00    -0.130 C 
ATOM     23  C   LIG    1       -0.489  -0.312  -2.970  0.00  0.00    -0.030 C 
ATOM     24  C   LIG    1        0.145  -0.988  -4.167  0.00  0.00    +0.050 C 
ATOM     25  C   LIG    1        1.413  -1.711  -3.706  0.00  0.00    +0.010 C 
ATOM     26  C   LIG    1        2.600  -0.765  -3.701  0.00  0.00    +0.000 C 
ATOM     27  C   LIG    1        2.492   0.344  -2.670  0.00  0.00    +0.010 C 
ATOM     28  C   LIG    1        1.342   1.299  -3.019  0.00  0.00    +0.060 C 
ENDBRANCH  21  22
ENDBRANCH  20  21
ENDBRANCH  18  20
ENDBRANCH   4  18
TORSDOF 6
