REMARK  Name = ZINCrH000004nIb3.0
REMARK                            x       y       z     vdW  Elec       q    Type
REMARK                         _______ _______ _______ _____ _____    ______ ____
ROOT
ATOM      1  C   LIG    1        4.766   1.458   0.063  0.00  0.00    +0.610 C 
ATOM      2  N   LIG    1        3.596   2.122  -0.023  0.00  0.00    -0.660 N 
ATOM      3  H   LIG    1        3.591   3.090  -0.086  0.00  0.00    +0.420 HD
ATOM      4  O   LIG    1        4.777   0.242   0.057  0.00  0.00    -0.490 OA
ENDROOT
BRANCH   2   5
ATOM      5  C   LIG    1        2.389   1.414  -0.022  0.00  0.00    +0.150 A 
ATOM      6  C   LIG    1        1.267   1.955   0.596  0.00  0.00    +0.000 A 
ATOM      7  C   LIG    1        0.072   1.260   0.600  0.00  0.00    +0.050 A 
ATOM      8  C   LIG    1       -0.015   0.024  -0.009  0.00  0.00    +0.020 A 
ATOM      9  C   LIG    1        1.106  -0.527  -0.633  0.00  0.00    +0.000 A 
ATOM     10  C   LIG    1        2.311   0.174  -0.638  0.00  0.00    +0.050 A 
BRANCH   9  11
ATOM     11  C   LIG    1        1.018  -1.853  -1.281  0.00  0.00    -0.000 A 
ATOM     12  C   LIG    1       -0.081  -2.648  -1.349  0.00  0.00    +0.170 A 
ATOM     13  N   LIG    1        0.265  -3.757  -2.020  0.00  0.00    -0.490 NA
ATOM     14  C   LIG    1        1.520  -3.671  -2.360  0.00  0.00    +0.430 A 
ATOM     15  O   LIG    1        2.012  -2.504  -1.923  0.00  0.00    -0.190 OA
ENDBRANCH   9  11
ENDBRANCH   2   5
BRANCH   1  20
ATOM     16  C   LIG    1        7.333   1.651   0.261  0.00  0.00    +0.080 A 
ATOM     17  C   LIG    1        8.176   2.713   0.331  0.00  0.00    +0.090 A 
ATOM     18  N   LIG    1        7.409   3.836   0.278  0.00  0.00    -0.210 N 
ATOM     19  N   LIG    1        6.168   3.519   0.177  0.00  0.00    -0.230 NA
ATOM     20  C   LIG    1        6.032   2.206   0.165  0.00  0.00    -0.020 A 
BRANCH  18  21
ATOM     21  C   LIG    1        7.901   5.147   0.322  0.00  0.00    +0.130 A 
ATOM     22  C   LIG    1        9.267   5.374   0.433  0.00  0.00    +0.010 A 
ATOM     23  C   LIG    1        9.749   6.667   0.470  0.00  0.00    +0.050 A 
ATOM     24  C   LIG    1        8.874   7.736   0.409  0.00  0.00    +0.020 A 
ATOM     25  C   LIG    1        7.513   7.513   0.304  0.00  0.00    +0.040 A 
ATOM     26  C   LIG    1        7.024   6.222   0.260  0.00  0.00    +0.030 A 
ENDBRANCH  18  21
BRANCH  16  28
ATOM     27  C   LIG    1        9.057   0.015   0.385  0.00  0.00    +0.250 C 
ATOM     28  O   LIG    1        7.667   0.332   0.280  0.00  0.00    -0.270 OA
ENDBRANCH  16  28
ENDBRANCH   1  20
TORSDOF 5
