REMARK  Name = ZINCvU0000000Fgj.0
REMARK                            x       y       z     vdW  Elec       q    Type
REMARK                         _______ _______ _______ _____ _____    ______ ____
ROOT
ATOM      1  C   LIG    1        2.372   1.127  -0.029  0.00  0.00    +0.270 C 
ENDROOT
BRANCH   1   2
ATOM      2  C   LIG    1        3.554   2.061  -0.023  0.00  0.00    +0.510 C 
ATOM      3  N   LIG    1        4.807   1.563  -0.035  0.00  0.00    -0.660 N 
ATOM      4  H   LIG    1        4.949   0.606   0.033  0.00  0.00    +0.410 HD
ATOM      5  O   LIG    1        3.379   3.261  -0.008  0.00  0.00    -0.490 OA
BRANCH   3   6
ATOM      6  C   LIG    1        5.900   2.425  -0.147  0.00  0.00    +0.160 A 
ATOM      7  C   LIG    1        5.749   3.668  -0.744  0.00  0.00    +0.020 A 
ATOM      8  C   LIG    1        6.831   4.522  -0.847  0.00  0.00    +0.040 A 
ATOM      9  C   LIG    1        8.071   4.139  -0.368  0.00  0.00    +0.000 A 
ATOM     10  C   LIG    1        8.238   2.903   0.223  0.00  0.00    +0.050 A 
ATOM     11  C   LIG    1        7.154   2.036   0.339  0.00  0.00    -0.080 A 
BRANCH  11  12
ATOM     12  C   LIG    1        7.328   0.707   0.973  0.00  0.00    -0.050 A 
ATOM     13  C   LIG    1        6.458   0.293   1.980  0.00  0.00    +0.000 A 
ATOM     14  C   LIG    1        6.622  -0.947   2.564  0.00  0.00    +0.010 A 
ATOM     15  C   LIG    1        7.653  -1.774   2.157  0.00  0.00    +0.000 A 
ATOM     16  C   LIG    1        8.523  -1.367   1.161  0.00  0.00    +0.010 A 
ATOM     17  C   LIG    1        8.365  -0.131   0.567  0.00  0.00    +0.030 A 
ENDBRANCH  11  12
ENDBRANCH   3   6
ENDBRANCH   1   2
BRANCH   1  18
ATOM     18  O   LIG    1        1.143   1.900  -0.014  0.00  0.00    -0.320 OA
BRANCH  18  19
ATOM     19  C   LIG    1       -0.015   1.211  -0.016  0.00  0.00    +0.560 C 
ATOM     20  O   LIG    1        0.002  -0.005  -0.031  0.00  0.00    -0.480 OA
BRANCH  19  23
ATOM     21  C   LIG    1       -1.706   2.203  -2.535  0.00  0.00    +0.210 C 
ATOM     22  C   LIG    1       -2.043   2.365  -1.075  0.00  0.00    +0.050 A 
ATOM     23  C   LIG    1       -1.299   1.929  -0.007  0.00  0.00    -0.240 A 
ATOM     24  C   LIG    1       -2.103   2.365   1.153  0.00  0.00    +0.110 A 
ATOM     25  N   LIG    1       -3.151   2.957   0.639  0.00  0.00    -0.340 NA
ATOM     26  O   LIG    1       -3.126   2.958  -0.567  0.00  0.00    +0.110 OA
BRANCH  24  27
ATOM     27  C   LIG    1       -1.791   2.172   2.591  0.00  0.00    -0.030 A 
ATOM     28  C   LIG    1       -1.151   1.011   3.018  0.00  0.00    +0.030 A 
ATOM     29  C   LIG    1       -0.858   0.839   4.356  0.00  0.00    +0.010 A 
ATOM     30  C   LIG    1       -1.209   1.813   5.273  0.00  0.00    +0.030 A 
ATOM     31  C   LIG    1       -1.850   2.966   4.856  0.00  0.00    +0.010 A 
ATOM     32  C   LIG    1       -2.143   3.150   3.520  0.00  0.00    +0.050 A 
ENDBRANCH  24  27
ENDBRANCH  19  23
ENDBRANCH  18  19
ENDBRANCH   1  18
TORSDOF 7
