REMARK  Name = ZINCvU0000000Bf7.0
REMARK                            x       y       z     vdW  Elec       q    Type
REMARK                         _______ _______ _______ _____ _____    ______ ____
ROOT
ATOM      1  N   LIG    1        5.241   1.270  -2.428  0.00  0.00    -0.370 N 
ATOM      2  N   LIG    1        5.033   0.924  -3.771  0.00  0.00    -0.250 NA
ATOM      3  C   LIG    1        5.821   1.646  -4.500  0.00  0.00    +0.280 A 
ATOM      4  N   LIG    1        6.562   2.462  -3.678  0.00  0.00    -0.450 N 
ATOM      5  C   LIG    1        6.197   2.223  -2.403  0.00  0.00    +0.480 A 
ATOM      6  S   LIG    1        6.829   2.987  -1.007  0.00  0.00    -0.560 S 
ENDROOT
BRANCH   4   7
ATOM      7  C   LIG    1        7.531   3.386  -4.095  0.00  0.00    +0.100 A 
ATOM      8  C   LIG    1        7.306   4.747  -3.941  0.00  0.00    +0.090 A 
ATOM      9  C   LIG    1        8.265   5.655  -4.347  0.00  0.00    +0.010 A 
ATOM     10  C   LIG    1        9.444   5.208  -4.919  0.00  0.00    +0.120 A 
ATOM     11  C   LIG    1        9.668   3.851  -5.078  0.00  0.00    +0.010 A 
ATOM     12  F   LIG    1       10.378   6.098  -5.321  0.00  0.00    -0.130 F 
ATOM     13  C   LIG    1        8.715   2.940  -4.668  0.00  0.00    +0.070 A 
ENDBRANCH   4   7
BRANCH   1  14
ATOM     14  C   LIG    1        4.554   0.699  -1.268  0.00  0.00    +0.520 C 
BRANCH  14  16
ATOM     15  C   LIG    1        2.288   0.535  -2.105  0.00  0.00    +0.200 C 
ATOM     16  N   LIG    1        3.192   1.243  -1.189  0.00  0.00    -0.540 NA
BRANCH  16  17
ATOM     17  C   LIG    1        2.686   1.197   0.190  0.00  0.00    +0.260 C 
BRANCH  17  18
ATOM     18  C   LIG    1        1.400   1.978   0.279  0.00  0.00    -0.080 A 
ATOM     19  C   LIG    1        0.192   1.313   0.370  0.00  0.00    +0.030 A 
ATOM     20  C   LIG    1       -0.988   2.030   0.447  0.00  0.00    +0.010 A 
ATOM     21  C   LIG    1       -0.959   3.412   0.443  0.00  0.00    +0.030 A 
ATOM     22  C   LIG    1        0.248   4.078   0.351  0.00  0.00    +0.010 A 
ATOM     23  C   LIG    1        1.429   3.362   0.270  0.00  0.00    -0.010 A 
ATOM     24 CL   LIG    1        2.946   4.198   0.156  0.00  0.00    -0.040 Cl
ENDBRANCH  17  18
ENDBRANCH  16  17
ENDBRANCH  14  16
ENDBRANCH   1  14
BRANCH   3  25
ATOM     25  C   LIG    1        5.916   1.596  -6.003  0.00  0.00    +0.220 C 
BRANCH  25  26
ATOM     26  C   LIG    1        4.871   0.653  -6.542  0.00  0.00    -0.090 A 
ATOM     27  C   LIG    1        5.170  -0.685  -6.714  0.00  0.00    +0.020 A 
ATOM     28  C   LIG    1        4.210  -1.551  -7.203  0.00  0.00    +0.000 A 
ATOM     29  C   LIG    1        2.954  -1.077  -7.530  0.00  0.00    +0.010 A 
ATOM     30  C   LIG    1        2.655   0.263  -7.362  0.00  0.00    +0.000 A 
ATOM     31  C   LIG    1        3.614   1.128  -6.868  0.00  0.00    +0.020 A 
ENDBRANCH  25  26
ENDBRANCH   3  25
TORSDOF 7
