REMARK  Name = ZINCqH0000032c3x.0
REMARK                            x       y       z     vdW  Elec       q    Type
REMARK                         _______ _______ _______ _____ _____    ______ ____
ROOT
ATOM      1  C   LIG    1        3.686  -0.621  -0.232  0.00  0.00    +0.300 C 
ATOM      2  C   LIG    1        4.090  -1.315   1.071  0.00  0.00    +0.040 C 
ENDROOT
BRANCH   1   3
ATOM      3  C   LIG    1        2.321  -0.002  -0.068  0.00  0.00    -0.120 A 
ATOM      4  C   LIG    1        2.203   1.317   0.323  0.00  0.00    +0.050 A 
ATOM      5  C   LIG    1        0.951   1.885   0.473  0.00  0.00    -0.020 A 
ATOM      6  C   LIG    1       -0.185   1.135   0.233  0.00  0.00    +0.050 A 
ATOM      7  C   LIG    1       -0.072  -0.186  -0.159  0.00  0.00    -0.060 A 
ATOM      8  C   LIG    1        1.183  -0.758  -0.310  0.00  0.00    +0.140 A 
BRANCH   8   9
ATOM      9  O   LIG    1        1.297  -2.056  -0.695  0.00  0.00    -0.250 OA
BRANCH   9  10
ATOM     10  C   LIG    1        0.155  -2.757  -0.920  0.00  0.00    +0.080 A 
ATOM     11  C   LIG    1       -0.404  -3.519   0.096  0.00  0.00    +0.010 A 
ATOM     12  C   LIG    1       -1.568  -4.227  -0.134  0.00  0.00    +0.020 A 
ATOM     13  C   LIG    1       -2.171  -4.185  -1.378  0.00  0.00    +0.020 A 
ATOM     14  C   LIG    1       -1.612  -3.431  -2.394  0.00  0.00    +0.020 A 
ATOM     15  C   LIG    1       -0.451  -2.717  -2.168  0.00  0.00    +0.000 A 
ENDBRANCH   9  10
ENDBRANCH   8   9
ENDBRANCH   1   3
BRANCH   1  17
ATOM     16  C   LIG    1        5.756   0.125  -1.277  0.00  0.00    +0.540 C 
ATOM     17  N   LIG    1        4.661   0.425  -0.551  0.00  0.00    -0.720 N 
ATOM     18  H   LIG    1        4.518   1.332  -0.240  0.00  0.00    +0.400 HD
ATOM     19  O   LIG    1        5.935  -1.010  -1.666  0.00  0.00    -0.520 OA
BRANCH  16  20
ATOM     20  C   LIG    1        6.759   1.201  -1.606  0.00  0.00    -0.350 C 
BRANCH  20  21
ATOM     21  S   LIG    1        8.110   0.489  -2.586  0.00  0.00    +2.450 S 
ATOM     22  O   LIG    1        7.587   0.068  -3.839  0.00  0.00    -0.910 OA
ATOM     23  O   LIG    1        8.812  -0.445  -1.778  0.00  0.00    -0.920 OA
BRANCH  21  24
ATOM     24  C   LIG    1        9.175   1.932  -2.860  0.00  0.00    -0.350 C 
BRANCH  24  26
ATOM     25  C   LIG    1        9.937   1.080  -5.082  0.00  0.00    +0.030 C 
ATOM     26  C   LIG    1       10.392   1.517  -3.688  0.00  0.00    +0.010 C 
ATOM     27  C   LIG    1       11.352   2.702  -3.814  0.00  0.00    +0.040 C 
ENDBRANCH  24  26
ENDBRANCH  21  24
ENDBRANCH  20  21
ENDBRANCH  16  20
ENDBRANCH   1  17
TORSDOF 8
