REMARK  Name = ZINCtV000002zBQS.0
REMARK                            x       y       z     vdW  Elec       q    Type
REMARK                         _______ _______ _______ _____ _____    ______ ____
ROOT
ATOM      1  C   LIG    1       -0.717   6.296  -1.258  0.00  0.00    +0.250 C 
ATOM      2  C   LIG    1       -1.959   7.088  -0.801  0.00  0.00    +0.030 C 
ATOM      3  C   LIG    1       -1.631   7.500   0.656  0.00  0.00    +0.030 C 
ATOM      4  C   LIG    1       -0.892   6.254   1.206  0.00  0.00    +0.030 C 
ATOM      5  C   LIG    1       -0.040   5.765   0.017  0.00  0.00    +0.030 C 
ENDROOT
BRANCH   5   6
ATOM      6  C   LIG    1       -0.002   4.259  -0.007  0.00  0.00    -0.030 A 
ATOM      7  C   LIG    1       -0.649   3.536   0.978  0.00  0.00    +0.020 A 
ATOM      8  C   LIG    1       -0.614   2.154   0.956  0.00  0.00    +0.070 A 
ATOM      9  C   LIG    1        0.066   1.496  -0.051  0.00  0.00    -0.180 A 
ATOM     10  C   LIG    1        0.717   2.219  -1.033  0.00  0.00    +0.070 A 
ATOM     11  C   LIG    1        0.679   3.600  -1.013  0.00  0.00    +0.010 A 
BRANCH   9  12
ATOM     12  C   LIG    1        0.104  -0.011  -0.074  0.00  0.00    +0.510 C 
ATOM     13  F   LIG    1        0.031  -0.500   1.234  0.00  0.00    -0.180 F 
ATOM     14  F   LIG    1        1.297  -0.438  -0.666  0.00  0.00    -0.180 F 
ATOM     15  F   LIG    1       -0.982  -0.493  -0.813  0.00  0.00    -0.180 F 
ENDBRANCH   9  12
ENDBRANCH   5   6
BRANCH   1  17
ATOM     16  C   LIG    1       -2.169   4.255  -1.666  0.00  0.00    +0.330 C 
ATOM     17  N   LIG    1       -1.123   5.178  -2.114  0.00  0.00    -0.550 N 
BRANCH  17  18
ATOM     18  C   LIG    1       -0.521   4.994  -3.335  0.00  0.00    +0.430 A 
ATOM     19  N   LIG    1       -0.780   4.033  -4.202  0.00  0.00    -0.520 NA
ATOM     20  C   LIG    1        0.045   4.258  -5.247  0.00  0.00    +0.240 A 
ATOM     21  N   LIG    1        0.755   5.319  -4.961  0.00  0.00    -0.390 NA
ATOM     22  O   LIG    1        0.444   5.753  -3.872  0.00  0.00    +0.040 OA
BRANCH  20  23
ATOM     23  C   LIG    1        0.136   3.448  -6.487  0.00  0.00    -0.010 A 
ATOM     24  C   LIG    1        1.043   3.796  -7.486  0.00  0.00    +0.060 A 
ATOM     25  C   LIG    1        1.123   3.039  -8.637  0.00  0.00    +0.030 A 
ATOM     26  C   LIG    1        0.305   1.937  -8.802  0.00  0.00    +0.050 A 
ATOM     27  C   LIG    1       -0.598   1.585  -7.813  0.00  0.00    -0.040 A 
ATOM     28 CL   LIG    1       -1.622   0.199  -8.027  0.00  0.00    -0.060 Cl
ATOM     29  C   LIG    1       -0.683   2.333  -6.655  0.00  0.00    +0.080 A 
ENDBRANCH  20  23
ENDBRANCH  17  18
ENDBRANCH   1  17
TORSDOF 5
