REMARK  Name = ZINCrH000004v9Jk.0
REMARK                            x       y       z     vdW  Elec       q    Type
REMARK                         _______ _______ _______ _____ _____    ______ ____
ROOT
ATOM      1  O   LIG    1        0.975   0.023   0.813  0.00  0.00    -0.490 OA
ATOM      2  C   LIG    1        2.068  -0.181   0.328  0.00  0.00    +0.530 C 
ATOM      3  N   LIG    1        2.793  -1.247   0.725  0.00  0.00    -0.670 N 
ATOM      4  H   LIG    1        3.622  -1.465   0.271  0.00  0.00    +0.410 HD
ENDROOT
BRANCH   3   5
ATOM      5  C   LIG    1        2.348  -2.038   1.791  0.00  0.00    +0.190 A 
ATOM      6  C   LIG    1        2.536  -3.413   1.760  0.00  0.00    +0.030 A 
ATOM      7  C   LIG    1        2.098  -4.196   2.812  0.00  0.00    +0.090 A 
ATOM      8  C   LIG    1        1.470  -3.611   3.900  0.00  0.00    +0.010 A 
ATOM      9  O   LIG    1        0.954  -4.150   5.043  0.00  0.00    -0.290 OA
ATOM     10  C   LIG    1        0.084  -3.139   5.586  0.00  0.00    +0.570 C 
ATOM     11  O   LIG    1        0.645  -1.907   5.098  0.00  0.00    -0.290 OA
ATOM     12  F   LIG    1        0.108  -3.170   6.985  0.00  0.00    -0.120 F 
ATOM     13  F   LIG    1       -1.221  -3.307   5.112  0.00  0.00    -0.150 F 
ATOM     14  C   LIG    1        1.280  -2.231   3.933  0.00  0.00    +0.050 A 
ATOM     15  C   LIG    1        1.725  -1.447   2.882  0.00  0.00    +0.060 A 
ENDBRANCH   3   5
BRANCH   2  16
ATOM     16  C   LIG    1        2.616   0.756  -0.717  0.00  0.00    +0.240 C 
ATOM     17  C   LIG    1        2.721   2.164  -0.134  0.00  0.00    +0.030 C 
ATOM     18  C   LIG    1        3.141   3.140  -1.236  0.00  0.00    +0.030 C 
ATOM     19  C   LIG    1        2.084   3.150  -2.342  0.00  0.00    +0.020 C 
ATOM     20  C   LIG    1        1.975   1.749  -2.952  0.00  0.00    +0.270 C 
ATOM     21  N   LIG    1        1.714   0.783  -1.876  0.00  0.00    -0.600 N 
ATOM     22  C   LIG    1        0.663  -0.058  -1.948  0.00  0.00    +0.590 C 
ATOM     23  O   LIG    1        0.472  -0.870  -1.062  0.00  0.00    -0.490 OA
BRANCH  22  24
ATOM     24  C   LIG    1       -0.246   0.002  -3.096  0.00  0.00    -0.270 A 
ATOM     25  C   LIG    1       -0.833  -1.074  -3.700  0.00  0.00    +0.090 A 
ATOM     26  C   LIG    1       -1.642  -0.730  -4.757  0.00  0.00    +0.000 A 
ATOM     27  C   LIG    1       -1.717   0.581  -5.011  0.00  0.00    -0.070 A 
ATOM     28  S   LIG    1       -0.763   1.472  -3.912  0.00  0.00    +0.220 S 
ENDBRANCH  22  24
ENDBRANCH   2  16
TORSDOF 3
