REMARK  Name = ZINCrH000004snYq.0
REMARK                            x       y       z     vdW  Elec       q    Type
REMARK                         _______ _______ _______ _____ _____    ______ ____
ROOT
ATOM      1  C   LIG    1       -0.018   1.461   0.009  0.00  0.00    +0.360 C 
ATOM      2  C   LIG    1       -0.755   1.965  -1.232  0.00  0.00    +0.040 C 
ENDROOT
BRANCH   1   3
ATOM      3  N   LIG    1        0.003  -0.004   0.003  0.00  0.00    -0.740 N 
ATOM      4  H   LIG    1        0.768  -0.477  -0.359  0.00  0.00    +0.390 HD
ATOM      5  C   LIG    1       -1.042  -0.695   0.502  0.00  0.00    +0.720 C 
ATOM      6  N   LIG    1       -1.069  -2.039   0.403  0.00  0.00    -0.630 N 
ATOM      7  C   LIG    1       -2.240  -2.814   0.846  0.00  0.00    +0.320 C 
ATOM      8  C   LIG    1       -2.839  -3.499  -0.389  0.00  0.00    +0.110 C 
ATOM      9  C   LIG    1       -1.764  -4.174  -1.199  0.00  0.00    +0.100 A 
ATOM     10  N   LIG    1       -2.139  -5.123  -2.051  0.00  0.00    -0.440 NA
ATOM     11  C   LIG    1       -1.251  -5.734  -2.808  0.00  0.00    +0.230 A 
ATOM     12  C   LIG    1        0.086  -5.388  -2.717  0.00  0.00    +0.230 A 
ATOM     13  N   LIG    1        0.462  -4.452  -1.868  0.00  0.00    -0.430 NA
ATOM     14  C   LIG    1       -0.431  -3.839  -1.101  0.00  0.00    +0.060 A 
ATOM     15  C   LIG    1        0.068  -2.787  -0.143  0.00  0.00    +0.370 C 
ATOM     16  O   LIG    1       -1.959  -0.106   1.040  0.00  0.00    -0.580 OA
ENDBRANCH   1   3
BRANCH   1  19
ATOM     17  C   LIG    1        1.006   3.697   1.764  0.00  0.00    +0.150 C 
ATOM     18  C   LIG    1        1.871   2.970   0.768  0.00  0.00    +0.090 A 
ATOM     19  C   LIG    1        1.396   1.983   0.001  0.00  0.00    -0.240 A 
ATOM     20  S   LIG    1        2.709   1.393  -1.015  0.00  0.00    +0.090 S 
ATOM     21  C   LIG    1        3.795   2.576  -0.290  0.00  0.00    +0.130 A 
ATOM     22  N   LIG    1        3.139   3.267   0.598  0.00  0.00    -0.460 NA
BRANCH  21  23
ATOM     23  C   LIG    1        5.223   2.752  -0.630  0.00  0.00    -0.030 A 
ATOM     24  C   LIG    1        5.817   1.942  -1.599  0.00  0.00    +0.020 A 
ATOM     25  C   LIG    1        7.149   2.115  -1.916  0.00  0.00    +0.010 A 
ATOM     26  C   LIG    1        7.898   3.081  -1.267  0.00  0.00    +0.030 A 
ATOM     27  C   LIG    1        7.316   3.883  -0.302  0.00  0.00    +0.010 A 
ATOM     28  C   LIG    1        5.984   3.724   0.020  0.00  0.00    +0.070 A 
ENDBRANCH  21  23
ENDBRANCH   1  19
TORSDOF 3
