REMARK  Name = ZINCkj00000xBfac.0
REMARK                            x       y       z     vdW  Elec       q    Type
REMARK                         _______ _______ _______ _____ _____    ______ ____
ROOT
ATOM      1  C   LIG    1        0.022  -1.843   1.609  0.00  0.00    +0.520 C 
ATOM      2  N   LIG    1       -0.022  -0.521   1.351  0.00  0.00    -0.710 N 
ATOM      3  H   LIG    1       -0.032   0.116   2.082  0.00  0.00    +0.410 HD
ATOM      4  O   LIG    1       -0.060  -2.641   0.699  0.00  0.00    -0.530 OA
ENDROOT
BRANCH   1   5
ATOM      5  C   LIG    1        0.175  -2.329   3.027  0.00  0.00    -0.100 C 
ATOM      6  C   LIG    1        1.427  -1.704   3.676  0.00  0.00    +0.090 C 
ATOM      7  C   LIG    1        2.333  -2.901   4.034  0.00  0.00    +0.280 C 
ATOM      8  N   LIG    1        1.909  -3.982   3.107  0.00  0.00    -0.520 N 
ATOM      9  H   LIG    1        2.169  -4.885   3.476  0.00  0.00    +0.440 HD
ATOM     10  H   LIG    1        2.314  -3.842   2.194  0.00  0.00    +0.430 HD
ATOM     11  C   LIG    1        0.431  -3.852   3.047  0.00  0.00    +0.310 C 
BRANCH   5  13
ATOM     12  C   LIG    1       -2.282  -2.719   3.255  0.00  0.00    +0.020 C 
ATOM     13  C   LIG    1       -1.074  -1.987   3.842  0.00  0.00    +0.070 C 
ENDBRANCH   5  13
ENDBRANCH   1   5
BRANCH   2  14
ATOM     14  C   LIG    1       -0.054  -0.045  -0.035  0.00  0.00    +0.340 C 
BRANCH  14  15
ATOM     15  C   LIG    1       -0.100   1.461  -0.048  0.00  0.00    -0.100 A 
ATOM     16  C   LIG    1        1.075   2.188  -0.069  0.00  0.00    +0.020 A 
ATOM     17  C   LIG    1        1.034   3.570  -0.081  0.00  0.00    +0.080 A 
ATOM     18  C   LIG    1       -0.183   4.226  -0.072  0.00  0.00    -0.110 A 
ATOM     19  C   LIG    1       -1.361   3.498  -0.051  0.00  0.00    +0.100 A 
ATOM     20  F   LIG    1       -2.551   4.138  -0.042  0.00  0.00    -0.130 F 
ATOM     21  C   LIG    1       -1.318   2.114  -0.045  0.00  0.00    +0.010 A 
BRANCH  18  22
ATOM     22  C   LIG    1       -0.228   5.732  -0.085  0.00  0.00    +0.250 C 
BRANCH  22  23
ATOM     23  O   LIG    1        1.105   6.248  -0.106  0.00  0.00    -0.570 OA
ATOM     24  H   LIG    1        1.153   7.214  -0.115  0.00  0.00    +0.390 HD
ENDBRANCH  22  23
ENDBRANCH  18  22
ENDBRANCH  14  15
ENDBRANCH   2  14
TORSDOF 6
