REMARK  Name = ZINCpk00000j89Nm.0
REMARK                            x       y       z     vdW  Elec       q    Type
REMARK                         _______ _______ _______ _____ _____    ______ ____
ROOT
ATOM      1  C   LIG    1       -4.821   1.306  -0.282  0.00  0.00    +0.320 C 
ENDROOT
BRANCH   1   6
ATOM      2  C   LIG    1       -9.592   1.740  -0.060  0.00  0.00    -0.030 C 
ATOM      3  C   LIG    1       -9.169   0.357  -0.621  0.00  0.00    +0.050 C 
ATOM      4  C   LIG    1       -7.629   0.400  -0.526  0.00  0.00    +0.240 C 
ATOM      5  N   LIG    1       -7.234   1.815  -0.478  0.00  0.00    -0.610 N 
ATOM      6  C   LIG    1       -5.972   2.275  -0.371  0.00  0.00    +0.530 C 
ATOM      7  O   LIG    1       -5.762   3.469  -0.346  0.00  0.00    -0.540 OA
ATOM      8  C   LIG    1       -8.447   2.648  -0.573  0.00  0.00    +0.260 C 
BRANCH   2   9
ATOM      9  C   LIG    1      -10.940   2.177  -0.638  0.00  0.00    +0.290 C 
BRANCH   9  12
ATOM     10  C   LIG    1      -13.493  -0.605  -0.008  0.00  0.00    +0.090 C 
ATOM     11  C   LIG    1      -12.391   0.220  -0.622  0.00  0.00    +0.510 C 
ATOM     12  N   LIG    1      -12.011   1.375  -0.041  0.00  0.00    -0.620 N 
ATOM     13  C   LIG    1      -12.668   1.829   1.187  0.00  0.00    +0.290 C 
ATOM     14  O   LIG    1      -11.847  -0.156  -1.639  0.00  0.00    -0.540 OA
ENDBRANCH   9  12
ENDBRANCH   2   9
ENDBRANCH   1   6
BRANCH   1  15
ATOM     15  N   LIG    1       -3.564   2.049  -0.173  0.00  0.00    -0.730 N 
ATOM     16  H   LIG    1       -3.572   3.019  -0.168  0.00  0.00    +0.410 HD
ATOM     17  C   LIG    1       -2.394   1.385  -0.081  0.00  0.00    +0.710 C 
ATOM     18  N   LIG    1       -1.237   2.069   0.019  0.00  0.00    -0.680 N 
ATOM     19  H   LIG    1       -1.251   3.035   0.102  0.00  0.00    +0.410 HD
ATOM     20  O   LIG    1       -2.383   0.169  -0.088  0.00  0.00    -0.570 OA
BRANCH  18  21
ATOM     21  C   LIG    1       -0.017   1.385   0.003  0.00  0.00    +0.170 A 
ATOM     22  C   LIG    1        0.124   0.230  -0.755  0.00  0.00    +0.000 A 
ATOM     23  C   LIG    1        1.332  -0.440  -0.773  0.00  0.00    +0.030 A 
ATOM     24  C   LIG    1        2.400   0.038  -0.038  0.00  0.00    -0.020 A 
ATOM     25  C   LIG    1        2.264   1.189   0.718  0.00  0.00    -0.070 A 
ATOM     26  C   LIG    1        3.432   1.707   1.517  0.00  0.00    +0.100 C 
ATOM     27  C   LIG    1        1.059   1.863   0.741  0.00  0.00    -0.030 A 
ENDBRANCH  18  21
ENDBRANCH   1  15
TORSDOF 5
