REMARK  Name = ZINCvU0000000D55.0
REMARK                            x       y       z     vdW  Elec       q    Type
REMARK                         _______ _______ _______ _____ _____    ______ ____
ROOT
ATOM      1  C   LIG    1        1.330  -2.084  -0.001  0.00  0.00    +0.070 A 
ATOM      2  C   LIG    1        1.235  -0.686  -0.199  0.00  0.00    -0.060 A 
ATOM      3  C   LIG    1        0.013  -0.029  -0.374  0.00  0.00    +0.050 A 
ATOM      4  C   LIG    1        0.000   1.323  -0.561  0.00  0.00    +0.050 A 
ATOM      5  C   LIG    1        1.184   2.055  -0.579  0.00  0.00    +0.050 A 
ATOM      6  C   LIG    1        2.392   1.444  -0.411  0.00  0.00    +0.050 A 
ATOM      7  C   LIG    1        2.440   0.060  -0.218  0.00  0.00    -0.050 A 
ATOM      8  C   LIG    1        3.656  -0.646  -0.037  0.00  0.00    +0.140 A 
ATOM      9  N   LIG    1        3.614  -1.956   0.140  0.00  0.00    -0.240 NA
ATOM     10  N   LIG    1        2.525  -2.629   0.157  0.00  0.00    -0.270 NA
ENDROOT
BRANCH   8  11
ATOM     11  C   LIG    1        4.951   0.071  -0.046  0.00  0.00    -0.050 A 
ATOM     12  C   LIG    1        6.037  -0.454  -0.747  0.00  0.00    +0.090 A 
ATOM     13  C   LIG    1        7.240   0.220  -0.756  0.00  0.00    -0.010 A 
ATOM     14  C   LIG    1        7.374   1.412  -0.061  0.00  0.00    +0.110 A 
ATOM     15  C   LIG    1        6.300   1.935   0.640  0.00  0.00    -0.010 A 
ATOM     16  F   LIG    1        8.557   2.066  -0.069  0.00  0.00    -0.130 F 
ATOM     17  C   LIG    1        5.091   1.271   0.652  0.00  0.00    +0.070 A 
ENDBRANCH   8  11
BRANCH   1  18
ATOM     18  S   LIG    1       -0.121  -3.083   0.036  0.00  0.00    +0.060 S 
BRANCH  18  19
ATOM     19  C   LIG    1        0.624  -4.709   0.310  0.00  0.00    +0.110 C 
BRANCH  19  21
ATOM     20  O   LIG    1       -1.623  -5.429   0.254  0.00  0.00    -0.520 OA
ATOM     21  C   LIG    1       -0.461  -5.753   0.379  0.00  0.00    +0.530 C 
ATOM     22  N   LIG    1       -0.140  -7.047   0.578  0.00  0.00    -0.720 N 
ATOM     23  H   LIG    1        0.790  -7.306   0.677  0.00  0.00    +0.410 HD
BRANCH  22  24
ATOM     24  C   LIG    1       -1.194  -8.062   0.644  0.00  0.00    +0.260 C 
BRANCH  24  25
ATOM     25  C   LIG    1       -0.564  -9.437   0.876  0.00  0.00    +0.070 C 
BRANCH  25  26
ATOM     26  C   LIG    1       -1.649 -10.481   0.945  0.00  0.00    -0.100 A 
ATOM     27  C   LIG    1       -2.223 -10.801   2.160  0.00  0.00    +0.050 A 
ATOM     28  C   LIG    1       -3.222 -11.755   2.224  0.00  0.00    -0.010 A 
ATOM     29  C   LIG    1       -3.639 -12.397   1.070  0.00  0.00    +0.100 A 
ATOM     30  C   LIG    1       -3.058 -12.080  -0.146  0.00  0.00    -0.010 A 
ATOM     31  F   LIG    1       -4.610 -13.334   1.132  0.00  0.00    -0.140 F 
ATOM     32  C   LIG    1       -2.064 -11.122  -0.208  0.00  0.00    +0.050 A 
ENDBRANCH  25  26
ENDBRANCH  24  25
ENDBRANCH  22  24
ENDBRANCH  19  21
ENDBRANCH  18  19
ENDBRANCH   1  18
TORSDOF 7
