REMARK  Name = ZINCtV00001bB3rr.0
REMARK                            x       y       z     vdW  Elec       q    Type
REMARK                         _______ _______ _______ _____ _____    ______ ____
ROOT
ATOM      1  C   LIG    1        0.002  -0.004   0.002  0.00  0.00    +0.300 A 
ATOM      2  N   LIG    1        1.228  -0.422  -0.012  0.00  0.00    -0.440 NA
ATOM      3  C   LIG    1        2.184   0.508  -0.016  0.00  0.00    +0.100 A 
ATOM      4  C   LIG    1        1.740   1.785  -0.005  0.00  0.00    -0.050 A 
ATOM      5  S   LIG    1       -0.022   1.756   0.012  0.00  0.00    +0.100 S 
ENDROOT
BRANCH   1   8
ATOM      6  C   LIG    1       -2.203  -3.046   0.008  0.00  0.00    +0.110 C 
ATOM      7  C   LIG    1       -0.983  -2.161   0.001  0.00  0.00    +0.510 C 
ATOM      8  N   LIG    1       -1.123  -0.821   0.009  0.00  0.00    -0.480 N 
ATOM      9  O   LIG    1        0.125  -2.655  -0.013  0.00  0.00    -0.460 OA
BRANCH   8  10
ATOM     10  C   LIG    1       -2.402  -0.250   0.024  0.00  0.00    +0.100 A 
ATOM     11  C   LIG    1       -3.047   0.044  -1.170  0.00  0.00    +0.030 A 
ATOM     12  C   LIG    1       -4.310   0.603  -1.152  0.00  0.00    +0.020 A 
ATOM     13  C   LIG    1       -4.929   0.877   0.054  0.00  0.00    +0.030 A 
ATOM     14  C   LIG    1       -4.287   0.590   1.245  0.00  0.00    -0.080 A 
ATOM     15  C   LIG    1       -4.965   0.891   2.557  0.00  0.00    +0.100 C 
ATOM     16  C   LIG    1       -3.026   0.027   1.233  0.00  0.00    -0.060 A 
ATOM     17  C   LIG    1       -2.328  -0.286   2.532  0.00  0.00    +0.100 C 
ENDBRANCH   8  10
ENDBRANCH   1   8
BRANCH   3  18
ATOM     18  C   LIG    1        3.614   0.170  -0.031  0.00  0.00    +0.150 C 
ATOM     19  C   LIG    1        4.002  -1.123  -0.041  0.00  0.00    -0.030 C 
ATOM     20 CL   LIG    1        2.811  -2.386  -0.035  0.00  0.00    +0.030 Cl
BRANCH  19  21
ATOM     21  C   LIG    1        5.427  -1.460  -0.056  0.00  0.00    +0.150 A 
ATOM     22  N   LIG    1        6.392  -0.596  -0.066  0.00  0.00    -0.460 NA
ATOM     23  C   LIG    1        7.652  -1.062  -0.076  0.00  0.00    +0.080 A 
ATOM     24  C   LIG    1        8.863  -0.335  -0.084  0.00  0.00    +0.080 A 
ATOM     25  C   LIG    1       10.067  -0.992  -0.100  0.00  0.00    +0.030 A 
ATOM     26  C   LIG    1       10.117  -2.378  -0.107  0.00  0.00    +0.040 A 
ATOM     27  C   LIG    1        8.949  -3.109  -0.098  0.00  0.00    +0.060 A 
ATOM     28  C   LIG    1        7.717  -2.461  -0.083  0.00  0.00    -0.180 A 
ATOM     29  S   LIG    1        6.073  -3.095  -0.069  0.00  0.00    +0.100 S 
ENDBRANCH  19  21
ENDBRANCH   3  18
TORSDOF 4
