REMARK  Name = ZINCqH00000v6riZ.0
REMARK                            x       y       z     vdW  Elec       q    Type
REMARK                         _______ _______ _______ _____ _____    ______ ____
ROOT
ATOM      1  C   LIG    1        1.200   2.063   0.002  0.00  0.00    +0.390 A 
ATOM      2  C   LIG    1       -0.017   1.387   0.010  0.00  0.00    -0.140 A 
ATOM      3  C   LIG    1        0.002  -0.004   0.002  0.00  0.00    +0.460 A 
ATOM      4  N   LIG    1        1.175  -0.634  -0.013  0.00  0.00    -0.550 NA
ATOM      5  C   LIG    1        2.306   0.042  -0.020  0.00  0.00    +0.310 A 
ATOM      6  N   LIG    1        2.330   1.359  -0.013  0.00  0.00    -0.560 NA
ENDROOT
BRANCH   1  10
ATOM      7  C   LIG    1        2.772   4.864  -1.230  0.00  0.00    -0.030 C 
ATOM      8  C   LIG    1        1.310   5.292  -1.525  0.00  0.00    +0.040 C 
ATOM      9  C   LIG    1        0.529   4.003  -1.166  0.00  0.00    +0.200 C 
ATOM     10  N   LIG    1        1.234   3.449   0.009  0.00  0.00    -0.460 N 
ATOM     11  C   LIG    1        2.624   3.943  -0.002  0.00  0.00    +0.220 C 
BRANCH   7  12
ATOM     12  C   LIG    1        3.634   6.082  -0.892  0.00  0.00    +0.030 C 
BRANCH  12  14
ATOM     13  C   LIG    1        4.727   8.128  -1.819  0.00  0.00    +0.000 C 
ATOM     14  C   LIG    1        3.865   6.910  -2.158  0.00  0.00    +0.000 C 
ENDBRANCH  12  14
ENDBRANCH   7  12
ENDBRANCH   1  10
BRANCH   5  15
ATOM     15  C   LIG    1        3.610  -0.714  -0.037  0.00  0.00    +0.550 C 
ATOM     16  F   LIG    1        4.197  -0.659   1.232  0.00  0.00    -0.160 F 
ATOM     17  F   LIG    1        4.472  -0.135  -0.975  0.00  0.00    -0.160 F 
ATOM     18  F   LIG    1        3.371  -2.048  -0.383  0.00  0.00    -0.160 F 
ENDBRANCH   5  15
BRANCH   3  19
ATOM     19  N   LIG    1       -1.183  -0.724   0.010  0.00  0.00    -0.590 N 
ATOM     20  C   LIG    1       -1.152  -2.185   0.112  0.00  0.00    +0.300 C 
BRANCH  19  21
ATOM     21  C   LIG    1       -2.466  -0.023  -0.084  0.00  0.00    +0.330 C 
BRANCH  21  22
ATOM     22  C   LIG    1       -2.862   0.121  -1.555  0.00  0.00    +0.120 C 
ATOM     23  C   LIG    1       -4.148   0.966  -1.685  0.00  0.00    +0.010 C 
ATOM     24  C   LIG    1       -4.922   0.297  -2.843  0.00  0.00    +0.000 C 
ATOM     25  C   LIG    1       -4.011  -0.874  -3.276  0.00  0.00    +0.190 C 
ATOM     26  O   LIG    1       -3.208  -1.166  -2.111  0.00  0.00    -0.370 OA
ENDBRANCH  21  22
ENDBRANCH  19  21
ENDBRANCH   3  19
TORSDOF 7
