REMARK  Name = ZINCrD0000074rbE.0
REMARK                            x       y       z     vdW  Elec       q    Type
REMARK                         _______ _______ _______ _____ _____    ______ ____
ROOT
ATOM      1  C   LIG    1        3.907   0.129   4.796  0.00  0.00    +0.510 C 
ATOM      2  O   LIG    1        3.285   0.180   5.839  0.00  0.00    -0.490 OA
ENDROOT
BRANCH   1   3
ATOM      3  C   LIG    1        5.194  -0.592   4.739  0.00  0.00    -0.140 A 
ATOM      4  C   LIG    1        5.911  -0.652   3.542  0.00  0.00    +0.170 A 
ATOM      5  C   LIG    1        7.113  -1.327   3.495  0.00  0.00    +0.020 A 
ATOM      6  C   LIG    1        7.610  -1.943   4.632  0.00  0.00    +0.080 A 
ATOM      7  C   LIG    1        6.903  -1.887   5.822  0.00  0.00    -0.690 A 
ATOM      8 CL   LIG    1        9.124  -2.790   4.565  0.00  0.00    -0.020 Cl
ATOM      9  C   LIG    1        5.703  -1.211   5.883  0.00  0.00    +0.230 A 
BRANCH   7  10
ATOM     10  S   LIG    1        7.543  -2.675   7.263  0.00  0.00    +2.700 S 
ATOM     11  O   LIG    1        6.584  -2.469   8.292  0.00  0.00    -0.950 OA
ATOM     12  O   LIG    1        8.900  -2.269   7.372  0.00  0.00    -0.940 OA
BRANCH  10  13
ATOM     13  N   LIG    1        7.563  -4.303   6.963  0.00  0.00    -1.240 NA
ATOM     14  H   LIG    1        6.907  -4.695   6.366  0.00  0.00    +0.420 HD
ATOM     15  H   LIG    1        8.232  -4.865   7.384  0.00  0.00    +0.430 HD
ENDBRANCH  10  13
ENDBRANCH   7  10
ENDBRANCH   1   3
BRANCH   1  16
ATOM     16  O   LIG    1        3.422   0.730   3.692  0.00  0.00    -0.330 OA
BRANCH  16  17
ATOM     17  C   LIG    1        2.151   1.420   3.822  0.00  0.00    +0.170 C 
ATOM     18  C   LIG    1        2.400   2.876   4.223  0.00  0.00    +0.080 C 
BRANCH  17  19
ATOM     19  C   LIG    1        1.420   1.379   2.505  0.00  0.00    +0.400 C 
ATOM     20  O   LIG    1        2.013   1.075   1.492  0.00  0.00    -0.420 OA
BRANCH  19  25
ATOM     21  C   LIG    1       -4.178   2.666   2.281  0.00  0.00    +0.100 C 
ATOM     22  C   LIG    1       -2.710   2.329   2.340  0.00  0.00    -0.040 A 
ATOM     23  C   LIG    1       -2.007   2.109   1.168  0.00  0.00    +0.000 A 
ATOM     24  C   LIG    1       -0.665   1.795   1.214  0.00  0.00    -0.020 A 
ATOM     25  C   LIG    1       -0.013   1.709   2.447  0.00  0.00    -0.180 A 
ATOM     26  C   LIG    1       -0.729   1.938   3.627  0.00  0.00    +0.060 A 
ATOM     27  C   LIG    1        0.097   1.550  -0.063  0.00  0.00    +0.100 C 
ATOM     28  C   LIG    1       -2.071   2.246   3.565  0.00  0.00    -0.100 A 
ATOM     29  C   LIG    1       -2.845   2.492   4.834  0.00  0.00    +0.090 C 
ENDBRANCH  19  25
ENDBRANCH  17  19
ENDBRANCH  16  17
ENDBRANCH   1  16
TORSDOF 7
