REMARK  Name = ZINCrD000000A5Mk.0
REMARK                            x       y       z     vdW  Elec       q    Type
REMARK                         _______ _______ _______ _____ _____    ______ ____
ROOT
ATOM      1  O   LIG    1       -1.710   9.223  -1.055  0.00  0.00    -0.500 OA
ATOM      2  C   LIG    1       -0.922   8.457  -0.531  0.00  0.00    +0.640 C 
ATOM      3  N   LIG    1        0.199   8.934   0.046  0.00  0.00    -0.660 N 
ATOM      4  H   LIG    1        0.793   8.333   0.521  0.00  0.00    +0.420 HD
ENDROOT
BRANCH   3   5
ATOM      5  C   LIG    1        0.504  10.296  -0.040  0.00  0.00    +0.140 A 
ATOM      6  C   LIG    1        1.827  10.707  -0.140  0.00  0.00    -0.010 A 
ATOM      7  C   LIG    1        2.125  12.053  -0.231  0.00  0.00    +0.040 A 
ATOM      8  C   LIG    1        1.109  12.991  -0.210  0.00  0.00    -0.090 A 
ATOM      9  C   LIG    1       -0.209  12.585  -0.105  0.00  0.00    +0.040 A 
ATOM     10  C   LIG    1       -0.514  11.240  -0.020  0.00  0.00    +0.020 A 
BRANCH   8  11
ATOM     11  C   LIG    1        1.438  14.458  -0.303  0.00  0.00    +0.140 C 
BRANCH  11  12
ATOM     12  C   LIG    1        1.640  15.017   1.082  0.00  0.00    -0.030 A 
ATOM     13  C   LIG    1        0.576  15.549   1.794  0.00  0.00    -0.040 A 
ATOM     14  C   LIG    1        0.798  16.049   3.063  0.00  0.00    +0.260 A 
ATOM     15  N   LIG    1        2.006  16.031   3.593  0.00  0.00    -0.490 NA
ATOM     16  C   LIG    1        3.041  15.537   2.943  0.00  0.00    +0.260 A 
ATOM     17  C   LIG    1        2.895  15.015   1.672  0.00  0.00    -0.040 A 
ENDBRANCH  11  12
ENDBRANCH   8  11
ENDBRANCH   3   5
BRANCH   2  18
ATOM     18  C   LIG    1       -1.185   7.050  -0.529  0.00  0.00    -0.200 C 
ATOM     19  C   LIG    1       -1.401   5.896  -0.527  0.00  0.00    -0.010 C 
BRANCH  19  20
ATOM     20  C   LIG    1       -1.665   4.488  -0.525  0.00  0.00    -0.000 A 
ATOM     21  C   LIG    1       -0.760   3.606   0.076  0.00  0.00    +0.090 A 
ATOM     22  C   LIG    1       -1.018   2.253   0.081  0.00  0.00    +0.050 A 
ATOM     23  C   LIG    1       -2.169   1.758  -0.518  0.00  0.00    +0.060 A 
ATOM     24  O   LIG    1       -2.642   0.485  -0.647  0.00  0.00    -0.300 OA
ATOM     25  C   LIG    1       -3.636   0.547  -1.686  0.00  0.00    +0.440 C 
ATOM     26  O   LIG    1       -4.115   1.903  -1.623  0.00  0.00    -0.300 OA
ATOM     27  C   LIG    1       -3.077   2.632  -1.119  0.00  0.00    +0.030 A 
ATOM     28  C   LIG    1       -2.828   3.990  -1.124  0.00  0.00    +0.080 A 
ENDBRANCH  19  20
ENDBRANCH   2  18
TORSDOF 5
