REMARK  Name = ZINCrD00000F5Lnl.0
REMARK                            x       y       z     vdW  Elec       q    Type
REMARK                         _______ _______ _______ _____ _____    ______ ____
ROOT
ATOM      1  N   LIG    1       -0.735   1.431  -1.025  0.00  0.00    -0.590 N 
ENDROOT
BRANCH   1   2
ATOM      2  C   LIG    1       -0.383   2.699  -1.430  0.00  0.00    +0.450 A 
ATOM      3  C   LIG    1        0.703   3.339  -0.868  0.00  0.00    -0.170 A 
ATOM      4  C   LIG    1        1.034   4.621  -1.304  0.00  0.00    +0.380 A 
ATOM      5  N   LIG    1        0.317   5.216  -2.233  0.00  0.00    -0.490 NA
ATOM      6  C   LIG    1       -0.743   4.612  -2.787  0.00  0.00    +0.410 A 
ATOM      7  N   LIG    1       -1.598   5.006  -3.720  0.00  0.00    -0.480 NA
ATOM      8  C   LIG    1       -2.495   4.037  -3.936  0.00  0.00    +0.220 A 
ATOM      9  C   LIG    1       -2.211   2.998  -3.125  0.00  0.00    +0.120 A 
ATOM     10  N   LIG    1       -1.105   3.349  -2.394  0.00  0.00    -0.420 N 
ENDBRANCH   1   2
BRANCH   1  11
ATOM     11  C   LIG    1       -1.980   0.828  -1.508  0.00  0.00    +0.410 C 
BRANCH  11  14
ATOM     12  N   LIG    1       -1.305  -1.327  -4.356  0.00  0.00    -0.280 N 
ATOM     13  C   LIG    1       -1.450  -1.166  -3.021  0.00  0.00    +0.170 A 
ATOM     14  C   LIG    1       -1.728   0.145  -2.828  0.00  0.00    -0.070 A 
ATOM     15  N   LIG    1       -1.730   0.715  -4.037  0.00  0.00    -0.250 NA
ATOM     16  N   LIG    1       -1.476  -0.183  -4.922  0.00  0.00    -0.080 NA
BRANCH  12  18
ATOM     17  C   LIG    1        0.514  -2.811  -5.042  0.00  0.00    +0.060 C 
ATOM     18  C   LIG    1       -0.999  -2.586  -5.041  0.00  0.00    +0.250 C 
ATOM     19  C   LIG    1       -1.687  -3.742  -4.312  0.00  0.00    +0.060 C 
ENDBRANCH  12  18
ENDBRANCH  11  14
ENDBRANCH   1  11
BRANCH   1  20
ATOM     20  C   LIG    1        0.134   0.685  -0.112  0.00  0.00    +0.310 C 
BRANCH  20  21
ATOM     21  C   LIG    1       -0.183   1.082   1.331  0.00  0.00    +0.030 C 
BRANCH  21  22
ATOM     22  C   LIG    1        0.809   0.400   2.277  0.00  0.00    -0.030 C 
ATOM     23  C   LIG    1        1.536   1.283   3.293  0.00  0.00    +0.010 C 
ATOM     24  C   LIG    1        2.294   0.716   2.090  0.00  0.00    +0.010 C 
ENDBRANCH  21  22
BRANCH  21  25
ATOM     25  C   LIG    1       -1.606   0.641   1.681  0.00  0.00    -0.050 C 
ATOM     26  C   LIG    1       -2.680   1.727   1.771  0.00  0.00    +0.000 C 
ATOM     27  C   LIG    1       -2.159   1.056   3.045  0.00  0.00    +0.020 C 
ENDBRANCH  21  25
ENDBRANCH  20  21
ENDBRANCH   1  20
TORSDOF 8
