REMARK  Name = ZINCvU0000000Fbj.0
REMARK                            x       y       z     vdW  Elec       q    Type
REMARK                         _______ _______ _______ _____ _____    ______ ____
ROOT
ATOM      1  C   LIG    1        3.382   4.716   4.582  0.00  0.00    -0.140 A 
ATOM      2  C   LIG    1        2.131   4.708   5.201  0.00  0.00    +0.150 A 
ATOM      3  C   LIG    1        0.991   4.905   4.449  0.00  0.00    +0.010 A 
ATOM      4  C   LIG    1        1.087   5.114   3.085  0.00  0.00    +0.170 A 
ATOM      5  C   LIG    1        2.323   5.117   2.463  0.00  0.00    -0.690 A 
ATOM      6  C   LIG    1        3.471   4.922   3.204  0.00  0.00    +0.210 A 
ENDROOT
BRANCH   5   7
ATOM      7  S   LIG    1        2.433   5.378   0.724  0.00  0.00    +2.690 S 
ATOM      8  O   LIG    1        1.251   6.071   0.347  0.00  0.00    -0.930 OA
ATOM      9  O   LIG    1        3.740   5.876   0.475  0.00  0.00    -0.930 OA
BRANCH   7  10
ATOM     10  N   LIG    1        2.353   3.890   0.000  0.00  0.00    -1.050 N 
ATOM     11  H   LIG    1        3.091   3.578  -0.547  0.00  0.00    +0.440 HD
BRANCH  10  12
ATOM     12  C   LIG    1        1.224   3.086   0.177  0.00  0.00    +0.170 A 
ATOM     13  C   LIG    1       -0.035   3.664   0.268  0.00  0.00    +0.060 A 
ATOM     14  C   LIG    1       -1.149   2.866   0.443  0.00  0.00    -0.150 A 
ATOM     15  C   LIG    1       -1.012   1.493   0.522  0.00  0.00    +0.080 A 
ATOM     16  C   LIG    1        0.240   0.913   0.438  0.00  0.00    +0.080 A 
ATOM     17  C   LIG    1        1.359   1.705   0.263  0.00  0.00    -0.030 A 
ATOM     18 CL   LIG    1        2.931   0.976   0.149  0.00  0.00    -0.040 Cl
BRANCH  14  19
ATOM     19  C   LIG    1       -2.516   3.494   0.542  0.00  0.00    +0.510 C 
ATOM     20  F   LIG    1       -2.403   4.771   1.103  0.00  0.00    -0.170 F 
ATOM     21  F   LIG    1       -3.336   2.700   1.351  0.00  0.00    -0.170 F 
ATOM     22  F   LIG    1       -3.076   3.594  -0.736  0.00  0.00    -0.170 F 
ENDBRANCH  14  19
ENDBRANCH  10  12
ENDBRANCH   7  10
ENDBRANCH   5   7
BRANCH   1  24
ATOM     23  O   LIG    1        5.694   4.513   4.839  0.00  0.00    -0.490 OA
ATOM     24  C   LIG    1        4.607   4.506   5.381  0.00  0.00    +0.520 C 
BRANCH  24  25
ATOM     25  O   LIG    1        4.518   4.307   6.710  0.00  0.00    -0.340 OA
BRANCH  25  26
ATOM     26  C   LIG    1        5.762   4.108   7.432  0.00  0.00    +0.260 C 
BRANCH  26  27
ATOM     27  C   LIG    1        5.462   3.900   8.918  0.00  0.00    +0.260 C 
ATOM     28  F   LIG    1        4.806   5.027   9.423  0.00  0.00    -0.170 F 
ATOM     29  F   LIG    1        6.661   3.708   9.613  0.00  0.00    -0.160 F 
BRANCH  27  30
ATOM     30  C   LIG    1        4.570   2.670   9.091  0.00  0.00    +0.380 C 
ATOM     31  F   LIG    1        3.371   2.862   8.396  0.00  0.00    -0.170 F 
ATOM     32  F   LIG    1        4.296   2.479  10.449  0.00  0.00    -0.180 F 
ENDBRANCH  27  30
ENDBRANCH  26  27
ENDBRANCH  25  26
ENDBRANCH  24  25
ENDBRANCH   1  24
TORSDOF 9
