REMARK  Name = ZINCfA000000yw6H.0
REMARK                            x       y       z     vdW  Elec       q    Type
REMARK                         _______ _______ _______ _____ _____    ______ ____
ROOT
ATOM      1  C   LIG    1        0.141   4.934   6.992  0.00  0.00    +0.070 C 
ENDROOT
BRANCH   1   2
ATOM      2  C   LIG    1        0.920   6.250   7.037  0.00  0.00    +0.280 C 
BRANCH   2   3
ATOM      3  N   LIG    1        1.576   6.386   8.345  0.00  0.00    -0.380 N 
ATOM      4  H   LIG    1        0.887   6.301   9.077  0.00  0.00    +0.420 HD
BRANCH   3   6
ATOM      5  C   LIG    1        3.612   5.439   7.369  0.00  0.00    +0.080 C 
ATOM      6  C   LIG    1        2.587   5.331   8.499  0.00  0.00    +0.240 C 
ENDBRANCH   3   6
BRANCH   3   7
ATOM      7  C   LIG    1        2.224   7.702   8.433  0.00  0.00    +0.240 C 
ATOM      8  C   LIG    1        2.784   7.901   9.843  0.00  0.00    +0.080 C 
ENDBRANCH   3   7
ENDBRANCH   2   3
ENDBRANCH   1   2
BRANCH   1   9
ATOM      9  S   LIG    1       -0.668   4.766   5.378  0.00  0.00    -0.180 S 
BRANCH   9  10
ATOM     10  C   LIG    1       -1.526   3.173   5.515  0.00  0.00    +0.220 C 
BRANCH  10  11
ATOM     11  C   LIG    1       -2.259   2.885   4.231  0.00  0.00    +0.030 A 
ATOM     12  N   LIG    1       -1.762   2.250   3.223  0.00  0.00    -0.450 NA
ATOM     13  C   LIG    1       -2.542   2.083   2.174  0.00  0.00    +0.070 A 
ATOM     14  C   LIG    1       -3.763   2.611   2.302  0.00  0.00    -0.050 A 
ATOM     15  C   LIG    1       -2.091   1.362   0.930  0.00  0.00    +0.160 C 
ATOM     16  S   LIG    1       -3.869   3.352   3.897  0.00  0.00    +0.160 S 
ENDBRANCH  10  11
ENDBRANCH   9  10
ENDBRANCH   1   9
TORSDOF 7
