REMARK  Name = ZINCpe00000MJK5U.1
REMARK                            x       y       z     vdW  Elec       q    Type
REMARK                         _______ _______ _______ _____ _____    ______ ____
ROOT
ATOM      1  C   LIG    1       -0.759   3.107   1.270  0.00  0.00    +0.140 C 
ATOM      2  C   LIG    1        0.545   3.925   1.441  0.00  0.00    +0.280 C 
ATOM      3  N   LIG    1        0.120   5.184   2.081  0.00  0.00    -0.620 N 
ATOM      4  C   LIG    1       -1.141   4.947   2.798  0.00  0.00    +0.280 C 
ATOM      5  C   LIG    1        0.779   6.358   2.017  0.00  0.00    +0.530 C 
ATOM      6  O   LIG    1        1.816   6.439   1.393  0.00  0.00    -0.510 OA
ATOM      7  C   LIG    1       -1.527   3.470   2.569  0.00  0.00    +0.280 C 
ENDROOT
BRANCH   7   8
ATOM      8  N   LIG    1       -1.078   2.637   3.687  0.00  0.00    -0.270 N 
ATOM      9  C   LIG    1        0.000   2.875   4.470  0.00  0.00    +0.130 A 
ATOM     10  C   LIG    1        0.044   1.864   5.368  0.00  0.00    +0.140 A 
ATOM     11  N   LIG    1       -0.996   1.068   5.095  0.00  0.00    -0.270 NA
ATOM     12  N   LIG    1       -1.644   1.556   4.097  0.00  0.00    -0.070 NA
ENDBRANCH   7   8
BRANCH   1  14
ATOM     13  C   LIG    1       -1.708   0.894   1.019  0.00  0.00    +0.210 C 
ATOM     14  N   LIG    1       -0.474   1.667   1.212  0.00  0.00    -0.530 NA
ATOM     15  C   LIG    1        0.505   1.367   0.160  0.00  0.00    +0.200 C 
ENDBRANCH   1  14
BRANCH   5  16
ATOM     16  C   LIG    1        0.227   7.571   2.720  0.00  0.00    +0.120 C 
BRANCH  16  17
ATOM     17  C   LIG    1        1.144   8.745   2.494  0.00  0.00    -0.070 A 
ATOM     18  C   LIG    1        2.177   8.995   3.378  0.00  0.00    +0.030 A 
ATOM     19  C   LIG    1        3.024  10.068   3.168  0.00  0.00    +0.040 A 
ATOM     20  C   LIG    1        2.829  10.896   2.082  0.00  0.00    -0.130 A 
ATOM     21  C   LIG    1        3.556  12.124   1.587  0.00  0.00    +0.270 C 
ATOM     22  O   LIG    1        3.162  12.290   0.213  0.00  0.00    -0.360 OA
ATOM     23  C   LIG    1        1.844  11.717   0.132  0.00  0.00    +0.270 C 
ATOM     24  C   LIG    1        1.790  10.648   1.198  0.00  0.00    -0.130 A 
ATOM     25  C   LIG    1        0.949   9.575   1.404  0.00  0.00    +0.040 A 
ENDBRANCH  16  17
ENDBRANCH   5  16
TORSDOF 4
