REMARK  Name = ZINCrg000000rapR.0
REMARK                            x       y       z     vdW  Elec       q    Type
REMARK                         _______ _______ _______ _____ _____    ______ ____
ROOT
ATOM      1  N   LIG    1        0.882   2.745   0.957  0.00  0.00    -0.680 N 
ATOM      2  H   LIG    1        0.670   1.899   0.531  0.00  0.00    +0.410 HD
ATOM      3  C   LIG    1        2.128   2.974   1.417  0.00  0.00    +0.710 C 
ATOM      4  N   LIG    1        3.080   2.029   1.285  0.00  0.00    -0.620 N 
ATOM      5  C   LIG    1        2.788   0.765   0.595  0.00  0.00    +0.280 C 
ATOM      6  C   LIG    1        3.814   0.581  -0.536  0.00  0.00    +0.290 C 
ATOM      7  N   LIG    1        5.160   0.794   0.013  0.00  0.00    -1.000 NA
ATOM      8  C   LIG    1        5.450   2.056   0.708  0.00  0.00    +0.290 C 
ATOM      9  C   LIG    1        4.426   2.242   1.835  0.00  0.00    +0.310 C 
ATOM     10  O   LIG    1        2.393   4.034   1.950  0.00  0.00    -0.560 OA
ENDROOT
BRANCH   1  15
ATOM     11  C   LIG    1       -2.417   4.345   1.288  0.00  0.00    -0.060 A 
ATOM     12  C   LIG    1       -2.052   5.685   1.347  0.00  0.00    -0.030 A 
ATOM     13  C   LIG    1       -0.719   6.042   1.276  0.00  0.00    +0.050 A 
ATOM     14  C   LIG    1        0.254   5.070   1.147  0.00  0.00    +0.020 A 
ATOM     15  C   LIG    1       -0.105   3.728   1.087  0.00  0.00    +0.180 A 
ATOM     16  C   LIG    1       -1.442   3.366   1.152  0.00  0.00    +0.000 A 
BRANCH  11  18
ATOM     17  C   LIG    1       -4.960   5.488   1.538  0.00  0.00    +0.150 C 
ATOM     18  S   LIG    1       -4.117   3.890   1.378  0.00  0.00    -0.120 S 
ENDBRANCH  11  18
ENDBRANCH   1  15
BRANCH   7  19
ATOM     19  S   LIG    1        6.329  -0.368  -0.147  0.00  0.00    +2.620 S 
ATOM     20  O   LIG    1        5.606  -1.590  -0.182  0.00  0.00    -0.940 OA
ATOM     21  O   LIG    1        7.246  -0.089   0.902  0.00  0.00    -0.930 OA
BRANCH  19  22
ATOM     22  C   LIG    1        7.085  -0.029  -1.761  0.00  0.00    -0.450 C 
ATOM     23  C   LIG    1        6.137  -0.469  -2.890  0.00  0.00    +0.120 C 
ATOM     24  C   LIG    1        6.924  -0.491  -4.216  0.00  0.00    -0.290 C 
ATOM     25  S   LIG    1        8.657  -0.823  -3.735  0.00  0.00    +2.400 S 
ATOM     26  O   LIG    1        9.029  -2.120  -4.182  0.00  0.00    -0.930 OA
ATOM     27  O   LIG    1        9.462   0.300  -4.068  0.00  0.00    -0.920 OA
ATOM     28  C   LIG    1        8.384  -0.860  -1.923  0.00  0.00    -0.270 C 
ENDBRANCH  19  22
ENDBRANCH   7  19
TORSDOF 4
