REMARK  Name = ZINC5c0000003YBS.0
REMARK                            x       y       z     vdW  Elec       q    Type
REMARK                         _______ _______ _______ _____ _____    ______ ____
ROOT
ATOM      1  O   LIG    1        0.002  -0.004   0.002  0.00  0.00    -0.140 OA
ATOM      2  N   LIG    1       -0.014   1.214   0.009  0.00  0.00    -0.020 N 
ATOM      3  O   LIG    1        1.032   1.837   0.002  0.00  0.00    -0.130 OA
ENDROOT
BRANCH   2   4
ATOM      4  C   LIG    1       -1.293   1.929   0.019  0.00  0.00    +0.330 C 
ATOM      5 BR   LIG    1       -1.420   3.067  -1.580  0.00  0.00    -0.040 Br
ENDBRANCH   2   4
TORSDOF 1
