REMARK  Name = ZINCrH00000No518.0
REMARK                            x       y       z     vdW  Elec       q    Type
REMARK                         _______ _______ _______ _____ _____    ______ ____
ROOT
ATOM      1  O   LIG    1       -1.091  -0.573   0.211  0.00  0.00    -0.390 OA
ATOM      2  C   LIG    1       -0.118   0.138   0.353  0.00  0.00    +0.470 C 
ATOM      3  N   LIG    1       -0.016   1.288  -0.343  0.00  0.00    -0.620 N 
ENDROOT
BRANCH   3   4
ATOM      4  C   LIG    1       -0.454   1.340  -1.740  0.00  0.00    +0.250 C 
ATOM      5  C   LIG    1       -0.004   0.068  -2.463  0.00  0.00    +0.000 C 
ATOM      6  C   LIG    1       -0.624  -1.153  -1.781  0.00  0.00    -0.010 C 
ATOM      7  C   LIG    1       -2.150  -1.048  -1.837  0.00  0.00    +0.010 C 
ATOM      8  C   LIG    1       -2.600   0.223  -1.114  0.00  0.00    +0.040 C 
ATOM      9  C   LIG    1       -1.979   1.444  -1.792  0.00  0.00    -0.060 C 
ATOM     10  C   LIG    1       -2.437   1.508  -3.252  0.00  0.00    +0.000 C 
ATOM     11  C   LIG    1       -1.874   2.776  -3.901  0.00  0.00    +0.200 C 
ATOM     12  O   LIG    1       -2.306   3.920  -3.161  0.00  0.00    -0.380 OA
ATOM     13  C   LIG    1       -1.865   3.937  -1.802  0.00  0.00    +0.200 C 
ATOM     14  C   LIG    1       -2.429   2.716  -1.069  0.00  0.00    +0.000 C 
ENDBRANCH   3   4
BRANCH   2  15
ATOM     15  C   LIG    1        0.976  -0.265   1.307  0.00  0.00    +0.150 C 
ATOM     16 CL   LIG    1        0.557  -1.844   2.070  0.00  0.00    -0.120 Cl
ENDBRANCH   2  15
BRANCH   3  17
ATOM     17  C   LIG    1        0.539   2.483   0.296  0.00  0.00    +0.380 C 
BRANCH  17  18
ATOM     18  C   LIG    1        1.553   3.118  -0.621  0.00  0.00    +0.070 A 
ATOM     19  C   LIG    1        1.419   4.303  -1.261  0.00  0.00    -0.090 A 
ATOM     20  C   LIG    1        2.581   4.523  -2.006  0.00  0.00    +0.250 A 
ATOM     21  N   LIG    1        3.385   3.507  -1.821  0.00  0.00    -0.270 NA
ATOM     22  N   LIG    1        2.760   2.609  -0.946  0.00  0.00    -0.340 N 
BRANCH  22  23
ATOM     23  C   LIG    1        3.317   1.340  -0.471  0.00  0.00    +0.240 C 
ATOM     24  C   LIG    1        4.774   1.034  -0.820  0.00  0.00    +0.120 C 
ATOM     25  C   LIG    1        3.643   0.275  -1.520  0.00  0.00    +0.200 C 
ATOM     26  F   LIG    1        3.387   0.588  -2.859  0.00  0.00    -0.140 F 
ATOM     27  F   LIG    1        3.447  -1.063  -1.164  0.00  0.00    -0.150 F 
ENDBRANCH  22  23
ENDBRANCH  17  18
ENDBRANCH   3  17
TORSDOF 5
