REMARK  Name = ZINCrH000004qIsO.0
REMARK                            x       y       z     vdW  Elec       q    Type
REMARK                         _______ _______ _______ _____ _____    ______ ____
ROOT
ATOM      1  N   LIG    1       -2.943  -0.533   0.992  0.00  0.00    -0.730 N 
ATOM      2  H   LIG    1       -2.946   0.428   1.121  0.00  0.00    +0.400 HD
ATOM      3  C   LIG    1       -1.796  -1.228   1.125  0.00  0.00    +0.570 C 
ATOM      4  O   LIG    1       -1.794  -2.433   0.963  0.00  0.00    -0.530 OA
ENDROOT
BRANCH   3   5
ATOM      5  C   LIG    1       -0.543  -0.526   1.468  0.00  0.00    -0.180 A 
ATOM      6  C   LIG    1       -0.548   0.864   1.655  0.00  0.00    +0.090 A 
ATOM      7  C   LIG    1        0.599   1.527   1.971  0.00  0.00    -0.020 A 
ATOM      8  C   LIG    1        1.797   0.827   2.114  0.00  0.00    +0.150 A 
ATOM      9  N   LIG    1        3.077   1.201   2.418  0.00  0.00    -0.500 N 
ATOM     10  H   LIG    1        3.369   2.108   2.598  0.00  0.00    +0.440 HD
ATOM     11  N   LIG    1        3.897   0.069   2.427  0.00  0.00    -0.250 NA
ATOM     12  C   LIG    1        3.198  -0.993   2.145  0.00  0.00    +0.110 A 
ATOM     13  C   LIG    1        3.721  -2.404   2.057  0.00  0.00    +0.180 C 
ATOM     14  C   LIG    1        1.817  -0.571   1.929  0.00  0.00    -0.190 A 
ATOM     15  C   LIG    1        0.639  -1.245   1.604  0.00  0.00    +0.180 A 
ENDBRANCH   3   5
BRANCH   1  20
ATOM     16  N   LIG    1       -6.402  -0.946  -0.354  0.00  0.00    -0.490 N 
ATOM     17  C   LIG    1       -7.069  -1.431   0.861  0.00  0.00    +0.180 C 
ATOM     18  C   LIG    1       -6.165  -2.442   1.571  0.00  0.00    +0.050 C 
ATOM     19  C   LIG    1       -4.836  -1.769   1.929  0.00  0.00    +0.000 C 
ATOM     20  C   LIG    1       -4.187  -1.229   0.652  0.00  0.00    +0.250 C 
ATOM     21  C   LIG    1       -5.148  -0.254  -0.032  0.00  0.00    +0.170 C 
BRANCH  16  29
ATOM     22  C   LIG    1       -7.044  -1.728  -3.013  0.00  0.00    +0.100 C 
ATOM     23  C   LIG    1       -7.592  -0.466  -2.399  0.00  0.00    -0.030 A 
ATOM     24  C   LIG    1       -8.433   0.350  -3.131  0.00  0.00    -0.010 A 
ATOM     25  C   LIG    1       -8.937   1.510  -2.567  0.00  0.00    +0.100 A 
ATOM     26  C   LIG    1       -8.600   1.855  -1.269  0.00  0.00    -0.010 A 
ATOM     27  C   LIG    1       -7.764   1.039  -0.532  0.00  0.00    +0.020 A 
ATOM     28  F   LIG    1       -9.759   2.307  -3.285  0.00  0.00    -0.140 F 
ATOM     29  C   LIG    1       -7.253  -0.122  -1.097  0.00  0.00    +0.070 A 
ENDBRANCH  16  29
ENDBRANCH   1  20
TORSDOF 3
