REMARK  Name = ZINCtj00000nxB3x.0
REMARK                            x       y       z     vdW  Elec       q    Type
REMARK                         _______ _______ _______ _____ _____    ______ ____
ROOT
ATOM      1  C   LIG    1        4.126   2.953   0.049  0.00  0.00    +0.190 C 
ATOM      2  C   LIG    1        3.737   1.497   0.005  0.00  0.00    +0.150 A 
ATOM      3  C   LIG    1        2.467   0.993   0.007  0.00  0.00    -0.120 A 
ATOM      4  N   LIG    1        2.542  -0.348  -0.035  0.00  0.00    -0.200 NA
ATOM      5  N   LIG    1        3.777  -0.711  -0.072  0.00  0.00    -0.050 NA
ATOM      6  N   LIG    1        4.577   0.440  -0.044  0.00  0.00    -0.310 N 
ENDROOT
BRANCH   6   7
ATOM      7  C   LIG    1        5.975   0.485  -0.064  0.00  0.00    +0.130 A 
ATOM      8  C   LIG    1        6.659   1.264   0.844  0.00  0.00    +0.050 A 
ATOM      9  C   LIG    1        8.050   1.314   0.830  0.00  0.00    +0.050 A 
ATOM     10  C   LIG    1        8.771   0.599  -0.076  0.00  0.00    +0.090 A 
ATOM     11  C   LIG    1        8.113  -0.209  -1.020  0.00  0.00    +0.140 A 
ATOM     12  N   LIG    1        8.803  -0.919  -1.918  0.00  0.00    -0.460 NA
ATOM     13  C   LIG    1        8.196  -1.674  -2.802  0.00  0.00    +0.310 A 
ATOM     14  C   LIG    1        6.808  -1.775  -2.849  0.00  0.00    -0.010 A 
ATOM     15  C   LIG    1        6.043  -1.074  -1.959  0.00  0.00    +0.080 A 
ATOM     16  C   LIG    1        6.698  -0.270  -1.010  0.00  0.00    -0.090 A 
ENDBRANCH   6   7
BRANCH   3  17
ATOM     17  C   LIG    1        1.224   1.786   0.054  0.00  0.00    +0.620 C 
ATOM     18  N   LIG    1        0.028   1.166   0.051  0.00  0.00    -0.730 N 
ATOM     19  H   LIG    1       -0.016   0.197   0.018  0.00  0.00    +0.400 HD
ATOM     20  O   LIG    1        1.279   3.000   0.095  0.00  0.00    -0.510 OA
BRANCH  18  21
ATOM     21  C   LIG    1       -1.206   1.954   0.091  0.00  0.00    +0.280 C 
BRANCH  21  22
ATOM     22  C   LIG    1       -2.413   1.013   0.071  0.00  0.00    +0.120 C 
ATOM     23  C   LIG    1       -2.361   0.087   1.288  0.00  0.00    +0.230 C 
ATOM     24  N   LIG    1       -3.554   0.278   2.116  0.00  0.00    -0.370 N 
ATOM     25  C   LIG    1       -3.621   1.654   2.614  0.00  0.00    +0.260 C 
ATOM     26  C   LIG    1       -3.715   2.632   1.442  0.00  0.00    +0.080 C 
ATOM     27  C   LIG    1       -4.764  -0.056   1.361  0.00  0.00    +0.250 C 
ATOM     28  C   LIG    1       -4.896   0.866   0.147  0.00  0.00    +0.080 C 
ATOM     29  H   LIG    1       -3.493  -0.339   2.912  0.00  0.00    +0.430 HD
ATOM     30  C   LIG    1       -3.707   1.835   0.130  0.00  0.00    +0.050 C 
BRANCH  22  31
ATOM     31  O   LIG    1       -2.392   0.233  -1.125  0.00  0.00    -0.530 OA
ATOM     32  H   LIG    1       -1.602  -0.316  -1.224  0.00  0.00    +0.390 HD
ENDBRANCH  22  31
ENDBRANCH  21  22
ENDBRANCH  18  21
ENDBRANCH   3  17
TORSDOF 5
