REMARK  Name = ZINCpe000000UyNI.0
REMARK                            x       y       z     vdW  Elec       q    Type
REMARK                         _______ _______ _______ _____ _____    ______ ____
ROOT
ATOM      1  C   LIG    1        0.836   4.276  -1.252  0.00  0.00    +0.300 C 
ATOM      2  N   LIG    1        0.991   3.551   0.012  0.00  0.00    -0.600 N 
ATOM      3  C   LIG    1        0.870   4.206   1.184  0.00  0.00    +0.510 C 
ATOM      4  O   LIG    1        0.999   3.606   2.229  0.00  0.00    -0.520 OA
ENDROOT
BRANCH   3   5
ATOM      5  C   LIG    1        0.575   5.684   1.194  0.00  0.00    +0.340 C 
BRANCH   5   6
ATOM      6  N   LIG    1        0.492   6.155   2.579  0.00  0.00    -0.520 N 
ATOM      7  C   LIG    1       -0.702   6.146   3.225  0.00  0.00    +0.610 A 
ATOM      8  N   LIG    1       -0.820   6.549   4.455  0.00  0.00    -0.500 NA
ATOM      9  C   LIG    1        0.239   7.012   5.155  0.00  0.00    +0.080 A 
ATOM     10  C   LIG    1        1.493   7.054   4.554  0.00  0.00    -0.230 A 
ATOM     11  C   LIG    1        2.510   7.576   5.446  0.00  0.00    +0.080 A 
ATOM     12  C   LIG    1        2.074   7.911   6.646  0.00  0.00    -0.050 A 
ATOM     13  S   LIG    1        0.352   7.616   6.802  0.00  0.00    +0.200 S 
ATOM     14  C   LIG    1        1.601   6.600   3.203  0.00  0.00    +0.570 A 
ATOM     15  O   LIG    1        2.675   6.614   2.626  0.00  0.00    -0.520 OA
ENDBRANCH   5   6
ENDBRANCH   3   5
BRANCH   2  16
ATOM     16  C   LIG    1        1.278   2.115   0.001  0.00  0.00    +0.340 C 
BRANCH  16  17
ATOM     17  C   LIG    1       -0.016   1.344   0.009  0.00  0.00    +0.500 C 
ATOM     18  N   LIG    1        0.002  -0.004   0.002  0.00  0.00    -0.730 N 
ATOM     19  H   LIG    1        0.849  -0.478  -0.009  0.00  0.00    +0.410 HD
ATOM     20  O   LIG    1       -1.075   1.936   0.018  0.00  0.00    -0.530 OA
BRANCH  18  21
ATOM     21  C   LIG    1       -1.256  -0.754   0.010  0.00  0.00    +0.400 C 
BRANCH  21  22
ATOM     22  C   LIG    1       -0.961  -2.232  -0.001  0.00  0.00    -0.050 A 
ATOM     23  C   LIG    1       -0.796  -3.009   1.085  0.00  0.00    -0.030 A 
ATOM     24  C   LIG    1       -0.539  -4.317   0.616  0.00  0.00    -0.070 A 
ATOM     25  C   LIG    1       -0.561  -4.262  -0.728  0.00  0.00    +0.180 A 
ATOM     26  O   LIG    1       -0.823  -2.997  -1.096  0.00  0.00    -0.170 OA
ENDBRANCH  21  22
ENDBRANCH  18  21
ENDBRANCH  16  17
ENDBRANCH   2  16
TORSDOF 6
