REMARK  Name = ZINCvU0000000JOB.0
REMARK                            x       y       z     vdW  Elec       q    Type
REMARK                         _______ _______ _______ _____ _____    ______ ____
ROOT
ATOM      1  C   LIG    1       -2.927   1.275  -1.979  0.00  0.00    -0.690 A 
ATOM      2  C   LIG    1       -2.403   0.307  -2.816  0.00  0.00    +0.160 A 
ATOM      3  C   LIG    1       -3.206  -0.716  -3.289  0.00  0.00    +0.010 A 
ATOM      4  C   LIG    1       -4.538  -0.770  -2.937  0.00  0.00    +0.110 A 
ATOM      5  C   LIG    1       -5.075   0.207  -2.097  0.00  0.00    -0.160 A 
ATOM      6  C   LIG    1       -4.258   1.233  -1.619  0.00  0.00    +0.200 A 
ENDROOT
BRANCH   5   7
ATOM      7  C   LIG    1       -6.502   0.156  -1.716  0.00  0.00    +0.570 C 
ATOM      8  N   LIG    1       -7.288  -0.836  -2.179  0.00  0.00    -0.660 N 
ATOM      9  H   LIG    1       -6.939  -1.469  -2.826  0.00  0.00    +0.420 HD
ATOM     10  O   LIG    1       -6.967   1.009  -0.985  0.00  0.00    -0.500 OA
BRANCH   8  11
ATOM     11  C   LIG    1       -8.609  -0.951  -1.728  0.00  0.00    +0.110 A 
ATOM     12  C   LIG    1       -8.969  -0.433  -0.492  0.00  0.00    +0.090 A 
ATOM     13  C   LIG    1      -10.274  -0.543  -0.051  0.00  0.00    +0.010 A 
ATOM     14  C   LIG    1      -11.220  -1.181  -0.835  0.00  0.00    +0.120 A 
ATOM     15  C   LIG    1      -10.864  -1.704  -2.066  0.00  0.00    -0.010 A 
ATOM     16  F   LIG    1      -12.494  -1.292  -0.398  0.00  0.00    -0.130 F 
ATOM     17  C   LIG    1       -9.561  -1.591  -2.515  0.00  0.00    +0.100 A 
ATOM     18  F   LIG    1       -9.213  -2.103  -3.716  0.00  0.00    -0.130 F 
ENDBRANCH   8  11
ENDBRANCH   5   7
BRANCH   1  19
ATOM     19  S   LIG    1       -1.894   2.569  -1.376  0.00  0.00    +2.680 S 
ATOM     20  O   LIG    1       -0.816   2.683  -2.295  0.00  0.00    -0.930 OA
ATOM     21  O   LIG    1       -2.755   3.652  -1.051  0.00  0.00    -0.930 OA
BRANCH  19  22
ATOM     22  N   LIG    1       -1.238   2.048   0.052  0.00  0.00    -0.950 N 
BRANCH  22  23
ATOM     23  C   LIG    1       -0.022   1.359   0.052  0.00  0.00    +0.140 A 
ATOM     24  C   LIG    1       -0.009  -0.029   0.049  0.00  0.00    +0.040 A 
ATOM     25  C   LIG    1        1.194  -0.707   0.043  0.00  0.00    +0.030 A 
ATOM     26  C   LIG    1        2.386  -0.006   0.042  0.00  0.00    +0.050 A 
ATOM     27  C   LIG    1        2.377   1.377   0.046  0.00  0.00    +0.040 A 
ATOM     28  C   LIG    1        1.177   2.062   0.051  0.00  0.00    -0.020 A 
ATOM     29 CL   LIG    1        1.167   3.798   0.055  0.00  0.00    -0.050 Cl
ENDBRANCH  22  23
BRANCH  22  30
ATOM     30  C   LIG    1       -1.932   2.309   1.315  0.00  0.00    +0.330 C 
BRANCH  30  32
ATOM     31  C   LIG    1       -2.195   4.548   2.256  0.00  0.00    +0.040 C 
ATOM     32  C   LIG    1       -1.385   3.568   1.938  0.00  0.00    -0.070 C 
ENDBRANCH  30  32
ENDBRANCH  22  30
ENDBRANCH  19  22
ENDBRANCH   1  19
TORSDOF 7
