REMARK  Name = ZINCtV00000L6jcA.0
REMARK                            x       y       z     vdW  Elec       q    Type
REMARK                         _______ _______ _______ _____ _____    ______ ____
ROOT
ATOM      1  N   LIG    1        1.111  -2.071  -0.345  0.00  0.00    -0.670 N 
ATOM      2  H   LIG    1        1.901  -2.608  -0.174  0.00  0.00    +0.410 HD
ATOM      3  C   LIG    1       -0.030  -2.661  -0.750  0.00  0.00    +0.570 C 
ATOM      4  O   LIG    1       -0.991  -1.981  -1.054  0.00  0.00    -0.500 OA
ENDROOT
BRANCH   1  11
ATOM      5  C   LIG    1        1.858   0.108  -1.073  0.00  0.00    -0.050 A 
ATOM      6  C   LIG    1        1.904   1.476  -0.900  0.00  0.00    +0.050 A 
ATOM      7  C   LIG    1        1.252   2.063   0.176  0.00  0.00    -0.120 A 
ATOM      8  C   LIG    1        0.552   1.273   1.079  0.00  0.00    +0.020 A 
ATOM      9  C   LIG    1        0.506  -0.096   0.906  0.00  0.00    -0.040 A 
ATOM     10  C   LIG    1       -0.254  -0.954   1.886  0.00  0.00    +0.100 C 
ATOM     11  C   LIG    1        1.158  -0.683  -0.170  0.00  0.00    +0.140 A 
BRANCH   5  13
ATOM     12  C   LIG    1        1.580  -0.718  -3.395  0.00  0.00    +0.030 C 
ATOM     13  C   LIG    1        2.566  -0.529  -2.241  0.00  0.00    +0.070 C 
ENDBRANCH   5  13
BRANCH   7  14
ATOM     14  S   LIG    1        1.311   3.811   0.397  0.00  0.00    +0.200 S 
BRANCH  14  15
ATOM     15  C   LIG    1        0.320   3.971   1.902  0.00  0.00    +0.170 C 
ATOM     16  N   LIG    1       -0.302   4.072   2.848  0.00  0.00    -0.360 NA
ENDBRANCH  14  15
ENDBRANCH   7  14
ENDBRANCH   1  11
BRANCH   3  17
ATOM     17  C   LIG    1       -0.115  -4.135  -0.824  0.00  0.00    -0.130 A 
ATOM     18  C   LIG    1        0.988  -4.918  -0.481  0.00  0.00    +0.140 A 
ATOM     19  C   LIG    1        0.901  -6.294  -0.547  0.00  0.00    -0.190 A 
ATOM     20  C   LIG    1       -0.273  -6.896  -0.964  0.00  0.00    +0.170 A 
ATOM     21  C   LIG    1       -1.368  -6.125  -1.311  0.00  0.00    -0.190 A 
ATOM     22  C   LIG    1       -1.296  -4.749  -1.244  0.00  0.00    +0.190 A 
BRANCH  21  23
ATOM     23  C   LIG    1       -2.642  -6.790  -1.763  0.00  0.00    +0.510 C 
ATOM     24  F   LIG    1       -3.121  -7.621  -0.745  0.00  0.00    -0.170 F 
ATOM     25  F   LIG    1       -2.389  -7.554  -2.908  0.00  0.00    -0.170 F 
ATOM     26  F   LIG    1       -3.600  -5.813  -2.057  0.00  0.00    -0.170 F 
ENDBRANCH  21  23
BRANCH  19  27
ATOM     27  C   LIG    1        2.089  -7.141  -0.171  0.00  0.00    +0.510 C 
ATOM     28  F   LIG    1        1.645  -8.367   0.337  0.00  0.00    -0.170 F 
ATOM     29  F   LIG    1        2.845  -6.479   0.802  0.00  0.00    -0.170 F 
ATOM     30  F   LIG    1        2.880  -7.365  -1.304  0.00  0.00    -0.170 F 
ENDBRANCH  19  27
ENDBRANCH   3  17
TORSDOF 7
