REMARK  Name = ZINCqH0000005ZYu.0
REMARK                            x       y       z     vdW  Elec       q    Type
REMARK                         _______ _______ _______ _____ _____    ______ ____
ROOT
ATOM      1  C   LIG    1       -1.230  -1.978   0.496  0.00  0.00    +0.580 C 
ATOM      2  N   LIG    1       -1.198  -0.721   0.009  0.00  0.00    -0.650 N 
ATOM      3  H   LIG    1       -2.010  -0.311  -0.329  0.00  0.00    +0.420 HD
ATOM      4  O   LIG    1       -0.238  -2.455   1.011  0.00  0.00    -0.500 OA
ENDROOT
BRANCH   1   9
ATOM      5  C   LIG    1       -4.681  -2.931  -0.263  0.00  0.00    +0.090 A 
ATOM      6  C   LIG    1       -4.774  -4.237   0.222  0.00  0.00    +0.080 A 
ATOM      7  C   LIG    1       -3.666  -4.819   0.817  0.00  0.00    +0.080 A 
ATOM      8  C   LIG    1       -2.497  -4.081   0.904  0.00  0.00    +0.080 A 
ATOM      9  C   LIG    1       -2.474  -2.777   0.402  0.00  0.00    +0.070 A 
ATOM     10  N   LIG    1       -3.550  -2.251  -0.160  0.00  0.00    -0.410 NA
BRANCH   5  11
ATOM     11  C   LIG    1       -5.860  -2.300  -0.900  0.00  0.00    +0.520 C 
ATOM     12  O   LIG    1       -6.901  -2.919  -0.998  0.00  0.00    -0.490 OA
BRANCH  11  14
ATOM     13  C   LIG    1       -6.973  -0.487  -1.982  0.00  0.00    +0.280 C 
ATOM     14  O   LIG    1       -5.778  -1.041  -1.371  0.00  0.00    -0.330 OA
ENDBRANCH  11  14
ENDBRANCH   5  11
ENDBRANCH   1   9
BRANCH   2  15
ATOM     15  C   LIG    1        0.004  -0.008  -0.008  0.00  0.00    +0.150 A 
ATOM     16  C   LIG    1        1.216  -0.687  -0.031  0.00  0.00    +0.020 A 
ATOM     17  C   LIG    1        2.402   0.021  -0.048  0.00  0.00    +0.030 A 
ATOM     18  C   LIG    1        2.384   1.403  -0.042  0.00  0.00    -0.010 A 
ATOM     19  C   LIG    1        1.179   2.082  -0.020  0.00  0.00    +0.040 A 
ATOM     20  C   LIG    1       -0.010   1.381  -0.003  0.00  0.00    -0.100 A 
BRANCH  20  21
ATOM     21  C   LIG    1       -1.322   2.122   0.016  0.00  0.00    +0.130 C 
BRANCH  21  22
ATOM     22  C   LIG    1       -1.804   2.256   1.438  0.00  0.00    -0.080 A 
ATOM     23  C   LIG    1       -2.616   1.282   1.987  0.00  0.00    +0.010 A 
ATOM     24  C   LIG    1       -3.054   1.402   3.292  0.00  0.00    +0.000 A 
ATOM     25  C   LIG    1       -2.687   2.502   4.046  0.00  0.00    +0.000 A 
ATOM     26  C   LIG    1       -1.879   3.478   3.495  0.00  0.00    +0.000 A 
ATOM     27  C   LIG    1       -1.437   3.355   2.191  0.00  0.00    +0.010 A 
ENDBRANCH  21  22
ENDBRANCH  20  21
ENDBRANCH   2  15
TORSDOF 6
