REMARK  Name = ZINCpe00000MJILG.0
REMARK                            x       y       z     vdW  Elec       q    Type
REMARK                         _______ _______ _______ _____ _____    ______ ____
ROOT
ATOM      1  C   LIG    1       -0.014   1.211   0.009  0.00  0.00    +0.570 C 
ATOM      2  N   LIG    1        1.002   1.795  -0.656  0.00  0.00    -0.610 N 
ATOM      3  C   LIG    1        0.776   2.993  -1.480  0.00  0.00    +0.290 C 
ATOM      4  C   LIG    1        1.373   2.756  -2.866  0.00  0.00    +0.190 C 
ATOM      5  N   LIG    1        2.779   2.351  -2.730  0.00  0.00    -0.530 NA
ATOM      6  C   LIG    1        2.899   1.077  -2.009  0.00  0.00    +0.270 C 
ATOM      7  C   LIG    1        3.434   2.277  -4.043  0.00  0.00    +0.200 C 
ATOM      8  C   LIG    1        2.365   1.248  -0.583  0.00  0.00    +0.320 C 
ATOM      9  O   LIG    1        0.165   0.160   0.592  0.00  0.00    -0.520 OA
ENDROOT
BRANCH   1  14
ATOM     10  C   LIG    1       -3.751   1.665   0.115  0.00  0.00    -0.140 A 
ATOM     11  C   LIG    1       -3.851   3.057   0.051  0.00  0.00    +0.070 A 
ATOM     12  C   LIG    1       -2.710   3.831  -0.027  0.00  0.00    +0.010 A 
ATOM     13  C   LIG    1       -1.464   3.237  -0.035  0.00  0.00    +0.080 A 
ATOM     14  C   LIG    1       -1.350   1.846   0.024  0.00  0.00    -0.140 A 
ATOM     15  C   LIG    1       -2.496   1.059   0.102  0.00  0.00    +0.150 A 
BRANCH  10  19
ATOM     16  C   LIG    1       -7.396   0.605   0.293  0.00  0.00    +0.290 C 
ATOM     17  N   LIG    1       -6.186   1.425   0.211  0.00  0.00    -0.730 N 
ATOM     18  H   LIG    1       -6.256   2.392   0.166  0.00  0.00    +0.400 HD
ATOM     19  C   LIG    1       -4.973   0.837   0.198  0.00  0.00    +0.560 C 
ATOM     20  O   LIG    1       -4.884  -0.374   0.255  0.00  0.00    -0.530 OA
ENDBRANCH  10  19
ENDBRANCH   1  14
BRANCH   6  21
ATOM     21  C   LIG    1        4.346   0.661  -1.958  0.00  0.00    +0.190 A 
ATOM     22  N   LIG    1        4.823  -0.539  -2.186  0.00  0.00    -0.470 NA
ATOM     23  C   LIG    1        6.155  -0.435  -2.029  0.00  0.00    +0.170 A 
ATOM     24  N   LIG    1        6.415   0.798  -1.712  0.00  0.00    -0.380 NA
ATOM     25  C   LIG    1        7.161  -1.546  -2.187  0.00  0.00    +0.210 C 
ATOM     26  O   LIG    1        5.389   1.445  -1.666  0.00  0.00    +0.100 OA
ENDBRANCH   6  21
TORSDOF 3
