REMARK  Name = ZINCqH0000005vp7.0
REMARK                            x       y       z     vdW  Elec       q    Type
REMARK                         _______ _______ _______ _____ _____    ______ ____
ROOT
ATOM      1  C   LIG    1       -0.048  -0.004   0.003  0.00  0.00    -0.130 A 
ATOM      2  C   LIG    1        0.918  -0.721  -0.704  0.00  0.00    +0.140 A 
ATOM      3  C   LIG    1        0.888  -2.100  -0.701  0.00  0.00    -0.190 A 
ATOM      4  C   LIG    1       -0.105  -2.772  -0.012  0.00  0.00    +0.160 A 
ATOM      5  C   LIG    1       -1.070  -2.067   0.685  0.00  0.00    -0.180 A 
ATOM      6  C   LIG    1       -1.048  -0.688   0.697  0.00  0.00    +0.170 A 
ENDROOT
BRANCH   1  12
ATOM      7  C   LIG    1        3.096   3.322   1.949  0.00  0.00    +0.040 C 
ATOM      8  C   LIG    1        1.730   3.987   1.768  0.00  0.00    +0.050 C 
ATOM      9  C   LIG    1        1.149   3.589   0.408  0.00  0.00    +0.290 C 
ATOM     10  N   LIG    1        1.123   2.123   0.315  0.00  0.00    -0.610 N 
ATOM     11  C   LIG    1        2.364   1.378   0.567  0.00  0.00    +0.280 C 
ATOM     12  C   LIG    1       -0.018   1.474   0.010  0.00  0.00    +0.570 C 
ATOM     13  O   LIG    1       -1.021   2.104  -0.263  0.00  0.00    -0.510 OA
ATOM     14  C   LIG    1        2.933   1.801   1.920  0.00  0.00    +0.050 C 
BRANCH   7  15
ATOM     15  C   LIG    1        3.686   3.738   3.272  0.00  0.00    +0.460 C 
ATOM     16  O   LIG    1        3.076   4.489   3.996  0.00  0.00    -0.500 OA
BRANCH  15  18
ATOM     17  C   LIG    1        5.395   3.717   4.933  0.00  0.00    +0.250 C 
ATOM     18  O   LIG    1        4.889   3.274   3.646  0.00  0.00    -0.360 OA
ENDBRANCH  15  18
ENDBRANCH   7  15
ENDBRANCH   1  12
BRANCH   5  19
ATOM     19  C   LIG    1       -2.148  -2.808   1.435  0.00  0.00    +0.510 C 
ATOM     20  F   LIG    1       -2.549  -2.053   2.542  0.00  0.00    -0.170 F 
ATOM     21  F   LIG    1       -1.652  -4.042   1.867  0.00  0.00    -0.170 F 
ATOM     22  F   LIG    1       -3.244  -3.015   0.591  0.00  0.00    -0.170 F 
ENDBRANCH   5  19
BRANCH   3  23
ATOM     23  C   LIG    1        1.935  -2.877  -1.458  0.00  0.00    +0.510 C 
ATOM     24  F   LIG    1        3.201  -2.570  -0.948  0.00  0.00    -0.170 F 
ATOM     25  F   LIG    1        1.882  -2.534  -2.813  0.00  0.00    -0.170 F 
ATOM     26  F   LIG    1        1.694  -4.247  -1.314  0.00  0.00    -0.170 F 
ENDBRANCH   3  23
TORSDOF 5
