REMARK  Name = ZINCrH000004oseX.0
REMARK                            x       y       z     vdW  Elec       q    Type
REMARK                         _______ _______ _______ _____ _____    ______ ____
ROOT
ATOM      1  C   LIG    1       -6.531  -1.538  -1.248  0.00  0.00    +0.090 C 
ATOM      2  C   LIG    1       -6.489  -0.750   0.063  0.00  0.00    +0.020 C 
ENDROOT
BRANCH   2   3
ATOM      3  C   LIG    1       -7.753   0.058   0.204  0.00  0.00    +0.480 C 
ATOM      4  O   LIG    1       -7.775   1.212  -0.153  0.00  0.00    -0.480 OA
BRANCH   3   5
ATOM      5  O   LIG    1       -8.855  -0.504   0.726  0.00  0.00    -0.350 OA
BRANCH   5   6
ATOM      6  C   LIG    1      -10.036   0.335   0.831  0.00  0.00    +0.280 C 
BRANCH   6   7
ATOM      7  C   LIG    1      -11.164  -0.461   1.435  0.00  0.00    -0.090 A 
ATOM      8  C   LIG    1      -12.028  -1.166   0.618  0.00  0.00    +0.040 A 
ATOM      9  C   LIG    1      -13.060  -1.899   1.172  0.00  0.00    +0.030 A 
ATOM     10  C   LIG    1      -13.235  -1.919   2.543  0.00  0.00    -0.120 A 
ATOM     11  C   LIG    1      -12.375  -1.210   3.360  0.00  0.00    +0.030 A 
ATOM     12  C   LIG    1      -11.339  -0.481   2.806  0.00  0.00    +0.040 A 
BRANCH  10  13
ATOM     13  C   LIG    1      -14.363  -2.715   3.147  0.00  0.00    +0.280 C 
ATOM     14  F   LIG    1      -15.501  -1.907   3.249  0.00  0.00    -0.210 F 
ENDBRANCH  10  13
ENDBRANCH   6   7
ENDBRANCH   5   6
ENDBRANCH   3   5
ENDBRANCH   2   3
BRANCH   2  15
ATOM     15  S   LIG    1       -5.057   0.363   0.054  0.00  0.00    -0.060 S 
BRANCH  15  16
ATOM     16  C   LIG    1       -3.651  -0.783   0.034  0.00  0.00    +0.140 C 
BRANCH  16  17
ATOM     17  C   LIG    1       -2.364   0.002   0.026  0.00  0.00    +0.460 A 
ATOM     18  N   LIG    1       -2.434   1.304   0.034  0.00  0.00    -0.580 NA
ATOM     19  C   LIG    1       -1.329   2.074   0.032  0.00  0.00    +0.530 A 
ATOM     20  C   LIG    1       -0.017   1.403   0.010  0.00  0.00    -0.210 A 
ATOM     21  C   LIG    1        1.179   2.117   0.002  0.00  0.00    +0.110 A 
ATOM     22  C   LIG    1        2.376   1.433  -0.013  0.00  0.00    -0.010 A 
ATOM     23  C   LIG    1        2.394   0.046  -0.021  0.00  0.00    +0.080 A 
ATOM     24  C   LIG    1        1.218  -0.674  -0.013  0.00  0.00    -0.020 A 
ATOM     25  C   LIG    1        0.002  -0.004   0.002  0.00  0.00    +0.180 A 
ATOM     26  O   LIG    1       -1.412   3.290   0.040  0.00  0.00    -0.470 OA
ATOM     27  N   LIG    1       -1.204  -0.677   0.010  0.00  0.00    -0.620 N 
ATOM     28  H   LIG    1       -1.214  -1.647   0.006  0.00  0.00    +0.420 HD
ENDBRANCH  16  17
ENDBRANCH  15  16
ENDBRANCH   2  15
TORSDOF 8
