REMARK  Name = ZINCrg00000SjSL0.0
REMARK                            x       y       z     vdW  Elec       q    Type
REMARK                         _______ _______ _______ _____ _____    ______ ____
ROOT
ATOM      1  C   LIG    1       -3.220  -2.087  -3.028  0.00  0.00    -0.020 C 
ATOM      2  C   LIG    1       -2.087  -2.776  -3.821  0.00  0.00    +0.050 C 
ATOM      3  C   LIG    1       -2.708  -4.119  -4.264  0.00  0.00    +0.150 C 
ATOM      4  O   LIG    1       -4.135  -3.890  -4.261  0.00  0.00    -0.340 OA
ATOM      5  C   LIG    1       -2.412  -5.182  -3.205  0.00  0.00    +0.150 C 
ATOM      6  C   LIG    1       -2.819  -4.695  -1.813  0.00  0.00    +0.020 C 
ATOM      7  C   LIG    1       -3.080  -5.958  -0.952  0.00  0.00    +0.230 C 
ATOM      8  N   LIG    1       -4.517  -6.270  -1.066  0.00  0.00    -0.450 N 
ATOM      9  C   LIG    1       -5.151  -5.259  -1.942  0.00  0.00    +0.240 C 
ATOM     10  C   LIG    1       -4.216  -4.038  -1.852  0.00  0.00    -0.020 C 
ATOM     11  C   LIG    1       -4.369  -3.126  -3.060  0.00  0.00    +0.220 C 
ENDROOT
BRANCH   8  12
ATOM     12  C   LIG    1       -4.709  -7.548  -1.563  0.00  0.00    +0.490 A 
ATOM     13  N   LIG    1       -5.395  -7.709  -2.685  0.00  0.00    -0.550 NA
ATOM     14  C   LIG    1       -5.592  -8.916  -3.189  0.00  0.00    +0.340 A 
ATOM     15  C   LIG    1       -5.080 -10.018  -2.524  0.00  0.00    -0.110 A 
ATOM     16  C   LIG    1       -4.372  -9.815  -1.350  0.00  0.00    +0.340 A 
ATOM     17  N   LIG    1       -4.207  -8.581  -0.903  0.00  0.00    -0.530 NA
ENDBRANCH   8  12
BRANCH   1  19
ATOM     18  O   LIG    1       -1.642  -2.034  -1.274  0.00  0.00    -0.520 OA
ATOM     19  C   LIG    1       -2.787  -1.819  -1.610  0.00  0.00    +0.530 C 
ATOM     20  N   LIG    1       -3.674  -1.341  -0.714  0.00  0.00    -0.730 N 
ATOM     21  H   LIG    1       -4.590  -1.170  -0.982  0.00  0.00    +0.400 HD
BRANCH  20  22
ATOM     22  C   LIG    1       -3.253  -1.080   0.665  0.00  0.00    +0.340 C 
BRANCH  22  23
ATOM     23  C   LIG    1       -4.423  -0.555   1.456  0.00  0.00    -0.130 A 
ATOM     24  C   LIG    1       -4.700   0.747   1.548  0.00  0.00    -0.020 A 
ATOM     25  S   LIG    1       -6.129   0.976   2.548  0.00  0.00    +0.110 S 
ATOM     26  C   LIG    1       -6.274  -0.760   2.792  0.00  0.00    -0.040 A 
ATOM     27  C   LIG    1       -5.291  -1.386   2.142  0.00  0.00    +0.010 A 
ENDBRANCH  22  23
ENDBRANCH  20  22
ENDBRANCH   1  19
BRANCH   5  28
ATOM     28  O   LIG    1       -1.013  -5.473  -3.211  0.00  0.00    -0.550 OA
ATOM     29  H   LIG    1       -0.685  -5.809  -4.056  0.00  0.00    +0.380 HD
ENDBRANCH   5  28
TORSDOF 5
