REMARK  Name = ZINCpe000000YeHz.0
REMARK                            x       y       z     vdW  Elec       q    Type
REMARK                         _______ _______ _______ _____ _____    ______ ____
ROOT
ATOM      1  C   LIG    1       -6.691  -3.767  -1.485  0.00  0.00    +0.340 C 
ATOM      2  N   LIG    1       -7.687  -2.694  -1.544  0.00  0.00    -0.510 N 
ATOM      3  C   LIG    1       -8.939  -2.961  -1.960  0.00  0.00    +0.710 A 
ATOM      4  N   LIG    1       -9.878  -2.002  -2.029  0.00  0.00    -0.650 N 
ATOM      5  H   LIG    1      -10.771  -2.228  -2.333  0.00  0.00    +0.440 HD
ATOM      6  C   LIG    1       -9.598  -0.729  -1.681  0.00  0.00    +0.600 A 
ATOM      7  C   LIG    1       -8.303  -0.405  -1.240  0.00  0.00    -0.150 A 
ATOM      8  N   LIG    1       -7.685   0.762  -0.811  0.00  0.00    -0.390 N 
ATOM      9  C   LIG    1       -8.301   2.087  -0.701  0.00  0.00    +0.360 C 
ATOM     10  C   LIG    1       -6.399   0.439  -0.515  0.00  0.00    +0.450 A 
ATOM     11  N   LIG    1       -6.210  -0.847  -0.732  0.00  0.00    -0.510 NA
ATOM     12  O   LIG    1      -10.459   0.132  -1.747  0.00  0.00    -0.510 OA
ATOM     13  O   LIG    1       -9.228  -4.097  -2.282  0.00  0.00    -0.530 OA
ATOM     14  C   LIG    1       -7.338  -1.405  -1.173  0.00  0.00    +0.330 A 
ENDROOT
BRANCH  10  15
ATOM     15  N   LIG    1       -5.444   1.316  -0.055  0.00  0.00    -0.450 N 
ATOM     16  C   LIG    1       -4.547   0.659   0.929  0.00  0.00    +0.240 C 
ATOM     17  C   LIG    1       -3.289   1.558   0.929  0.00  0.00    +0.020 C 
ATOM     18  C   LIG    1       -2.090   0.760   1.411  0.00  0.00    +0.030 C 
ATOM     19  C   LIG    1       -0.796   1.591   1.337  0.00  0.00    +0.010 C 
ATOM     20  C   LIG    1       -0.018   1.053   0.094  0.00  0.00    +0.020 C 
ATOM     21  C   LIG    1       -0.754   1.556  -1.110  0.00  0.00    +0.000 C 
ATOM     22  C   LIG    1       -2.172   1.062  -1.240  0.00  0.00    +0.070 C 
ATOM     23  C   LIG    1       -3.164   1.984  -0.562  0.00  0.00    +0.040 C 
ATOM     24  C   LIG    1       -4.568   1.771  -1.156  0.00  0.00    +0.240 C 
BRANCH  23  25
ATOM     25  C   LIG    1       -2.738   3.388  -0.676  0.00  0.00    +0.220 C 
ATOM     26  N   LIG    1       -2.410   4.472  -0.763  0.00  0.00    -0.420 NA
ENDBRANCH  23  25
ENDBRANCH  10  15
TORSDOF 2
