REMARK  Name = ZINCrH00000tj1l6.0
REMARK                            x       y       z     vdW  Elec       q    Type
REMARK                         _______ _______ _______ _____ _____    ______ ____
ROOT
ATOM      1  C   LIG    1       -0.022  -3.159  -0.252  0.00  0.00    +0.260 A 
ATOM      2  N   LIG    1       -0.532  -4.354  -0.485  0.00  0.00    -0.240 NA
ATOM      3  N   LIG    1       -1.818  -4.293  -0.490  0.00  0.00    -0.230 NA
ATOM      4  C   LIG    1       -2.205  -3.047  -0.259  0.00  0.00    +0.120 A 
ATOM      5  C   LIG    1       -3.462  -2.423  -0.157  0.00  0.00    +0.210 A 
ATOM      6  C   LIG    1       -3.519  -1.088   0.095  0.00  0.00    +0.010 A 
ATOM      7  C   LIG    1       -2.334  -0.346   0.251  0.00  0.00    +0.350 A 
ATOM      8  N   LIG    1       -1.161  -0.925   0.152  0.00  0.00    -0.310 NA
ATOM      9  N   LIG    1       -1.066  -2.295  -0.102  0.00  0.00    -0.270 N 
ENDROOT
BRANCH   1  13
ATOM     10  C   LIG    1        4.107  -2.186  -0.013  0.00  0.00    +0.150 A 
ATOM     11  C   LIG    1        3.702  -3.511   0.068  0.00  0.00    -0.010 A 
ATOM     12  C   LIG    1        2.363  -3.832  -0.009  0.00  0.00    +0.120 A 
ATOM     13  C   LIG    1        1.414  -2.820  -0.169  0.00  0.00    -0.070 A 
ATOM     14  C   LIG    1        1.825  -1.489  -0.255  0.00  0.00    +0.090 A 
ATOM     15  C   LIG    1        3.166  -1.177  -0.172  0.00  0.00    -0.080 A 
BRANCH  10  17
ATOM     16  C   LIG    1        5.774  -0.491  -0.027  0.00  0.00    +0.240 C 
ATOM     17  O   LIG    1        5.427  -1.874   0.063  0.00  0.00    -0.310 OA
ENDBRANCH  10  17
ENDBRANCH   1  13
BRANCH   7  18
ATOM     18  O   LIG    1       -2.404   0.985   0.502  0.00  0.00    -0.220 OA
BRANCH  18  19
ATOM     19  C   LIG    1       -1.244   1.693   0.524  0.00  0.00    +0.060 A 
ATOM     20  C   LIG    1       -0.764   2.201   1.724  0.00  0.00    +0.060 A 
ATOM     21  C   LIG    1        0.419   2.917   1.755  0.00  0.00    +0.030 A 
ATOM     22  C   LIG    1        1.129   3.136   0.593  0.00  0.00    +0.080 A 
ATOM     23  C   LIG    1        0.652   2.633  -0.622  0.00  0.00    -0.160 A 
ATOM     24  C   LIG    1       -0.544   1.911  -0.651  0.00  0.00    +0.080 A 
BRANCH  23  25
ATOM     25  C   LIG    1        1.405   2.865  -1.865  0.00  0.00    +0.390 C 
ATOM     26  O   LIG    1        0.989   2.428  -2.916  0.00  0.00    -0.450 OA
ATOM     27  C   LIG    1        2.694   3.644  -1.830  0.00  0.00    +0.080 C 
ENDBRANCH  23  25
ENDBRANCH  18  19
ENDBRANCH   7  18
TORSDOF 5
