REMARK  Name = ZINCrD00000F5LwD.0
REMARK                            x       y       z     vdW  Elec       q    Type
REMARK                         _______ _______ _______ _____ _____    ______ ____
ROOT
ATOM      1  O   LIG    1        3.348   3.041   0.671  0.00  0.00    -0.520 OA
ATOM      2  C   LIG    1        3.466   1.860   0.409  0.00  0.00    +0.730 C 
ATOM      3  N   LIG    1        2.470   1.006   0.710  0.00  0.00    -0.520 N 
ATOM      4  C   LIG    1        2.514  -0.304   0.427  0.00  0.00    +0.720 C 
ATOM      5  N   LIG    1        3.636  -0.895  -0.042  0.00  0.00    -0.570 N 
ATOM      6  C   LIG    1        4.821  -0.046  -0.231  0.00  0.00    +0.350 C 
ATOM      7  C   LIG    1        5.366  -0.291  -1.648  0.00  0.00    +0.070 C 
ATOM      8  C   LIG    1        5.972   1.065  -2.079  0.00  0.00    +0.050 C 
ATOM      9  C   LIG    1        5.723   2.014  -0.883  0.00  0.00    +0.330 C 
ATOM     10  O   LIG    1        1.518  -0.979   0.597  0.00  0.00    -0.510 OA
ATOM     11  N   LIG    1        4.585   1.417  -0.171  0.00  0.00    -0.630 N 
ENDROOT
BRANCH   5  12
ATOM     12  C   LIG    1        3.668  -2.262  -0.335  0.00  0.00    +0.150 A 
ATOM     13  C   LIG    1        3.310  -2.711  -1.599  0.00  0.00    +0.030 A 
ATOM     14  C   LIG    1        3.347  -4.062  -1.887  0.00  0.00    +0.020 A 
ATOM     15  C   LIG    1        3.730  -4.967  -0.915  0.00  0.00    +0.030 A 
ATOM     16  C   LIG    1        4.082  -4.524   0.347  0.00  0.00    +0.020 A 
ATOM     17  C   LIG    1        4.051  -3.174   0.640  0.00  0.00    +0.010 A 
ENDBRANCH   5  12
BRANCH   3  18
ATOM     18  C   LIG    1        1.327   1.513   1.346  0.00  0.00    +0.140 A 
ATOM     19  C   LIG    1        0.444   2.323   0.646  0.00  0.00    +0.030 A 
ATOM     20  C   LIG    1       -0.678   2.825   1.276  0.00  0.00    +0.020 A 
ATOM     21  C   LIG    1       -0.927   2.514   2.600  0.00  0.00    +0.030 A 
ATOM     22  C   LIG    1       -0.049   1.706   3.300  0.00  0.00    +0.020 A 
ATOM     23  C   LIG    1        1.077   1.206   2.676  0.00  0.00    +0.040 A 
ENDBRANCH   3  18
BRANCH   6  24
ATOM     24  C   LIG    1        5.879  -0.427   0.806  0.00  0.00    +0.260 C 
BRANCH  24  25
ATOM     25  N   LIG    1        5.386  -0.105   2.147  0.00  0.00    -0.020 N 
ATOM     26  O   LIG    1        6.110   0.472   2.939  0.00  0.00    -0.140 OA
ATOM     27  O   LIG    1        4.254  -0.415   2.471  0.00  0.00    -0.160 OA
ENDBRANCH  24  25
ENDBRANCH   6  24
TORSDOF 4
