REMARK  Name = ZINCrD00000F5Lwd.2
REMARK                            x       y       z     vdW  Elec       q    Type
REMARK                         _______ _______ _______ _____ _____    ______ ____
ROOT
ATOM      1  N   LIG    1        3.925   5.155  -1.265  0.00  0.00    -0.530 NA
ENDROOT
BRANCH   1   2
ATOM      2  C   LIG    1        2.632   4.460  -1.228  0.00  0.00    +0.180 C 
BRANCH   2   3
ATOM      3  C   LIG    1        2.366   3.952   0.191  0.00  0.00    +0.090 C 
BRANCH   3   8
ATOM      4  C   LIG    1       -2.722   1.212   0.323  0.00  0.00    +0.100 C 
ATOM      5  C   LIG    1       -1.396   1.927   0.292  0.00  0.00    -0.060 A 
ATOM      6  C   LIG    1       -0.221   1.202   0.220  0.00  0.00    +0.000 A 
ATOM      7  C   LIG    1        0.996   1.857   0.186  0.00  0.00    +0.050 A 
ATOM      8  C   LIG    1        1.039   3.238   0.228  0.00  0.00    -0.120 A 
ATOM      9  C   LIG    1       -0.137   3.965   0.305  0.00  0.00    +0.110 A 
ATOM     10  F   LIG    1       -0.095   5.315   0.347  0.00  0.00    -0.130 F 
ATOM     11  C   LIG    1       -1.355   3.308   0.340  0.00  0.00    -0.030 A 
ENDBRANCH   3   8
ENDBRANCH   2   3
ENDBRANCH   1   2
BRANCH   1  12
ATOM     12  C   LIG    1        4.108   5.859  -2.541  0.00  0.00    +0.190 C 
BRANCH  12  13
ATOM     13  C   LIG    1        3.254   7.128  -2.551  0.00  0.00    +0.000 C 
ATOM     14  C   LIG    1        3.355   7.808  -3.922  0.00  0.00    +0.030 C 
ATOM     15  C   LIG    1        2.358   8.967  -3.969  0.00  0.00    +0.270 C 
ATOM     16  N   LIG    1        2.515   9.823  -2.800  0.00  0.00    -0.610 N 
ATOM     17  C   LIG    1        3.124   9.447  -1.674  0.00  0.00    +0.510 C 
ATOM     18  O   LIG    1        3.159  10.233  -0.751  0.00  0.00    -0.550 OA
ATOM     19  C   LIG    1        1.971  11.181  -2.865  0.00  0.00    +0.290 C 
ATOM     20  C   LIG    1        3.767   8.103  -1.488  0.00  0.00    +0.090 C 
ENDBRANCH  12  13
ENDBRANCH   1  12
BRANCH   1  21
ATOM     21  C   LIG    1        5.032   4.223  -1.014  0.00  0.00    +0.270 C 
BRANCH  21  22
ATOM     22  C   LIG    1        6.278   5.001  -0.678  0.00  0.00    -0.010 A 
ATOM     23  C   LIG    1        6.665   5.385   0.550  0.00  0.00    -0.020 A 
ATOM     24  O   LIG    1        7.827   6.053   0.409  0.00  0.00    -0.200 OA
ATOM     25  C   LIG    1        8.133   6.068  -0.895  0.00  0.00    +0.420 A 
ATOM     26  C   LIG    1        5.937   5.119   1.842  0.00  0.00    +0.190 C 
ATOM     27  N   LIG    1        7.206   5.430  -1.551  0.00  0.00    -0.480 NA
ENDBRANCH  21  22
ENDBRANCH   1  21
TORSDOF 7
