REMARK  Name = ZINCrD00000F5LkA.0
REMARK                            x       y       z     vdW  Elec       q    Type
REMARK                         _______ _______ _______ _____ _____    ______ ____
ROOT
ATOM      1  C   LIG    1        2.593   1.085   4.596  0.00  0.00    -0.170 C 
ATOM      2  C   LIG    1        2.648   2.088   3.442  0.00  0.00    +0.090 C 
ATOM      3  C   LIG    1        1.413   0.090   4.640  0.00  0.00    +0.310 C 
ATOM      4  N   LIG    1        1.204  -0.304   3.227  0.00  0.00    -0.620 N 
ATOM      5  C   LIG    1        0.033  -0.500   2.589  0.00  0.00    +0.620 C 
ATOM      6  O   LIG    1       -1.017  -0.352   3.185  0.00  0.00    -0.520 OA
ATOM      7  C   LIG    1        2.573  -0.440   2.678  0.00  0.00    +0.310 C 
ATOM      8  C   LIG    1        3.357   0.739   3.301  0.00  0.00    -0.030 C 
ENDROOT
BRANCH   5   9
ATOM      9  C   LIG    1        0.025  -0.892   1.171  0.00  0.00    -0.210 A 
ATOM     10  C   LIG    1        0.037  -2.181   0.654  0.00  0.00    +0.090 A 
ATOM     11  O   LIG    1        0.023  -2.088  -0.685  0.00  0.00    -0.160 OA
ATOM     12  C   LIG    1       -0.003  -0.805  -1.076  0.00  0.00    +0.000 A 
ATOM     13  C   LIG    1       -0.031  -0.334  -2.507  0.00  0.00    +0.180 C 
ATOM     14  C   LIG    1        0.002  -0.004   0.002  0.00  0.00    -0.150 A 
ATOM     15  C   LIG    1       -0.018   1.503   0.010  0.00  0.00    +0.130 C 
BRANCH  10  16
ATOM     16  C   LIG    1        0.062  -3.431   1.437  0.00  0.00    -0.030 A 
ATOM     17  C   LIG    1        0.080  -3.384   2.833  0.00  0.00    +0.030 A 
ATOM     18  C   LIG    1        0.097  -4.556   3.559  0.00  0.00    +0.020 A 
ATOM     19  C   LIG    1        0.107  -5.777   2.908  0.00  0.00    +0.030 A 
ATOM     20  C   LIG    1        0.094  -5.831   1.526  0.00  0.00    +0.010 A 
ATOM     21  C   LIG    1        0.072  -4.667   0.787  0.00  0.00    +0.040 A 
ENDBRANCH  10  16
ENDBRANCH   5   9
BRANCH   1  22
ATOM     22  C   LIG    1        3.322   1.379   5.908  0.00  0.00    +0.330 C 
BRANCH  22  24
ATOM     23  C   LIG    1        2.755   1.885   8.224  0.00  0.00    +0.540 C 
ATOM     24  N   LIG    1        2.340   1.606   6.972  0.00  0.00    -0.730 N 
ATOM     25  H   LIG    1        1.392   1.555   6.775  0.00  0.00    +0.400 HD
ATOM     26  O   LIG    1        3.944   1.948   8.470  0.00  0.00    -0.540 OA
BRANCH  23  28
ATOM     27  C   LIG    1        2.179   2.387  10.527  0.00  0.00    +0.140 C 
ATOM     28  C   LIG    1        1.769   2.112   9.292  0.00  0.00    -0.090 C 
ENDBRANCH  23  28
ENDBRANCH  22  24
ENDBRANCH   1  22
TORSDOF 5
