REMARK  Name = ZINCnE000001TCJE.0
REMARK                            x       y       z     vdW  Elec       q    Type
REMARK                         _______ _______ _______ _____ _____    ______ ____
ROOT
ATOM      1  C   LIG    1        2.212   8.078  -4.469  0.00  0.00    +0.020 A 
ATOM      2  C   LIG    1        2.128   7.279  -3.370  0.00  0.00    -0.040 A 
ATOM      3  C   LIG    1        1.085   6.297  -3.662  0.00  0.00    -0.110 A 
ATOM      4  C   LIG    1        0.529   5.230  -2.953  0.00  0.00    +0.060 A 
ATOM      5  C   LIG    1       -0.471   4.473  -3.534  0.00  0.00    +0.110 A 
ATOM      6  C   LIG    1       -0.928   4.780  -4.814  0.00  0.00    +0.000 A 
ATOM      7  C   LIG    1       -0.390   5.835  -5.518  0.00  0.00    +0.040 A 
ATOM      8  C   LIG    1        0.620   6.606  -4.955  0.00  0.00    +0.030 A 
ATOM      9  O   LIG    1        1.319   7.671  -5.396  0.00  0.00    -0.170 OA
ENDROOT
BRANCH   5  10
ATOM     10  N   LIG    1       -1.030   3.397  -2.832  0.00  0.00    -0.660 N 
ATOM     11  H   LIG    1       -1.967   3.175  -2.950  0.00  0.00    +0.410 HD
ATOM     12  C   LIG    1       -0.266   2.669  -1.993  0.00  0.00    +0.530 C 
ATOM     13  O   LIG    1        0.925   2.884  -1.917  0.00  0.00    -0.510 OA
BRANCH  12  14
ATOM     14  C   LIG    1       -0.892   1.589  -1.149  0.00  0.00    +0.060 C 
ATOM     15  C   LIG    1        0.112   0.854  -0.248  0.00  0.00    +0.150 C 
ATOM     16  C   LIG    1       -0.628   1.444   0.937  0.00  0.00    -0.120 A 
ATOM     17  C   LIG    1       -0.729   1.555   2.312  0.00  0.00    +0.020 A 
ATOM     18  C   LIG    1       -1.727   2.323   2.878  0.00  0.00    +0.020 A 
ATOM     19  C   LIG    1       -2.632   2.984   2.070  0.00  0.00    +0.010 A 
ATOM     20  C   LIG    1       -2.537   2.877   0.691  0.00  0.00    +0.040 A 
ATOM     21  C   LIG    1       -1.538   2.109   0.120  0.00  0.00    -0.130 A 
ENDBRANCH  12  14
ENDBRANCH   5  10
BRANCH   1  23
ATOM     22  O   LIG    1        3.905   9.495  -3.717  0.00  0.00    -0.650 OA
ATOM     23  C   LIG    1        3.131   9.207  -4.622  0.00  0.00    +0.560 C 
ATOM     24  O   LIG    1        3.127   9.865  -5.655  0.00  0.00    -0.660 OA
ENDBRANCH   1  23
TORSDOF 3
