REMARK  Name = ZINCnE000001TzHA.0
REMARK                            x       y       z     vdW  Elec       q    Type
REMARK                         _______ _______ _______ _____ _____    ______ ____
ROOT
ATOM      1  C   LIG    1       -1.167  -1.743   1.299  0.00  0.00    -0.010 C 
ATOM      2  C   LIG    1        0.065  -2.623   1.080  0.00  0.00    +0.000 C 
ATOM      3  C   LIG    1        1.321  -1.748   1.053  0.00  0.00    +0.010 C 
ATOM      4  C   LIG    1        1.222  -0.756  -0.116  0.00  0.00    +0.250 C 
ATOM      5  N   LIG    1       -0.034  -0.005   0.015  0.00  0.00    -0.620 N 
ATOM      6  C   LIG    1       -0.031   1.343   0.014  0.00  0.00    +0.700 C 
ATOM      7  N   LIG    1        1.138   2.014  -0.003  0.00  0.00    -0.690 N 
ATOM      8  H   LIG    1        1.974   1.530  -0.094  0.00  0.00    +0.410 HD
ATOM      9  O   LIG    1       -1.082   1.954   0.025  0.00  0.00    -0.550 OA
ATOM     10  C   LIG    1       -1.294  -0.750   0.138  0.00  0.00    +0.310 C 
ENDROOT
BRANCH   7  11
ATOM     11  C   LIG    1        1.145   3.409   0.109  0.00  0.00    +0.210 A 
ATOM     12  C   LIG    1        2.096   4.157  -0.574  0.00  0.00    -0.020 A 
ATOM     13  C   LIG    1        2.098   5.534  -0.466  0.00  0.00    +0.090 A 
ATOM     14  C   LIG    1        1.161   6.167   0.330  0.00  0.00    -0.210 A 
ATOM     15  C   LIG    1        0.216   5.425   1.016  0.00  0.00    +0.090 A 
ATOM     16  C   LIG    1        0.206   4.048   0.907  0.00  0.00    +0.030 A 
BRANCH  14  17
ATOM     17  C   LIG    1        1.169   7.669   0.450  0.00  0.00    +0.510 C 
ATOM     18  F   LIG    1       -0.134   8.126   0.678  0.00  0.00    -0.180 F 
ATOM     19  F   LIG    1        1.659   8.229  -0.734  0.00  0.00    -0.180 F 
ATOM     20  F   LIG    1        1.988   8.047   1.519  0.00  0.00    -0.180 F 
ENDBRANCH  14  17
ENDBRANCH   7  11
BRANCH   1  21
ATOM     21  C   LIG    1       -2.418  -2.621   1.358  0.00  0.00    -0.060 C 
BRANCH  21  23
ATOM     22  O   LIG    1       -3.481  -0.570   1.866  0.00  0.00    -0.690 OA
ATOM     23  C   LIG    1       -3.616  -1.769   1.691  0.00  0.00    +0.490 C 
ATOM     24  O   LIG    1       -4.719  -2.278   1.787  0.00  0.00    -0.710 OA
ENDBRANCH  21  23
ENDBRANCH   1  21
TORSDOF 4
