REMARK  Name = ZINCtV000002pz34.0
REMARK                            x       y       z     vdW  Elec       q    Type
REMARK                         _______ _______ _______ _____ _____    ______ ____
ROOT
ATOM      1  C   LIG    1       -1.334   6.948  -2.939  0.00  0.00    +0.230 A 
ATOM      2  N   LIG    1       -0.367   6.797  -2.051  0.00  0.00    -0.470 NA
ATOM      3  C   LIG    1       -0.889   6.034  -1.078  0.00  0.00    +0.190 A 
ATOM      4  N   LIG    1       -2.115   5.757  -1.409  0.00  0.00    -0.370 NA
ATOM      5  O   LIG    1       -2.396   6.274  -2.470  0.00  0.00    +0.090 OA
ENDROOT
BRANCH   1   9
ATOM      6  C   LIG    1       -1.047   9.135  -6.516  0.00  0.00    +0.340 A 
ATOM      7  C   LIG    1       -2.254   8.509  -6.223  0.00  0.00    -0.020 A 
ATOM      8  C   LIG    1       -2.372   7.785  -5.053  0.00  0.00    +0.160 A 
ATOM      9  C   LIG    1       -1.260   7.710  -4.202  0.00  0.00    -0.120 A 
ATOM     10  C   LIG    1       -0.086   8.370  -4.563  0.00  0.00    +0.390 A 
ATOM     11  N   LIG    1       -0.015   9.045  -5.692  0.00  0.00    -0.520 NA
BRANCH   6  12
ATOM     12  O   LIG    1       -0.926   9.847  -7.663  0.00  0.00    -0.240 OA
BRANCH  12  18
ATOM     13 BR   LIG    1        4.107   9.623  -9.033  0.00  0.00    -0.040 Br
ATOM     14  C   LIG    1        2.549  10.546  -8.486  0.00  0.00    -0.080 A 
ATOM     15  C   LIG    1        2.587  11.916  -8.297  0.00  0.00    +0.060 A 
ATOM     16  C   LIG    1        1.450  12.593  -7.897  0.00  0.00    +0.040 A 
ATOM     17  C   LIG    1        0.272  11.903  -7.689  0.00  0.00    +0.040 A 
ATOM     18  C   LIG    1        0.232  10.528  -7.872  0.00  0.00    +0.090 A 
ATOM     19  C   LIG    1        1.373   9.851  -8.274  0.00  0.00    +0.060 A 
ENDBRANCH  12  18
ENDBRANCH   6  12
ENDBRANCH   1   9
BRANCH   3  20
ATOM     20  C   LIG    1       -0.179   5.576   0.171  0.00  0.00    +0.190 C 
BRANCH  20  21
ATOM     21  C   LIG    1       -0.148   4.070   0.207  0.00  0.00    -0.080 A 
ATOM     22  C   LIG    1        1.063   3.404   0.234  0.00  0.00    +0.010 A 
ATOM     23  C   LIG    1        1.092   2.022   0.266  0.00  0.00    +0.000 A 
ATOM     24  C   LIG    1       -0.090   1.306   0.273  0.00  0.00    +0.000 A 
ATOM     25  C   LIG    1       -1.302   1.972   0.241  0.00  0.00    +0.000 A 
ATOM     26  C   LIG    1       -1.330   3.354   0.212  0.00  0.00    +0.030 A 
ENDBRANCH  20  21
BRANCH  20  27
ATOM     27  C   LIG    1       -0.923   6.100   1.401  0.00  0.00    -0.040 C 
ATOM     28  C   LIG    1       -0.226   7.169   2.245  0.00  0.00    +0.030 C 
ATOM     29  C   LIG    1       -0.355   5.740   2.776  0.00  0.00    +0.040 C 
ENDBRANCH  20  27
ENDBRANCH   3  20
TORSDOF 6
