REMARK  Name = ZINCrH000004qdXv.0
REMARK                            x       y       z     vdW  Elec       q    Type
REMARK                         _______ _______ _______ _____ _____    ______ ____
ROOT
ATOM      1  N   LIG    1       -2.805   7.239  -2.557  0.00  0.00    -0.640 N 
ATOM      2  H   LIG    1       -2.548   6.834  -3.400  0.00  0.00    +0.410 HD
ATOM      3  C   LIG    1       -2.255   6.806  -1.405  0.00  0.00    +0.520 C 
ATOM      4  O   LIG    1       -2.577   7.312  -0.351  0.00  0.00    -0.520 OA
ENDROOT
BRANCH   1   7
ATOM      5  C   LIG    1       -4.193   8.390  -5.051  0.00  0.00    +0.150 C 
ATOM      6  C   LIG    1       -4.383   8.808  -3.616  0.00  0.00    +0.050 A 
ATOM      7  C   LIG    1       -3.754   8.278  -2.536  0.00  0.00    +0.010 A 
ATOM      8  C   LIG    1       -4.222   8.947  -1.395  0.00  0.00    +0.270 A 
ATOM      9  N   LIG    1       -5.090   9.850  -1.773  0.00  0.00    -0.270 NA
ATOM     10  N   LIG    1       -5.217   9.785  -3.166  0.00  0.00    -0.320 N 
BRANCH  10  11
ATOM     11  C   LIG    1       -6.054  10.584  -3.957  0.00  0.00    +0.150 A 
ATOM     12  C   LIG    1       -6.172  11.942  -3.693  0.00  0.00    +0.020 A 
ATOM     13  C   LIG    1       -6.992  12.728  -4.478  0.00  0.00    +0.030 A 
ATOM     14  C   LIG    1       -7.706  12.161  -5.518  0.00  0.00    +0.010 A 
ATOM     15  C   LIG    1       -7.596  10.808  -5.779  0.00  0.00    +0.030 A 
ATOM     16  C   LIG    1       -6.772  10.018  -5.002  0.00  0.00    +0.000 A 
ENDBRANCH  10  11
ENDBRANCH   1   7
BRANCH   3  17
ATOM     17  C   LIG    1       -1.239   5.693  -1.428  0.00  0.00    +0.070 C 
BRANCH  17  18
ATOM     18  C   LIG    1       -0.777   5.396   0.000  0.00  0.00    +0.220 C 
BRANCH  18  19
ATOM     19  C   LIG    1        0.239   4.283  -0.022  0.00  0.00    +0.160 A 
ATOM     20  N   LIG    1        1.530   4.419  -0.137  0.00  0.00    -0.280 NA
ATOM     21  N   LIG    1        2.085   3.258  -0.118  0.00  0.00    -0.280 NA
ATOM     22  C   LIG    1        1.167   2.342   0.009  0.00  0.00    +0.170 A 
ATOM     23  O   LIG    1       -0.021   2.967   0.068  0.00  0.00    -0.220 OA
BRANCH  22  24
ATOM     24  C   LIG    1        1.396   0.854   0.073  0.00  0.00    +0.100 C 
ATOM     25  C   LIG    1        2.336   0.513   1.248  0.00  0.00    +0.040 C 
ATOM     26  C   LIG    1        3.211  -0.646   0.709  0.00  0.00    +0.030 C 
ATOM     27  C   LIG    1        3.444  -0.242  -0.768  0.00  0.00    +0.020 C 
ATOM     28  C   LIG    1        2.099   0.373  -1.208  0.00  0.00    +0.040 C 
ENDBRANCH  22  24
ENDBRANCH  18  19
ENDBRANCH  17  18
ENDBRANCH   3  17
TORSDOF 6
