REMARK  Name = ZINCpe000000ZlXA.0
REMARK                            x       y       z     vdW  Elec       q    Type
REMARK                         _______ _______ _______ _____ _____    ______ ____
ROOT
ATOM      1  C   LIG    1       -0.305   0.699  -4.858  0.00  0.00    +0.010 C 
ATOM      2  C   LIG    1        1.193   0.317  -4.899  0.00  0.00    +0.090 C 
ATOM      3  C   LIG    1        1.843   1.444  -5.671  0.00  0.00    +0.510 C 
ATOM      4  N   LIG    1        0.909   2.150  -6.332  0.00  0.00    -0.550 N 
ATOM      5  O   LIG    1        3.033   1.676  -5.691  0.00  0.00    -0.500 OA
ATOM      6  C   LIG    1       -0.433   1.602  -6.105  0.00  0.00    +0.310 C 
ENDROOT
BRANCH   4   7
ATOM      7  C   LIG    1        1.182   3.264  -7.133  0.00  0.00    +0.170 A 
ATOM      8  C   LIG    1        0.167   3.856  -7.872  0.00  0.00    -0.020 A 
ATOM      9  C   LIG    1        0.442   4.955  -8.661  0.00  0.00    +0.050 A 
ATOM     10  C   LIG    1        1.726   5.470  -8.719  0.00  0.00    -0.120 A 
ATOM     11  C   LIG    1        2.275   6.647  -9.496  0.00  0.00    +0.070 C 
ATOM     12  C   LIG    1        3.623   6.983  -8.823  0.00  0.00    +0.030 C 
ATOM     13  C   LIG    1        4.038   5.625  -8.217  0.00  0.00    +0.080 C 
ATOM     14  C   LIG    1        2.740   4.882  -7.984  0.00  0.00    -0.070 A 
ATOM     15  C   LIG    1        2.468   3.784  -7.187  0.00  0.00    +0.010 A 
ENDBRANCH   4   7
BRANCH   1  17
ATOM     16  O   LIG    1       -1.052   2.600  -3.676  0.00  0.00    -0.520 OA
ATOM     17  C   LIG    1       -0.632   1.464  -3.602  0.00  0.00    +0.520 C 
ATOM     18  N   LIG    1       -0.458   0.887  -2.396  0.00  0.00    -0.720 N 
ATOM     19  H   LIG    1       -0.122  -0.021  -2.337  0.00  0.00    +0.410 HD
BRANCH  18  20
ATOM     20  C   LIG    1       -0.775   1.631  -1.175  0.00  0.00    +0.270 C 
ATOM     21  C   LIG    1       -2.258   1.439  -0.812  0.00  0.00    +0.060 C 
ATOM     22  C   LIG    1       -2.482   1.936   0.630  0.00  0.00    -0.300 C 
ATOM     23  S   LIG    1       -0.867   1.709   1.471  0.00  0.00    +2.390 S 
ATOM     24  O   LIG    1       -0.345   2.978   1.840  0.00  0.00    -0.930 OA
ATOM     25  O   LIG    1       -0.979   0.678   2.442  0.00  0.00    -0.930 OA
ATOM     26  C   LIG    1        0.049   1.076   0.015  0.00  0.00    -0.310 C 
ENDBRANCH  18  20
ENDBRANCH   1  17
TORSDOF 3
