REMARK  Name = ZINCqH0000000WsZ.0
REMARK                            x       y       z     vdW  Elec       q    Type
REMARK                         _______ _______ _______ _____ _____    ______ ____
ROOT
ATOM      1  C   LIG    1       -3.569  -0.789  -0.281  0.00  0.00    +0.370 A 
ATOM      2  C   LIG    1       -2.403  -0.036  -0.185  0.00  0.00    -0.150 A 
ATOM      3  C   LIG    1       -1.189  -0.710  -0.095  0.00  0.00    +0.440 A 
ATOM      4  N   LIG    1       -1.186  -2.041  -0.109  0.00  0.00    -0.580 NA
ATOM      5  C   LIG    1       -2.312  -2.719  -0.196  0.00  0.00    +0.560 A 
ATOM      6  N   LIG    1       -3.481  -2.118  -0.283  0.00  0.00    -0.580 NA
ENDROOT
BRANCH   1  10
ATOM      7  C   LIG    1       -7.051  -0.347  -1.188  0.00  0.00    -0.060 C 
ATOM      8  C   LIG    1       -6.383   0.879  -1.844  0.00  0.00    +0.070 C 
ATOM      9  C   LIG    1       -4.872   0.703  -1.577  0.00  0.00    +0.200 C 
ATOM     10  N   LIG    1       -4.804  -0.166  -0.374  0.00  0.00    -0.450 N 
ATOM     11  C   LIG    1       -8.019   0.100  -0.090  0.00  0.00    +0.080 C 
ATOM     12  C   LIG    1       -5.888  -1.160  -0.579  0.00  0.00    +0.250 C 
BRANCH   7  13
ATOM     13  C   LIG    1       -7.778  -1.164  -2.224  0.00  0.00    +0.480 C 
ATOM     14  O   LIG    1       -7.449  -2.308  -2.431  0.00  0.00    -0.490 OA
BRANCH  13  15
ATOM     15  O   LIG    1       -8.790  -0.622  -2.918  0.00  0.00    -0.350 OA
BRANCH  15  17
ATOM     16  C   LIG    1      -10.035  -2.695  -3.204  0.00  0.00    +0.030 C 
ATOM     17  C   LIG    1       -9.445  -1.468  -3.901  0.00  0.00    +0.120 C 
ATOM     18  C   LIG    1       -8.423  -1.917  -4.947  0.00  0.00    +0.030 C 
ATOM     19  C   LIG    1      -10.565  -0.682  -4.585  0.00  0.00    +0.080 C 
ENDBRANCH  15  17
ENDBRANCH  13  15
ENDBRANCH   7  13
ENDBRANCH   1  10
BRANCH   3  20
ATOM     20  N   LIG    1        0.002  -0.004   0.002  0.00  0.00    -0.650 N 
ATOM     21  H   LIG    1        0.001   0.963  -0.077  0.00  0.00    +0.420 HD
BRANCH  20  22
ATOM     22  C   LIG    1        1.203  -0.686   0.214  0.00  0.00    +0.160 A 
ATOM     23  C   LIG    1        1.218  -1.852   0.969  0.00  0.00    +0.020 A 
ATOM     24  C   LIG    1        2.405  -2.527   1.173  0.00  0.00    +0.020 A 
ATOM     25  C   LIG    1        3.582  -2.037   0.635  0.00  0.00    -0.020 A 
ATOM     26  C   LIG    1        3.572  -0.874  -0.113  0.00  0.00    +0.020 A 
ATOM     27  C   LIG    1        2.386  -0.197  -0.325  0.00  0.00    -0.030 A 
ENDBRANCH  20  22
ENDBRANCH   3  20
TORSDOF 6
