REMARK  Name = ZINCrg000000tc2g.0
REMARK                            x       y       z     vdW  Elec       q    Type
REMARK                         _______ _______ _______ _____ _____    ______ ____
ROOT
ATOM      1  O   LIG    1       -5.540   9.782   0.828  0.00  0.00    -0.520 OA
ATOM      2  C   LIG    1       -4.985   9.200   1.735  0.00  0.00    +0.510 C 
ATOM      3  N   LIG    1       -4.195   8.140   1.472  0.00  0.00    -0.720 N 
ATOM      4  H   LIG    1       -3.750   7.674   2.197  0.00  0.00    +0.400 HD
ENDROOT
BRANCH   3   5
ATOM      5  C   LIG    1       -4.008   7.691   0.090  0.00  0.00    +0.340 C 
BRANCH   5   6
ATOM      6  C   LIG    1       -3.087   6.499   0.069  0.00  0.00    -0.180 A 
ATOM      7  C   LIG    1       -1.716   6.673  -0.050  0.00  0.00    +0.130 A 
ATOM      8  C   LIG    1       -0.905   5.551  -0.058  0.00  0.00    -0.030 A 
ATOM      9  C   LIG    1       -1.490   4.295   0.039  0.00  0.00    +0.360 A 
ATOM     10  N   LIG    1       -2.802   4.169   0.151  0.00  0.00    -0.500 NA
ATOM     11  C   LIG    1       -3.599   5.220   0.168  0.00  0.00    +0.330 A 
BRANCH   9  12
ATOM     12  N   LIG    1       -0.683   3.153   0.025  0.00  0.00    -0.420 N 
ATOM     13  C   LIG    1       -1.114   1.850   0.017  0.00  0.00    +0.150 A 
ATOM     14  C   LIG    1       -0.013   1.076   0.008  0.00  0.00    +0.150 A 
ATOM     15  N   LIG    1        1.063   1.877   0.002  0.00  0.00    -0.470 NA
ATOM     16  C   LIG    1        0.675   3.123   0.012  0.00  0.00    +0.400 A 
ENDBRANCH   9  12
ENDBRANCH   5   6
ENDBRANCH   3   5
BRANCH   2  17
ATOM     17  C   LIG    1       -5.177   9.661   3.157  0.00  0.00    +0.340 C 
BRANCH  17  18
ATOM     18  N   LIG    1       -6.072  10.821   3.177  0.00  0.00    -0.560 N 
ATOM     19  C   LIG    1       -7.403  10.710   3.290  0.00  0.00    +0.530 C 
ATOM     20  C   LIG    1       -8.009  12.108   3.358  0.00  0.00    +0.020 C 
ATOM     21  C   LIG    1       -8.654  12.269   4.720  0.00  0.00    +0.040 C 
ATOM     22  C   LIG    1       -8.621  13.705   5.224  0.00  0.00    +0.020 C 
ATOM     23  C   LIG    1       -7.155  14.152   5.291  0.00  0.00    +0.020 C 
ATOM     24  C   LIG    1       -6.639  14.258   3.860  0.00  0.00    +0.060 C 
ATOM     25  C   LIG    1       -6.824  13.001   3.066  0.00  0.00    -0.010 C 
ATOM     26  O   LIG    1       -8.023   9.669   3.331  0.00  0.00    -0.470 OA
ATOM     27  C   LIG    1       -5.628  12.086   3.090  0.00  0.00    +0.540 C 
ATOM     28  O   LIG    1       -4.467  12.430   3.037  0.00  0.00    -0.470 OA
ENDBRANCH  17  18
ENDBRANCH   2  17
TORSDOF 5
