REMARK  Name = ZINCrD000000B5UG.0
REMARK                            x       y       z     vdW  Elec       q    Type
REMARK                         _______ _______ _______ _____ _____    ______ ____
ROOT
ATOM      1  O   LIG    1        2.567   5.292  -6.174  0.00  0.00    -0.580 OA
ATOM      2  C   LIG    1        3.031   4.342  -5.575  0.00  0.00    +0.710 C 
ATOM      3  N   LIG    1        2.701   4.131  -4.285  0.00  0.00    -0.630 N 
ATOM      4  C   LIG    1        1.870   5.102  -3.558  0.00  0.00    +0.300 C 
ATOM      5  C   LIG    1        2.617   5.533  -2.290  0.00  0.00    +0.290 C 
ATOM      6  N   LIG    1        3.081   4.330  -1.586  0.00  0.00    -0.990 NA
ATOM      7  C   LIG    1        3.916   3.362  -2.311  0.00  0.00    +0.290 C 
ATOM      8  C   LIG    1        3.165   2.928  -3.581  0.00  0.00    +0.270 C 
ATOM      9  N   LIG    1        3.876   3.498  -6.200  0.00  0.00    -0.750 N 
ATOM     10  H   LIG    1        4.189   2.700  -5.746  0.00  0.00    +0.400 HD
ENDROOT
BRANCH   6  11
ATOM     11  S   LIG    1        2.675   4.072  -0.001  0.00  0.00    +2.680 S 
ATOM     12  O   LIG    1        3.665   3.200   0.530  0.00  0.00    -0.930 OA
ATOM     13  O   LIG    1        2.386   5.348   0.552  0.00  0.00    -0.930 OA
BRANCH  11  14
ATOM     14  C   LIG    1        1.161   3.170   0.010  0.00  0.00    -0.680 A 
ATOM     15  C   LIG    1        1.180   1.787   0.003  0.00  0.00    +0.060 A 
ATOM     16  C   LIG    1       -0.010   1.080   0.012  0.00  0.00    +0.020 A 
ATOM     17  C   LIG    1       -1.216   1.755   0.022  0.00  0.00    +0.110 A 
ATOM     18  C   LIG    1       -1.234   3.137   0.034  0.00  0.00    +0.020 A 
ATOM     19 CL   LIG    1        2.694   0.939  -0.017  0.00  0.00    -0.010 Cl
ATOM     20  C   LIG    1       -0.046   3.846   0.025  0.00  0.00    +0.060 A 
ATOM     21 CL   LIG    1       -0.069   5.581   0.034  0.00  0.00    -0.010 Cl
ENDBRANCH  11  14
ENDBRANCH   6  11
BRANCH   9  22
ATOM     22  C   LIG    1        4.322   3.787  -7.566  0.00  0.00    +0.280 C 
BRANCH  22  23
ATOM     23  C   LIG    1        5.268   2.681  -8.037  0.00  0.00    +0.110 C 
BRANCH  23  24
ATOM     24  C   LIG    1        5.727   2.977  -9.442  0.00  0.00    -0.180 A 
ATOM     25  C   LIG    1        6.810   3.686  -9.763  0.00  0.00    +0.010 A 
ATOM     26  C   LIG    1        7.033   3.828 -11.122  0.00  0.00    +0.000 A 
ATOM     27  C   LIG    1        6.130   3.234 -11.904  0.00  0.00    -0.040 A 
ATOM     28  S   LIG    1        4.920   2.436 -10.908  0.00  0.00    +0.100 S 
ENDBRANCH  23  24
ENDBRANCH  22  23
ENDBRANCH   9  22
TORSDOF 5
