REMARK  Name = ZINCpk000000nPnH.0
REMARK                            x       y       z     vdW  Elec       q    Type
REMARK                         _______ _______ _______ _____ _____    ______ ____
ROOT
ATOM      1  C   LIG    1        1.207   1.675  -0.001  0.00  0.00    +0.220 A 
ATOM      2  N   LIG    1       -0.014   1.209   0.009  0.00  0.00    -0.370 NA
ATOM      3  O   LIG    1        0.002  -0.004   0.002  0.00  0.00    +0.090 OA
ATOM      4  C   LIG    1        1.264  -0.445  -0.012  0.00  0.00    +0.190 A 
ATOM      5  N   LIG    1        2.041   0.610  -0.014  0.00  0.00    -0.470 NA
ENDROOT
BRANCH   1   9
ATOM      6  C   LIG    1        2.346   5.772   0.011  0.00  0.00    -0.050 A 
ATOM      7  C   LIG    1        1.006   5.429   0.022  0.00  0.00    +0.010 A 
ATOM      8  C   LIG    1        0.631   4.101   0.019  0.00  0.00    +0.050 A 
ATOM      9  C   LIG    1        1.605   3.105   0.003  0.00  0.00    -0.030 A 
ATOM     10  C   LIG    1        2.953   3.455  -0.002  0.00  0.00    +0.060 A 
ATOM     11  C   LIG    1        3.317   4.787  -0.004  0.00  0.00    +0.010 A 
BRANCH   6  13
ATOM     12  C   LIG    1        3.594   7.515   1.258  0.00  0.00    +0.030 C 
ATOM     13  C   LIG    1        2.750   7.224   0.015  0.00  0.00    +0.020 C 
ATOM     14  C   LIG    1        3.570   7.529  -1.240  0.00  0.00    +0.030 C 
ENDBRANCH   6  13
ENDBRANCH   1   9
BRANCH   4  15
ATOM     15  C   LIG    1        1.709  -1.884  -0.025  0.00  0.00    +0.360 C 
BRANCH  15  16
ATOM     16  N   LIG    1        1.868  -2.360   1.356  0.00  0.00    -0.540 NA
ATOM     17  C   LIG    1        2.971  -1.662   2.030  0.00  0.00    +0.190 C 
ATOM     18  C   LIG    1        3.052  -2.127   3.486  0.00  0.00    +0.190 C 
ATOM     19  N   LIG    1        3.253  -3.582   3.522  0.00  0.00    -0.520 NA
ATOM     20  C   LIG    1        2.150  -4.280   2.848  0.00  0.00    +0.200 C 
ATOM     21  C   LIG    1        2.069  -3.815   1.392  0.00  0.00    +0.200 C 
BRANCH  19  22
ATOM     22  C   LIG    1        3.411  -4.058   4.903  0.00  0.00    +0.210 C 
BRANCH  22  23
ATOM     23  C   LIG    1        4.690  -3.508   5.480  0.00  0.00    +0.520 C 
ATOM     24  O   LIG    1        5.400  -2.791   4.807  0.00  0.00    -0.520 OA
ATOM     25  N   LIG    1        5.045  -3.813   6.744  0.00  0.00    -0.860 N 
ATOM     26  H   LIG    1        5.869  -3.459   7.115  0.00  0.00    +0.400 HD
ATOM     27  H   LIG    1        4.478  -4.387   7.282  0.00  0.00    +0.400 HD
ENDBRANCH  22  23
ENDBRANCH  19  22
ENDBRANCH  15  16
ENDBRANCH   4  15
TORSDOF 6
