REMARK  Name = ZINCrg000000tH6a.0
REMARK                            x       y       z     vdW  Elec       q    Type
REMARK                         _______ _______ _______ _____ _____    ______ ____
ROOT
ATOM      1  O   LIG    1        2.584  -2.636   0.064  0.00  0.00    -0.510 OA
ATOM      2  C   LIG    1        3.632  -2.019   0.056  0.00  0.00    +0.580 C 
ATOM      3  N   LIG    1        3.621  -0.674  -0.037  0.00  0.00    -0.670 N 
ATOM      4  H   LIG    1        4.456  -0.186  -0.111  0.00  0.00    +0.410 HD
ENDROOT
BRANCH   2   5
ATOM      5  C   LIG    1        4.912  -2.740   0.150  0.00  0.00    -0.230 A 
ATOM      6  C   LIG    1        4.937  -4.109   0.246  0.00  0.00    +0.390 A 
ATOM      7  N   LIG    1        6.106  -4.797   0.336  0.00  0.00    -0.510 N 
ATOM      8  C   LIG    1        5.978  -6.249   0.500  0.00  0.00    +0.340 C 
ATOM      9  C   LIG    1        7.086  -6.975  -0.267  0.00  0.00    -0.380 C 
ATOM     10  S   LIG    1        8.673  -6.355   0.374  0.00  0.00    +2.550 S 
ATOM     11  N   LIG    1        8.484  -4.714   0.291  0.00  0.00    -0.960 NA
ATOM     12  O   LIG    1        8.800  -6.630   1.762  0.00  0.00    -0.960 OA
ATOM     13  O   LIG    1        9.729  -6.639  -0.534  0.00  0.00    -0.930 OA
ATOM     14  C   LIG    1        7.304  -4.139   0.283  0.00  0.00    +0.520 A 
ATOM     15  C   LIG    1        7.330  -2.713   0.207  0.00  0.00    +0.030 A 
ATOM     16  C   LIG    1        6.181  -2.009   0.137  0.00  0.00    +0.140 A 
ENDBRANCH   2   5
BRANCH   3  17
ATOM     17  C   LIG    1        2.405   0.018  -0.029  0.00  0.00    +0.140 A 
ATOM     18  C   LIG    1        2.318   1.262   0.582  0.00  0.00    +0.020 A 
ATOM     19  C   LIG    1        1.118   1.950   0.594  0.00  0.00    +0.030 A 
ATOM     20  C   LIG    1       -0.000   1.404  -0.002  0.00  0.00    +0.030 A 
ATOM     21  C   LIG    1        0.077   0.154  -0.619  0.00  0.00    -0.120 A 
ATOM     22  C   LIG    1        1.286  -0.539  -0.630  0.00  0.00    +0.100 A 
BRANCH  21  23
ATOM     23  C   LIG    1       -1.121  -0.433  -1.258  0.00  0.00    +0.560 C 
ATOM     24  N   LIG    1       -2.289   0.239  -1.244  0.00  0.00    -0.700 N 
ATOM     25  H   LIG    1       -2.345   1.108  -0.816  0.00  0.00    +0.400 HD
ATOM     26  O   LIG    1       -1.052  -1.521  -1.794  0.00  0.00    -0.530 OA
BRANCH  24  27
ATOM     27  C   LIG    1       -3.476  -0.342  -1.877  0.00  0.00    +0.220 C 
ATOM     28  C   LIG    1       -4.343   0.581  -2.735  0.00  0.00    +0.010 C 
ATOM     29  C   LIG    1       -4.844   0.114  -1.367  0.00  0.00    +0.020 C 
ENDBRANCH  24  27
ENDBRANCH  21  23
ENDBRANCH   3  17
TORSDOF 4
