REMARK  Name = ZINCpk00000KfKWN.0
REMARK                            x       y       z     vdW  Elec       q    Type
REMARK                         _______ _______ _______ _____ _____    ______ ____
ROOT
ATOM      1  S   LIG    1       -0.116  -0.825  -1.407  0.00  0.00    +2.690 S 
ATOM      2  O   LIG    1       -0.828  -0.112  -2.409  0.00  0.00    -0.950 OA
ATOM      3  O   LIG    1       -0.539  -2.083  -0.901  0.00  0.00    -0.950 OA
ENDROOT
BRANCH   1   4
ATOM      4  C   LIG    1        1.516  -1.060  -2.027  0.00  0.00    -0.690 A 
ATOM      5  C   LIG    1        2.014  -0.210  -2.998  0.00  0.00    +0.150 A 
ATOM      6  C   LIG    1        3.295  -0.390  -3.483  0.00  0.00    -0.030 A 
ATOM      7  C   LIG    1        4.079  -1.431  -3.002  0.00  0.00    +0.200 A 
ATOM      8  C   LIG    1        3.573  -2.285  -2.032  0.00  0.00    +0.000 A 
ATOM      9  C   LIG    1        2.293  -2.098  -1.547  0.00  0.00    +0.140 A 
BRANCH   7  10
ATOM     10  N   LIG    1        5.374  -1.618  -3.496  0.00  0.00    -0.680 N 
ATOM     11  H   LIG    1        5.908  -0.853  -3.761  0.00  0.00    +0.420 HD
ATOM     12  C   LIG    1        5.881  -2.863  -3.603  0.00  0.00    +0.510 C 
ATOM     13  O   LIG    1        5.183  -3.825  -3.362  0.00  0.00    -0.520 OA
ATOM     14  C   LIG    1        7.316  -3.059  -4.021  0.00  0.00    +0.110 C 
ENDBRANCH   7  10
ENDBRANCH   1   4
BRANCH   1  15
ATOM     15  N   LIG    1       -0.003   0.190  -0.103  0.00  0.00    -0.970 NA
BRANCH  15  16
ATOM     16  C   LIG    1       -0.100   1.639  -0.292  0.00  0.00    +0.330 C 
BRANCH  16  18
ATOM     17  C   LIG    1        1.601   2.950  -1.455  0.00  0.00    +0.030 C 
ATOM     18  C   LIG    1        1.284   2.224  -0.411  0.00  0.00    -0.070 C 
ENDBRANCH  16  18
ENDBRANCH  15  16
BRANCH  15  19
ATOM     19  C   LIG    1        0.193  -0.362   1.240  0.00  0.00    +0.330 C 
BRANCH  19  20
ATOM     20  C   LIG    1       -1.142  -0.508   1.924  0.00  0.00    +0.510 C 
ATOM     21  N   LIG    1       -1.207  -1.000   3.177  0.00  0.00    -0.620 N 
ATOM     22  C   LIG    1       -0.060  -1.437   3.986  0.00  0.00    +0.230 C 
ATOM     23  C   LIG    1       -0.617  -1.944   5.333  0.00  0.00    +0.030 C 
ATOM     24  C   LIG    1       -2.088  -2.298   4.988  0.00  0.00    +0.030 C 
ATOM     25  C   LIG    1       -2.441  -1.194   3.960  0.00  0.00    +0.250 C 
ATOM     26  O   LIG    1       -2.158  -0.182   1.346  0.00  0.00    -0.520 OA
ENDBRANCH  19  20
ENDBRANCH  15  19
ENDBRANCH   1  15
TORSDOF 7
