REMARK  Name = ZINCtV00001bB3PU.0
REMARK                            x       y       z     vdW  Elec       q    Type
REMARK                         _______ _______ _______ _____ _____    ______ ____
ROOT
ATOM      1  C   LIG    1        3.528  -1.777  -1.033  0.00  0.00    +0.550 C 
ATOM      2  N   LIG    1        2.378  -1.282  -1.533  0.00  0.00    -0.670 N 
ATOM      3  H   LIG    1        2.344  -0.967  -2.450  0.00  0.00    +0.410 HD
ATOM      4  O   LIG    1        3.547  -2.262   0.083  0.00  0.00    -0.520 OA
ENDROOT
BRANCH   2   5
ATOM      5  C   LIG    1        1.234  -1.224  -0.731  0.00  0.00    +0.130 A 
ATOM      6  C   LIG    1        0.639  -0.000  -0.455  0.00  0.00    -0.080 A 
ATOM      7  C   LIG    1       -0.494   0.053   0.333  0.00  0.00    +0.010 A 
ATOM      8  C   LIG    1       -1.033  -1.110   0.851  0.00  0.00    +0.010 A 
ATOM      9  C   LIG    1       -0.440  -2.330   0.582  0.00  0.00    +0.010 A 
ATOM     10  C   LIG    1        0.693  -2.390  -0.205  0.00  0.00    -0.050 A 
BRANCH   6  11
ATOM     11  C   LIG    1        1.225   1.268  -1.020  0.00  0.00    +0.020 C 
ATOM     12  C   LIG    1        1.616   2.204   0.126  0.00  0.00    +0.030 C 
ATOM     13  C   LIG    1        0.189   1.957  -1.910  0.00  0.00    +0.040 C 
ENDBRANCH   6  11
BRANCH  10  14
ATOM     14  C   LIG    1        1.339  -3.720  -0.497  0.00  0.00    +0.030 C 
ATOM     15  C   LIG    1        0.801  -4.268  -1.821  0.00  0.00    +0.020 C 
ATOM     16  C   LIG    1        1.016  -4.703   0.630  0.00  0.00    +0.020 C 
ENDBRANCH  10  14
ENDBRANCH   2   5
BRANCH   1  18
ATOM     17  C   LIG    1        5.904  -2.225  -1.329  0.00  0.00    +0.130 C 
ATOM     18  C   LIG    1        4.752  -1.730  -1.831  0.00  0.00    -0.080 C 
BRANCH  17  21
ATOM     19  C   LIG    1        9.483  -2.644  -2.371  0.00  0.00    +0.120 A 
ATOM     20  C   LIG    1        8.331  -2.686  -1.611  0.00  0.00    +0.000 A 
ATOM     21  C   LIG    1        7.135  -2.179  -2.131  0.00  0.00    -0.060 A 
ATOM     22  C   LIG    1        7.115  -1.621  -3.414  0.00  0.00    +0.040 A 
ATOM     23  C   LIG    1        8.270  -1.578  -4.164  0.00  0.00    -0.010 A 
ATOM     24  C   LIG    1        9.455  -2.087  -3.650  0.00  0.00    +0.090 A 
BRANCH  19  26
ATOM     25  C   LIG    1       10.601  -3.698  -0.556  0.00  0.00    +0.250 C 
ATOM     26  O   LIG    1       10.646  -3.142  -1.872  0.00  0.00    -0.300 OA
ENDBRANCH  19  26
BRANCH  24  27
ATOM     27  O   LIG    1       10.591  -2.041  -4.393  0.00  0.00    -0.310 OA
BRANCH  27  28
ATOM     28  C   LIG    1       10.492  -1.457  -5.693  0.00  0.00    +0.600 C 
ATOM     29  F   LIG    1       10.066  -0.130  -5.577  0.00  0.00    -0.200 F 
ATOM     30  F   LIG    1        9.570  -2.178  -6.460  0.00  0.00    -0.200 F 
ENDBRANCH  27  28
ENDBRANCH  24  27
ENDBRANCH  17  21
ENDBRANCH   1  18
TORSDOF 8
