REMARK  Name = ZINCrD0000073ut9.0
REMARK                            x       y       z     vdW  Elec       q    Type
REMARK                         _______ _______ _______ _____ _____    ______ ____
ROOT
ATOM      1  C   LIG    1       -2.482  -2.827  -0.204  0.00  0.00    -0.010 C 
ATOM      2  C   LIG    1       -3.247  -2.365  -1.446  0.00  0.00    +0.030 C 
ATOM      3  C   LIG    1       -4.578  -3.115  -1.536  0.00  0.00    +0.030 C 
ATOM      4  C   LIG    1       -4.306  -4.617  -1.666  0.00  0.00    +0.280 C 
ATOM      5  N   LIG    1       -3.448  -5.041  -0.550  0.00  0.00    -1.000 NA
ATOM      6  C   LIG    1       -2.186  -4.326  -0.318  0.00  0.00    +0.320 C 
ENDROOT
BRANCH   1   9
ATOM      7  N   LIG    1       -1.202  -0.721   0.010  0.00  0.00    -0.670 N 
ATOM      8  H   LIG    1       -2.046  -0.252   0.098  0.00  0.00    +0.410 HD
ATOM      9  C   LIG    1       -1.186  -2.065  -0.099  0.00  0.00    +0.520 C 
ATOM     10  O   LIG    1       -0.129  -2.660  -0.113  0.00  0.00    -0.520 OA
BRANCH   7  14
ATOM     11  C   LIG    1        2.379   1.415  -0.032  0.00  0.00    +0.110 A 
ATOM     12  C   LIG    1        2.256   0.255  -0.782  0.00  0.00    -0.060 A 
ATOM     13  C   LIG    1        1.070  -0.454  -0.768  0.00  0.00    +0.060 A 
ATOM     14  C   LIG    1        0.002  -0.004  -0.004  0.00  0.00    +0.110 A 
ATOM     15  C   LIG    1        0.126   1.158   0.746  0.00  0.00    +0.030 A 
ATOM     16  C   LIG    1        1.312   1.865   0.731  0.00  0.00    +0.010 A 
BRANCH  11  18
ATOM     17  C   LIG    1        4.603   1.591  -0.855  0.00  0.00    +0.250 C 
ATOM     18  O   LIG    1        3.546   2.112  -0.047  0.00  0.00    -0.320 OA
ENDBRANCH  11  18
ENDBRANCH   7  14
ENDBRANCH   1   9
BRANCH   5  19
ATOM     19  S   LIG    1       -3.895  -6.301   0.427  0.00  0.00    +2.690 S 
ATOM     20  O   LIG    1       -5.309  -6.403   0.328  0.00  0.00    -0.950 OA
ATOM     21  O   LIG    1       -3.214  -6.114   1.660  0.00  0.00    -0.950 OA
BRANCH  19  22
ATOM     22  C   LIG    1       -3.239  -7.772  -0.286  0.00  0.00    -0.680 A 
ATOM     23  C   LIG    1       -3.987  -8.491  -1.200  0.00  0.00    +0.140 A 
ATOM     24  C   LIG    1       -3.471  -9.643  -1.763  0.00  0.00    +0.020 A 
ATOM     25  C   LIG    1       -2.209 -10.082  -1.405  0.00  0.00    +0.020 A 
ATOM     26  C   LIG    1       -1.463  -9.365  -0.486  0.00  0.00    +0.020 A 
ATOM     27 CL   LIG    1       -1.563 -11.533  -2.106  0.00  0.00    -0.050 Cl
ATOM     28  C   LIG    1       -1.978  -8.211   0.072  0.00  0.00    +0.140 A 
ENDBRANCH  19  22
ENDBRANCH   5  19
TORSDOF 5
