REMARK  Name = ZINCrH00000No4y0.0
REMARK                            x       y       z     vdW  Elec       q    Type
REMARK                         _______ _______ _______ _____ _____    ______ ____
ROOT
ATOM      1  C   LIG    1        7.920   3.460   0.944  0.00  0.00    +0.230 C 
ATOM      2  C   LIG    1        7.658   2.963   2.366  0.00  0.00    +0.040 C 
ATOM      3  C   LIG    1        6.225   3.334   2.790  0.00  0.00    +0.020 C 
ATOM      4  C   LIG    1        5.900   4.770   2.396  0.00  0.00    +0.010 C 
ATOM      5  C   LIG    1        4.801   4.769   1.320  0.00  0.00    +0.010 C 
ATOM      6  C   LIG    1        5.418   4.413  -0.026  0.00  0.00    +0.270 C 
ATOM      7  N   LIG    1        5.756   2.983  -0.037  0.00  0.00    -0.600 N 
ATOM      8  C   LIG    1        4.780   2.053  -0.033  0.00  0.00    +0.560 C 
ATOM      9  O   LIG    1        5.067   0.870  -0.042  0.00  0.00    -0.540 OA
ATOM     10  C   LIG    1        7.152   2.582  -0.046  0.00  0.00    +0.270 C 
ENDROOT
BRANCH   1  11
ATOM     11  N   LIG    1        9.355   3.385   0.657  0.00  0.00    -0.660 N 
ATOM     12  H   LIG    1        9.913   2.754   1.138  0.00  0.00    +0.420 HD
BRANCH  11  16
ATOM     13  C   LIG    1       11.476   5.144  -1.605  0.00  0.00    +0.310 A 
ATOM     14  N   LIG    1       10.514   5.879  -2.085  0.00  0.00    -0.460 NA
ATOM     15  S   LIG    1        9.108   5.392  -1.265  0.00  0.00    +0.180 S 
ATOM     16  C   LIG    1        9.913   4.215  -0.298  0.00  0.00    +0.340 A 
ATOM     17  N   LIG    1       11.174   4.272  -0.672  0.00  0.00    -0.580 NA
BRANCH  13  18
ATOM     18  C   LIG    1       12.890   5.292  -2.104  0.00  0.00    +0.260 C 
ATOM     19  C   LIG    1       13.503   6.571  -1.531  0.00  0.00    +0.040 C 
BRANCH  18  21
ATOM     20  C   LIG    1       14.067   4.840  -4.143  0.00  0.00    +0.210 C 
ATOM     21  O   LIG    1       12.886   5.364  -3.531  0.00  0.00    -0.370 OA
ENDBRANCH  18  21
ENDBRANCH  13  18
ENDBRANCH  11  16
ENDBRANCH   1  11
BRANCH   8  22
ATOM     22  C   LIG    1        3.422   2.452  -0.017  0.00  0.00    -0.080 C 
ATOM     23  C   LIG    1        2.440   1.517  -0.013  0.00  0.00    +0.180 C 
BRANCH  23  24
ATOM     24  C   LIG    1        1.082   1.916   0.002  0.00  0.00    -0.020 A 
ATOM     25  C   LIG    1       -0.013   1.076   0.008  0.00  0.00    +0.010 A 
ATOM     26  C   LIG    1       -1.148   1.900   0.017  0.00  0.00    -0.060 A 
ATOM     27  C   LIG    1       -0.714   3.179   0.025  0.00  0.00    +0.200 A 
ATOM     28  O   LIG    1        0.626   3.186   0.012  0.00  0.00    -0.170 OA
ENDBRANCH  23  24
ENDBRANCH   8  22
TORSDOF 6
