REMARK  Name = ZINCvU0000000Ecj.0
REMARK                            x       y       z     vdW  Elec       q    Type
REMARK                         _______ _______ _______ _____ _____    ______ ____
ROOT
ATOM      1  N   LIG    1        1.615   0.969   2.133  0.00  0.00    -0.660 N 
ATOM      2  H   LIG    1        1.901   0.330   1.461  0.00  0.00    +0.410 HD
ATOM      3  C   LIG    1        2.518   1.511   2.974  0.00  0.00    +0.570 C 
ATOM      4  O   LIG    1        2.153   2.264   3.856  0.00  0.00    -0.500 OA
ENDROOT
BRANCH   1   7
ATOM      5  C   LIG    1        0.002   0.755  -0.198  0.00  0.00    +0.100 C 
ATOM      6  C   LIG    1       -0.554   1.240   1.115  0.00  0.00    -0.060 A 
ATOM      7  C   LIG    1        0.267   1.329   2.228  0.00  0.00    +0.140 A 
ATOM      8  C   LIG    1       -0.249   1.776   3.439  0.00  0.00    +0.050 A 
ATOM      9  C   LIG    1       -1.581   2.133   3.538  0.00  0.00    +0.030 A 
ATOM     10  C   LIG    1       -2.407   2.048   2.436  0.00  0.00    +0.030 A 
ATOM     11  C   LIG    1       -1.897   1.605   1.214  0.00  0.00    -0.110 A 
BRANCH  11  12
ATOM     12  C   LIG    1       -2.778   1.519   0.030  0.00  0.00    +0.580 C 
ATOM     13  N   LIG    1       -3.494   2.594  -0.357  0.00  0.00    -0.610 N 
ATOM     14  C   LIG    1       -3.416   3.935   0.240  0.00  0.00    +0.240 C 
ATOM     15  C   LIG    1       -4.428   4.829  -0.507  0.00  0.00    +0.040 C 
ATOM     16  C   LIG    1       -5.427   3.800  -1.098  0.00  0.00    +0.040 C 
ATOM     17  C   LIG    1       -4.488   2.618  -1.445  0.00  0.00    +0.250 C 
ATOM     18  O   LIG    1       -2.858   0.479  -0.594  0.00  0.00    -0.530 OA
ENDBRANCH  11  12
ENDBRANCH   1   7
BRANCH   3  19
ATOM     19  C   LIG    1        3.953   1.188   2.826  0.00  0.00    -0.140 A 
ATOM     20  C   LIG    1        4.376   0.319   1.818  0.00  0.00    +0.140 A 
ATOM     21  C   LIG    1        5.717   0.028   1.681  0.00  0.00    -0.190 A 
ATOM     22  C   LIG    1        6.642   0.585   2.547  0.00  0.00    +0.170 A 
ATOM     23  C   LIG    1        6.229   1.443   3.551  0.00  0.00    -0.190 A 
ATOM     24  C   LIG    1        4.891   1.747   3.695  0.00  0.00    +0.190 A 
BRANCH  23  25
ATOM     25  C   LIG    1        7.243   2.045   4.489  0.00  0.00    +0.510 C 
ATOM     26  F   LIG    1        8.165   2.800   3.756  0.00  0.00    -0.170 F 
ATOM     27  F   LIG    1        7.913   1.024   5.170  0.00  0.00    -0.170 F 
ATOM     28  F   LIG    1        6.592   2.872   5.411  0.00  0.00    -0.170 F 
ENDBRANCH  23  25
BRANCH  21  29
ATOM     29  C   LIG    1        6.176  -0.906   0.590  0.00  0.00    +0.510 C 
ATOM     30  F   LIG    1        7.472  -0.557   0.193  0.00  0.00    -0.170 F 
ATOM     31  F   LIG    1        5.310  -0.805  -0.504  0.00  0.00    -0.170 F 
ATOM     32  F   LIG    1        6.172  -2.220   1.069  0.00  0.00    -0.170 F 
ENDBRANCH  21  29
ENDBRANCH   3  19
TORSDOF 5
