REMARK  Name = ZINCpe00000MJIpL.0
REMARK                            x       y       z     vdW  Elec       q    Type
REMARK                         _______ _______ _______ _____ _____    ______ ____
ROOT
ATOM      1  O   LIG    1        1.677  -1.522  -0.022  0.00  0.00    -0.530 OA
ATOM      2  C   LIG    1        1.299  -0.367  -0.012  0.00  0.00    +0.700 C 
ATOM      3  N   LIG    1        2.124   0.687  -0.015  0.00  0.00    -0.680 N 
ATOM      4  H   LIG    1        3.092   0.622  -0.024  0.00  0.00    +0.440 HD
ATOM      5  C   LIG    1        1.443   1.851  -0.002  0.00  0.00    +0.530 C 
ATOM      6  C   LIG    1       -0.018   1.464   0.010  0.00  0.00    +0.120 C 
ATOM      7  C   LIG    1       -0.720   1.996  -1.235  0.00  0.00    +0.070 C 
ATOM      8  C   LIG    1       -2.188   1.562  -1.219  0.00  0.00    +0.030 C 
ATOM      9  C   LIG    1       -2.865   2.106   0.041  0.00  0.00    +0.030 C 
ATOM     10  C   LIG    1       -2.164   1.548   1.281  0.00  0.00    +0.020 C 
ATOM     11  C   LIG    1       -0.696   1.982   1.274  0.00  0.00    +0.270 C 
ATOM     12  O   LIG    1        1.905   2.972  -0.001  0.00  0.00    -0.450 OA
ATOM     13  N   LIG    1        0.002  -0.004   0.002  0.00  0.00    -0.720 N 
ATOM     14  H   LIG    1       -0.767  -0.596   0.007  0.00  0.00    +0.440 HD
ENDROOT
BRANCH  11  15
ATOM     15  N   LIG    1       -0.019   1.432   2.451  0.00  0.00    -0.710 N 
ATOM     16  H   LIG    1        0.469   0.596   2.384  0.00  0.00    +0.410 HD
ATOM     17  C   LIG    1       -0.073   2.088   3.627  0.00  0.00    +0.580 C 
ATOM     18  O   LIG    1       -0.684   3.135   3.712  0.00  0.00    -0.510 OA
BRANCH  17  19
ATOM     19  C   LIG    1        0.612   1.531   4.819  0.00  0.00    +0.050 A 
ATOM     20  N   LIG    1        1.270   0.390   4.723  0.00  0.00    -0.390 NA
ATOM     21  C   LIG    1        1.890  -0.107   5.793  0.00  0.00    +0.080 A 
ATOM     22  C   LIG    1        2.604  -1.319   5.722  0.00  0.00    +0.060 A 
ATOM     23  C   LIG    1        3.222  -1.803   6.832  0.00  0.00    +0.040 A 
ATOM     24  C   LIG    1        3.160  -1.118   8.045  0.00  0.00    +0.060 A 
ATOM     25  C   LIG    1        2.480   0.056   8.153  0.00  0.00    +0.060 A 
ATOM     26  C   LIG    1        1.828   0.590   7.029  0.00  0.00    +0.100 A 
ATOM     27  N   LIG    1        1.152   1.742   7.108  0.00  0.00    -0.420 NA
ATOM     28  C   LIG    1        0.551   2.220   6.043  0.00  0.00    +0.320 A 
ENDBRANCH  17  19
ENDBRANCH  11  15
TORSDOF 2
