REMARK  Name = ZINCc70000006kLN.0
REMARK                            x       y       z     vdW  Elec       q    Type
REMARK                         _______ _______ _______ _____ _____    ______ ____
ROOT
ATOM      1  C   LIG    1        1.428   1.929  -0.178  0.00  0.00    +0.110 C 
ATOM      2  C   LIG    1        1.522   3.471  -0.058  0.00  0.00    +0.020 C 
ATOM      3  C   LIG    1        2.804   3.782  -0.869  0.00  0.00    +0.030 C 
ATOM      4  C   LIG    1        2.985   2.550  -1.776  0.00  0.00    +0.080 C 
ATOM      5  O   LIG    1        1.877   1.668  -1.526  0.00  0.00    -0.360 OA
ENDROOT
BRANCH   4   6
ATOM      6  C   LIG    1        2.984   2.974  -3.222  0.00  0.00    +0.500 C 
ATOM      7  O   LIG    1        3.885   3.675  -3.652  0.00  0.00    -0.680 OA
ATOM      8  O   LIG    1        2.083   2.617  -3.962  0.00  0.00    -0.680 OA
ENDBRANCH   4   6
BRANCH   1   9
ATOM      9  C   LIG    1       -0.017   1.461   0.007  0.00  0.00    +0.270 C 
BRANCH   9  11
ATOM     10  C   LIG    1        0.657  -0.695   0.816  0.00  0.00    +0.310 C 
ATOM     11  N   LIG    1       -0.097   0.013  -0.227  0.00  0.00    -0.390 N 
ATOM     12  C   LIG    1       -1.502  -0.412  -0.190  0.00  0.00    +0.320 C 
ATOM     13  H   LIG    1        0.296  -0.203  -1.131  0.00  0.00    +0.440 HD
ENDBRANCH   9  11
ENDBRANCH   1   9
TORSDOF 3
