REMARK  Name = ZINCrD000000CAFg.0
REMARK                            x       y       z     vdW  Elec       q    Type
REMARK                         _______ _______ _______ _____ _____    ______ ____
ROOT
ATOM      1  O   LIG    1        3.379   3.542   0.183  0.00  0.00    -0.500 OA
ATOM      2  C   LIG    1        2.326   4.153   0.104  0.00  0.00    +0.480 A 
ATOM      3  C   LIG    1        2.321   5.565   0.112  0.00  0.00    +0.000 A 
ATOM      4  C   LIG    1        1.117   6.200   0.021  0.00  0.00    +0.140 A 
ATOM      5  C   LIG    1       -0.052   5.409  -0.075  0.00  0.00    +0.030 A 
ATOM      6  N   LIG    1        0.036   4.097  -0.080  0.00  0.00    -0.180 NA
ATOM      7  N   LIG    1        1.161   3.485   0.009  0.00  0.00    -0.290 N 
ENDROOT
BRANCH   5   8
ATOM      8  C   LIG    1       -1.376   6.059  -0.175  0.00  0.00    +0.600 C 
ATOM      9  N   LIG    1       -2.491   5.307  -0.267  0.00  0.00    -0.600 N 
ATOM     10  C   LIG    1       -2.535   3.834  -0.284  0.00  0.00    +0.270 C 
ATOM     11  C   LIG    1       -3.861   3.483  -1.000  0.00  0.00    +0.030 C 
ATOM     12  C   LIG    1       -4.803   4.601  -0.480  0.00  0.00    +0.050 C 
ATOM     13  C   LIG    1       -3.865   5.821  -0.372  0.00  0.00    +0.270 C 
ATOM     14  O   LIG    1       -1.459   7.272  -0.175  0.00  0.00    -0.510 OA
BRANCH  13  15
ATOM     15  C   LIG    1       -4.207   6.623   0.857  0.00  0.00    -0.090 A 
ATOM     16  C   LIG    1       -3.772   6.203   2.100  0.00  0.00    +0.010 A 
ATOM     17  C   LIG    1       -4.083   6.941   3.227  0.00  0.00    +0.000 A 
ATOM     18  C   LIG    1       -4.836   8.095   3.112  0.00  0.00    +0.000 A 
ATOM     19  C   LIG    1       -5.276   8.512   1.869  0.00  0.00    +0.000 A 
ATOM     20  C   LIG    1       -4.961   7.776   0.742  0.00  0.00    +0.020 A 
ENDBRANCH  13  15
ENDBRANCH   5   8
BRANCH   7  21
ATOM     21  C   LIG    1        1.178   2.086   0.002  0.00  0.00    +0.100 A 
ATOM     22  C   LIG    1        2.044   1.405  -0.844  0.00  0.00    +0.090 A 
ATOM     23  C   LIG    1        2.059   0.025  -0.849  0.00  0.00    +0.010 A 
ATOM     24  C   LIG    1        1.211  -0.681  -0.012  0.00  0.00    +0.120 A 
ATOM     25  C   LIG    1        0.346  -0.004   0.832  0.00  0.00    +0.010 A 
ATOM     26  F   LIG    1        1.227  -2.032  -0.018  0.00  0.00    -0.130 F 
ATOM     27  C   LIG    1        0.328   1.376   0.841  0.00  0.00    +0.070 A 
ENDBRANCH   7  21
TORSDOF 3
