REMARK  Name = ZINCfA000000b6MI.0
REMARK                            x       y       z     vdW  Elec       q    Type
REMARK                         _______ _______ _______ _____ _____    ______ ____
ROOT
ATOM      1  N   LIG    1       -0.733   2.011  -1.178  0.00  0.00    -0.510 N 
ATOM      2  H   LIG    1       -0.311   1.619  -2.007  0.00  0.00    +0.430 HD
ATOM      3  H   LIG    1       -0.676   3.018  -1.218  0.00  0.00    +0.430 HD
ENDROOT
BRANCH   1   4
ATOM      4  C   LIG    1       -0.019   1.527   0.010  0.00  0.00    +0.180 C 
ATOM      5  C   LIG    1        1.408   2.067  -0.000  0.00  0.00    +0.040 C 
ATOM      6  C   LIG    1        2.093   1.809   1.339  0.00  0.00    +0.070 C 
ATOM      7  C   LIG    1        2.382   0.314   1.499  0.00  0.00    +0.110 C 
ATOM      8  S   LIG    1        0.805  -0.589   1.524  0.00  0.00    -0.180 S 
ATOM      9  C   LIG    1        0.002  -0.004   0.002  0.00  0.00    +0.110 C 
ENDBRANCH   1   4
BRANCH   1  10
ATOM     10  C   LIG    1       -2.142   1.602  -1.104  0.00  0.00    +0.270 C 
BRANCH  10  11
ATOM     11  C   LIG    1       -2.885   2.107  -2.342  0.00  0.00    +0.170 C 
BRANCH  11  16
ATOM     12 BR   LIG    1       -7.336  -0.898  -2.983  0.00  0.00    +0.070 Br
ATOM     13  C   LIG    1       -6.162   0.504  -2.503  0.00  0.00    -0.010 A 
ATOM     14  C   LIG    1       -6.508   1.633  -1.856  0.00  0.00    +0.010 A 
ATOM     15  C   LIG    1       -5.325   2.393  -1.699  0.00  0.00    -0.010 A 
ATOM     16  C   LIG    1       -4.330   1.687  -2.266  0.00  0.00    -0.030 A 
ATOM     17  O   LIG    1       -4.843   0.542  -2.748  0.00  0.00    -0.160 OA
ENDBRANCH  11  16
ENDBRANCH  10  11
ENDBRANCH   1  10
TORSDOF 4
