REMARK  Name = ZINCrg00000SjSxj.0
REMARK                            x       y       z     vdW  Elec       q    Type
REMARK                         _______ _______ _______ _____ _____    ______ ____
ROOT
ATOM      1  C   LIG    1       -3.014  -3.651  -0.773  0.00  0.00    +0.170 C 
ATOM      2  C   LIG    1       -2.942  -2.521   0.264  0.00  0.00    +0.280 C 
ATOM      3  N   LIG    1       -1.572  -1.981   0.238  0.00  0.00    -0.550 N 
ATOM      4  C   LIG    1       -0.510  -2.897   0.142  0.00  0.00    +0.070 A 
ATOM      5  C   LIG    1        0.788  -2.483   0.400  0.00  0.00    +0.050 A 
ATOM      6  C   LIG    1        1.830  -3.388   0.306  0.00  0.00    +0.000 A 
ATOM      7  C   LIG    1        1.577  -4.702  -0.039  0.00  0.00    +0.030 A 
ATOM      8  C   LIG    1        0.283  -5.120  -0.291  0.00  0.00    +0.020 A 
ATOM      9  C   LIG    1       -0.768  -4.221  -0.198  0.00  0.00    +0.100 A 
ATOM     10  C   LIG    1       -1.345  -0.653   0.298  0.00  0.00    +0.530 C 
ATOM     11  O   LIG    1       -0.217  -0.225   0.170  0.00  0.00    -0.500 OA
ATOM     12  O   LIG    1       -2.037  -4.641  -0.444  0.00  0.00    -0.280 OA
ENDROOT
BRANCH   1  15
ATOM     13  C   LIG    1       -6.730  -4.296  -1.421  0.00  0.00    +0.310 C 
ATOM     14  N   LIG    1       -5.419  -3.646  -1.351  0.00  0.00    -0.620 N 
ATOM     15  C   LIG    1       -4.388  -4.271  -0.750  0.00  0.00    +0.520 C 
ATOM     16  O   LIG    1       -4.565  -5.332  -0.190  0.00  0.00    -0.500 OA
ATOM     17  C   LIG    1       -5.229  -2.316  -1.936  0.00  0.00    +0.280 C 
ENDBRANCH   1  15
BRANCH  10  18
ATOM     18  C   LIG    1       -2.491   0.298   0.524  0.00  0.00    +0.060 C 
BRANCH  18  19
ATOM     19  C   LIG    1       -1.951   1.721   0.677  0.00  0.00    +0.360 C 
BRANCH  19  20
ATOM     20  N   LIG    1       -3.066   2.646   0.897  0.00  0.00    -0.450 N 
ATOM     21  C   LIG    1       -3.587   3.003   2.091  0.00  0.00    +0.460 A 
ATOM     22  N   LIG    1       -4.565   3.842   1.886  0.00  0.00    -0.450 NA
ATOM     23  C   LIG    1       -4.702   4.048   0.568  0.00  0.00    +0.050 A 
ATOM     24  C   LIG    1       -3.770   3.313  -0.068  0.00  0.00    +0.270 A 
BRANCH  23  25
ATOM     25  N   LIG    1       -5.700   4.933  -0.075  0.00  0.00    +0.060 N 
ATOM     26  O   LIG    1       -5.727   5.040  -1.288  0.00  0.00    -0.160 OA
ATOM     27  O   LIG    1       -6.493   5.554   0.610  0.00  0.00    -0.130 OA
ENDBRANCH  23  25
ENDBRANCH  19  20
ENDBRANCH  18  19
ENDBRANCH  10  18
TORSDOF 5
