REMARK  Name = ZINCc70000002xZx.0
REMARK                            x       y       z     vdW  Elec       q    Type
REMARK                         _______ _______ _______ _____ _____    ______ ____
ROOT
ATOM      1  C   LIG    1       -2.613   2.534  -3.109  0.00  0.00    +0.270 A 
ATOM      2  N   LIG    1       -1.374   2.590  -3.483  0.00  0.00    -0.550 NA
ATOM      3  C   LIG    1       -0.463   2.260  -2.585  0.00  0.00    +0.260 A 
ATOM      4  C   LIG    1       -0.957   1.909  -1.397  0.00  0.00    -0.880 A 
ATOM      5  C   LIG    1        1.015   2.280  -2.880  0.00  0.00    +0.180 C 
ATOM      6  S   LIG    1       -2.713   2.017  -1.482  0.00  0.00    +0.270 S 
ENDROOT
BRANCH   4   7
ATOM      7  S   LIG    1       -0.017   1.417   0.010  0.00  0.00    +2.740 S 
ATOM      8  O   LIG    1        1.162   2.210   0.003  0.00  0.00    -0.950 OA
ATOM      9  O   LIG    1        0.002  -0.004   0.002  0.00  0.00    -0.950 OA
BRANCH   7  10
ATOM     10  N   LIG    1       -0.875   1.865   1.354  0.00  0.00    -1.250 NA
ATOM     11  H   LIG    1       -1.730   2.313   1.256  0.00  0.00    +0.410 HD
ATOM     12  H   LIG    1       -0.522   1.680   2.238  0.00  0.00    +0.430 HD
ENDBRANCH   7  10
ENDBRANCH   4   7
BRANCH   1  14
ATOM     13  C   LIG    1       -3.395   3.244  -5.235  0.00  0.00    +0.280 C 
ATOM     14  O   LIG    1       -3.675   2.835  -3.895  0.00  0.00    -0.270 OA
ENDBRANCH   1  14
TORSDOF 3
