REMARK  Name = ZINCrH000004lYAx.0
REMARK                            x       y       z     vdW  Elec       q    Type
REMARK                         _______ _______ _______ _____ _____    ______ ____
ROOT
ATOM      1  C   LIG    1       -1.247   2.264   0.021  0.00  0.00    +0.350 C 
ENDROOT
BRANCH   1   2
ATOM      2  C   LIG    1       -0.017   1.395   0.010  0.00  0.00    -0.270 A 
ATOM      3  C   LIG    1        1.265   1.828  -0.000  0.00  0.00    +0.120 A 
ATOM      4  N   LIG    1        2.066   0.743  -0.014  0.00  0.00    -0.360 N 
ATOM      5  N   LIG    1        1.250  -0.396  -0.012  0.00  0.00    -0.290 NA
ATOM      6  C   LIG    1        1.716   3.266   0.003  0.00  0.00    +0.140 C 
ATOM      7  C   LIG    1        0.002  -0.004   0.002  0.00  0.00    +0.090 A 
ATOM      8  C   LIG    1       -1.206  -0.904   0.009  0.00  0.00    +0.150 C 
BRANCH   4   9
ATOM      9  C   LIG    1        3.531   0.753  -0.027  0.00  0.00    +0.380 C 
BRANCH   9  10
ATOM     10  C   LIG    1        4.020   0.764  -1.452  0.00  0.00    -0.120 A 
ATOM     11  C   LIG    1        4.259  -0.429  -2.110  0.00  0.00    +0.040 A 
ATOM     12  C   LIG    1        4.703  -0.419  -3.419  0.00  0.00    +0.010 A 
ATOM     13  C   LIG    1        4.919   0.782  -4.067  0.00  0.00    +0.020 A 
ATOM     14  C   LIG    1        4.685   1.975  -3.408  0.00  0.00    +0.010 A 
ATOM     15  C   LIG    1        4.236   1.965  -2.100  0.00  0.00    +0.020 A 
ENDBRANCH   9  10
ENDBRANCH   4   9
ENDBRANCH   1   2
BRANCH   1  17
ATOM     16  C   LIG    1       -2.720   3.303   1.661  0.00  0.00    +0.560 C 
ATOM     17  N   LIG    1       -1.639   2.539   1.405  0.00  0.00    -0.720 N 
ATOM     18  H   LIG    1       -1.120   2.172   2.138  0.00  0.00    +0.400 HD
ATOM     19  O   LIG    1       -3.369   3.764   0.743  0.00  0.00    -0.540 OA
BRANCH  16  22
ATOM     20  C   LIG    1       -4.597   4.626   4.637  0.00  0.00    +0.120 A 
ATOM     21  C   LIG    1       -4.233   4.371   3.326  0.00  0.00    -0.010 A 
ATOM     22  C   LIG    1       -3.115   3.580   3.058  0.00  0.00    -0.100 A 
ATOM     23  C   LIG    1       -2.374   3.048   4.115  0.00  0.00    +0.010 A 
ATOM     24  C   LIG    1       -2.743   3.313   5.418  0.00  0.00    +0.050 A 
ATOM     25  C   LIG    1       -3.851   4.096   5.681  0.00  0.00    -0.090 A 
ATOM     26  C   LIG    1       -4.251   4.376   7.107  0.00  0.00    +0.100 C 
BRANCH  20  28
ATOM     27  C   LIG    1       -6.408   5.907   3.780  0.00  0.00    +0.240 C 
ATOM     28  O   LIG    1       -5.686   5.395   4.902  0.00  0.00    -0.310 OA
ENDBRANCH  20  28
ENDBRANCH  16  22
ENDBRANCH   1  17
TORSDOF 6
