REMARK  Name = ZINCrD00000l5XpO.0
REMARK                            x       y       z     vdW  Elec       q    Type
REMARK                         _______ _______ _______ _____ _____    ______ ____
ROOT
ATOM      1  O   LIG    1        6.416   5.055   1.495  0.00  0.00    -0.330 OA
ENDROOT
BRANCH   1   2
ATOM      2  C   LIG    1        6.835   6.259   1.931  0.00  0.00    +0.520 C 
ATOM      3  O   LIG    1        6.185   7.255   1.683  0.00  0.00    -0.490 OA
BRANCH   2  10
ATOM      4  C   LIG    1        7.856   8.873   2.636  0.00  0.00    +0.120 C 
ATOM      5  C   LIG    1        8.588   7.625   3.057  0.00  0.00    +0.040 A 
ATOM      6  C   LIG    1        9.755   7.720   3.785  0.00  0.00    +0.000 A 
ATOM      7  C   LIG    1       10.428   6.574   4.173  0.00  0.00    +0.170 A 
ATOM      8  C   LIG    1        9.935   5.327   3.833  0.00  0.00    -0.680 A 
ATOM      9  C   LIG    1        8.766   5.217   3.109  0.00  0.00    +0.200 A 
ATOM     10  C   LIG    1        8.085   6.369   2.710  0.00  0.00    -0.150 A 
BRANCH   8  11
ATOM     11  S   LIG    1       10.799   3.874   4.332  0.00  0.00    +2.500 S 
ATOM     12  O   LIG    1       12.148   4.299   4.469  0.00  0.00    -0.930 OA
ATOM     13  O   LIG    1       10.433   2.899   3.365  0.00  0.00    -0.930 OA
ATOM     14  C   LIG    1       10.094   3.462   5.951  0.00  0.00    -0.250 C 
ENDBRANCH   8  11
ENDBRANCH   2  10
ENDBRANCH   1   2
BRANCH   1  15
ATOM     15  C   LIG    1        5.179   5.023   0.735  0.00  0.00    +0.320 C 
ATOM     16  C   LIG    1        5.490   5.194  -0.753  0.00  0.00    +0.090 C 
BRANCH  15  17
ATOM     17  C   LIG    1        4.489   3.702   0.956  0.00  0.00    +0.150 A 
ATOM     18  N   LIG    1        5.052   2.526   0.938  0.00  0.00    -0.240 NA
ATOM     19  N   LIG    1        4.167   1.621   1.169  0.00  0.00    -0.270 NA
ATOM     20  C   LIG    1        2.997   2.193   1.335  0.00  0.00    +0.220 A 
ATOM     21  O   LIG    1        3.180   3.522   1.205  0.00  0.00    -0.210 OA
BRANCH  20  22
ATOM     22  C   LIG    1        1.718   1.507   1.616  0.00  0.00    -0.030 A 
ATOM     23  C   LIG    1        0.546   2.247   1.776  0.00  0.00    +0.050 A 
ATOM     24  C   LIG    1       -0.644   1.601   2.039  0.00  0.00    +0.010 A 
ATOM     25  C   LIG    1       -0.677   0.222   2.145  0.00  0.00    +0.040 A 
ATOM     26  C   LIG    1        0.481  -0.518   1.987  0.00  0.00    +0.020 A 
ATOM     27  C   LIG    1        1.678   0.116   1.724  0.00  0.00    +0.080 A 
ENDBRANCH  20  22
ENDBRANCH  15  17
ENDBRANCH   1  15
TORSDOF 6
