REMARK  Name = ZINCrH000004sFwj.0
REMARK                            x       y       z     vdW  Elec       q    Type
REMARK                         _______ _______ _______ _____ _____    ______ ____
ROOT
ATOM      1  C   LIG    1        2.399   6.803   0.900  0.00  0.00    +0.360 C 
ENDROOT
BRANCH   1   8
ATOM      2  C   LIG    1       -0.213   6.762  -0.895  0.00  0.00    +0.160 C 
ATOM      3  C   LIG    1        0.535   5.553  -0.395  0.00  0.00    +0.100 A 
ATOM      4  N   LIG    1        0.222   4.305  -0.632  0.00  0.00    -0.290 NA
ATOM      5  N   LIG    1        1.161   3.488   0.009  0.00  0.00    -0.320 N 
ATOM      6  C   LIG    1        2.054   4.290   0.632  0.00  0.00    +0.120 A 
ATOM      7  C   LIG    1        3.241   3.839   1.443  0.00  0.00    +0.160 C 
ATOM      8  C   LIG    1        1.689   5.572   0.397  0.00  0.00    -0.260 A 
BRANCH   5   9
ATOM      9  C   LIG    1        1.177   2.086   0.002  0.00  0.00    +0.150 A 
ATOM     10  C   LIG    1       -0.017   1.377   0.010  0.00  0.00    +0.020 A 
ATOM     11  C   LIG    1        0.002  -0.004   0.002  0.00  0.00    +0.030 A 
ATOM     12  C   LIG    1        1.208  -0.680  -0.013  0.00  0.00    +0.010 A 
ATOM     13  C   LIG    1        2.398   0.023  -0.020  0.00  0.00    +0.030 A 
ATOM     14  C   LIG    1        2.386   1.404  -0.013  0.00  0.00    +0.000 A 
ENDBRANCH   5   9
ENDBRANCH   1   8
BRANCH   1  15
ATOM     15  N   LIG    1        3.411   7.215  -0.076  0.00  0.00    -0.720 N 
ATOM     16  H   LIG    1        3.531   6.708  -0.894  0.00  0.00    +0.400 HD
ATOM     17  C   LIG    1        4.175   8.300   0.164  0.00  0.00    +0.520 C 
ATOM     18  O   LIG    1        4.024   8.934   1.186  0.00  0.00    -0.540 OA
BRANCH  17  19
ATOM     19  C   LIG    1        5.216   8.724  -0.840  0.00  0.00    +0.080 C 
BRANCH  19  20
ATOM     20  C   LIG    1        5.937   9.973  -0.330  0.00  0.00    +0.210 C 
BRANCH  20  21
ATOM     21  O   LIG    1        6.924  10.376  -1.281  0.00  0.00    -0.310 OA
BRANCH  21  22
ATOM     22  C   LIG    1        7.660  11.478  -0.978  0.00  0.00    +0.120 A 
ATOM     23  C   LIG    1        7.432  12.161   0.208  0.00  0.00    -0.040 A 
ATOM     24  C   LIG    1        8.183  13.278   0.516  0.00  0.00    +0.030 A 
ATOM     25  C   LIG    1        9.157  13.722  -0.362  0.00  0.00    +0.060 A 
ATOM     26  C   LIG    1        9.382  13.045  -1.548  0.00  0.00    +0.030 A 
ATOM     27  F   LIG    1        9.888  14.818  -0.061  0.00  0.00    -0.140 F 
ATOM     28  C   LIG    1        8.635  11.924  -1.857  0.00  0.00    +0.020 A 
ENDBRANCH  21  22
ENDBRANCH  20  21
ENDBRANCH  19  20
ENDBRANCH  17  19
ENDBRANCH   1  15
TORSDOF 7
