REMARK  Name = ZINCpk000000p8w6.1
REMARK                            x       y       z     vdW  Elec       q    Type
REMARK                         _______ _______ _______ _____ _____    ______ ____
ROOT
ATOM      1  C   LIG    1        4.425  -2.369   1.333  0.00  0.00    +0.440 C 
ENDROOT
BRANCH   1   3
ATOM      2  C   LIG    1        2.813  -0.556   2.204  0.00  0.00    -0.210 A 
ATOM      3  C   LIG    1        4.019  -0.956   1.660  0.00  0.00    +0.100 A 
ATOM      4  N   LIG    1        4.761   0.147   1.476  0.00  0.00    -0.440 N 
ATOM      5  H   LIG    1        5.658   0.172   1.108  0.00  0.00    +0.450 HD
ATOM      6  N   LIG    1        4.024   1.256   1.906  0.00  0.00    -0.270 NA
ATOM      7  C   LIG    1        2.863   0.850   2.341  0.00  0.00    +0.120 A 
ATOM      8  C   LIG    1        1.766   1.726   2.887  0.00  0.00    +0.180 C 
BRANCH   2   9
ATOM      9  C   LIG    1        1.687  -1.431   2.571  0.00  0.00    +0.540 C 
ATOM     10  O   LIG    1        0.822  -1.684   1.756  0.00  0.00    -0.460 OA
BRANCH   9  11
ATOM     11  O   LIG    1        1.616  -1.952   3.812  0.00  0.00    -0.360 OA
BRANCH  11  13
ATOM     12  C   LIG    1        0.568  -3.300   5.549  0.00  0.00    +0.070 C 
ATOM     13  C   LIG    1        0.478  -2.806   4.104  0.00  0.00    +0.200 C 
ENDBRANCH  11  13
ENDBRANCH   9  11
ENDBRANCH   2   9
ENDBRANCH   1   3
BRANCH   1  14
ATOM     14  N   LIG    1        3.927  -2.726   0.002  0.00  0.00    -0.300 N 
ATOM     15  C   LIG    1        4.675  -3.186  -1.027  0.00  0.00    +0.140 A 
ATOM     16  C   LIG    1        3.818  -3.385  -2.056  0.00  0.00    -0.000 A 
ATOM     17  N   LIG    1        2.604  -3.040  -1.612  0.00  0.00    -0.260 NA
ATOM     18  N   LIG    1        2.702  -2.659  -0.387  0.00  0.00    -0.050 NA
BRANCH  16  19
ATOM     19  C   LIG    1        4.163  -3.894  -3.432  0.00  0.00    +0.100 C 
ATOM     20  C   LIG    1        5.565  -4.520  -3.523  0.00  0.00    +0.060 C 
ATOM     21  C   LIG    1        5.697  -3.829  -4.892  0.00  0.00    +0.240 C 
ATOM     22  C   LIG    1        4.674  -2.800  -4.384  0.00  0.00    +0.060 C 
BRANCH  21  23
ATOM     23  O   LIG    1        6.993  -3.277  -5.133  0.00  0.00    -0.380 OA
ATOM     24  C   LIG    1        7.954  -4.228  -5.595  0.00  0.00    +0.220 C 
ENDBRANCH  21  23
BRANCH  21  25
ATOM     25  O   LIG    1        5.219  -4.622  -5.980  0.00  0.00    -0.370 OA
ATOM     26  C   LIG    1        4.955  -3.877  -7.170  0.00  0.00    +0.220 C 
ENDBRANCH  21  25
ENDBRANCH  16  19
ENDBRANCH   1  14
TORSDOF 8
