REMARK  Name = ZINCpk000000p8w6.0
REMARK                            x       y       z     vdW  Elec       q    Type
REMARK                         _______ _______ _______ _____ _____    ______ ____
ROOT
ATOM      1  C   LIG    1        2.657  -1.463   0.275  0.00  0.00    +0.460 C 
ENDROOT
BRANCH   1   8
ATOM      2  C   LIG    1        3.569  -1.467  -2.163  0.00  0.00    -0.260 A 
ATOM      3  C   LIG    1        4.601  -0.828  -2.822  0.00  0.00    +0.150 A 
ATOM      4  N   LIG    1        5.232  -0.053  -1.925  0.00  0.00    -0.450 N 
ATOM      5  H   LIG    1        6.000   0.511  -2.105  0.00  0.00    +0.450 HD
ATOM      6  N   LIG    1        4.593  -0.195  -0.688  0.00  0.00    -0.240 NA
ATOM      7  C   LIG    1        4.958  -0.978  -4.278  0.00  0.00    +0.170 C 
ATOM      8  C   LIG    1        3.601  -1.031  -0.818  0.00  0.00    +0.090 A 
BRANCH   2   9
ATOM      9  C   LIG    1        2.613  -2.420  -2.751  0.00  0.00    +0.540 C 
ATOM     10  O   LIG    1        1.574  -2.017  -3.236  0.00  0.00    -0.490 OA
BRANCH   9  11
ATOM     11  O   LIG    1        2.890  -3.739  -2.751  0.00  0.00    -0.350 OA
BRANCH  11  13
ATOM     12  C   LIG    1        2.388  -6.068  -3.255  0.00  0.00    +0.070 C 
ATOM     13  C   LIG    1        1.902  -4.620  -3.348  0.00  0.00    +0.200 C 
ENDBRANCH  11  13
ENDBRANCH   9  11
ENDBRANCH   2   9
ENDBRANCH   1   8
BRANCH   1  14
ATOM     14  N   LIG    1        1.509  -0.554   0.315  0.00  0.00    -0.290 N 
ATOM     15  C   LIG    1        0.208  -0.917   0.231  0.00  0.00    +0.150 A 
ATOM     16  C   LIG    1       -0.509   0.229   0.306  0.00  0.00    -0.000 A 
ATOM     17  N   LIG    1        0.377   1.223   0.438  0.00  0.00    -0.260 NA
ATOM     18  N   LIG    1        1.563   0.726   0.437  0.00  0.00    -0.070 NA
BRANCH  16  19
ATOM     19  C   LIG    1       -2.009   0.359   0.253  0.00  0.00    +0.110 C 
ATOM     20  C   LIG    1       -2.750  -0.975   0.445  0.00  0.00    +0.060 C 
ATOM     21  C   LIG    1       -3.722  -0.500  -0.652  0.00  0.00    +0.240 C 
ATOM     22  C   LIG    1       -2.576   0.382  -1.176  0.00  0.00    +0.060 C 
BRANCH  21  23
ATOM     23  O   LIG    1       -4.112  -1.532  -1.559  0.00  0.00    -0.380 OA
ATOM     24  C   LIG    1       -5.168  -2.363  -1.075  0.00  0.00    +0.210 C 
ENDBRANCH  21  23
BRANCH  21  25
ATOM     25  O   LIG    1       -4.832   0.245  -0.147  0.00  0.00    -0.370 OA
ATOM     26  C   LIG    1       -5.507   1.025  -1.136  0.00  0.00    +0.220 C 
ENDBRANCH  21  25
ENDBRANCH  16  19
ENDBRANCH   1  14
TORSDOF 8
