REMARK  Name = ZINCpk000000o8hf.0
REMARK                            x       y       z     vdW  Elec       q    Type
REMARK                         _______ _______ _______ _____ _____    ______ ____
ROOT
ATOM      1  C   LIG    1       -3.738  -4.171  -2.923  0.00  0.00    +0.220 C 
ATOM      2  C   LIG    1       -4.699  -4.342  -1.744  0.00  0.00    +0.010 C 
ATOM      3  C   LIG    1       -4.253  -3.448  -0.585  0.00  0.00    +0.030 C 
ATOM      4  C   LIG    1       -2.848  -3.873  -0.130  0.00  0.00    +0.270 C 
ATOM      5  N   LIG    1       -1.951  -3.846  -1.293  0.00  0.00    -0.610 N 
ATOM      6  C   LIG    1       -0.799  -3.147  -1.256  0.00  0.00    +0.510 C 
ATOM      7  O   LIG    1       -0.065  -3.137  -2.221  0.00  0.00    -0.510 OA
ATOM      8  C   LIG    1       -2.331  -4.600  -2.495  0.00  0.00    +0.290 C 
ENDROOT
BRANCH   6   9
ATOM      9  C   LIG    1       -0.424  -2.379  -0.015  0.00  0.00    +0.240 C 
ATOM     10  C   LIG    1       -1.126  -1.011   0.001  0.00  0.00    +0.140 C 
ATOM     11  C   LIG    1        0.002  -0.004   0.004  0.00  0.00    -0.140 A 
ATOM     12  C   LIG    1       -0.017   1.377   0.016  0.00  0.00    +0.050 A 
ATOM     13  C   LIG    1        1.169   2.088   0.016  0.00  0.00    -0.010 A 
ATOM     14  C   LIG    1        2.375   1.412   0.003  0.00  0.00    +0.040 A 
ATOM     15  C   LIG    1        2.399   0.034  -0.009  0.00  0.00    +0.010 A 
ATOM     16  C   LIG    1        1.206  -0.691  -0.009  0.00  0.00    +0.150 A 
ATOM     17  N   LIG    1        1.010  -2.075  -0.020  0.00  0.00    -0.540 N 
ATOM     18  C   LIG    1        1.994  -2.995  -0.033  0.00  0.00    +0.530 C 
ATOM     19  O   LIG    1        3.151  -2.644  -0.132  0.00  0.00    -0.510 OA
ATOM     20  C   LIG    1        1.658  -4.460   0.076  0.00  0.00    +0.100 C 
ENDBRANCH   6   9
BRANCH   1  22
ATOM     21  C   LIG    1       -5.112  -4.536  -4.902  0.00  0.00    +0.510 C 
ATOM     22  N   LIG    1       -4.184  -5.004  -4.043  0.00  0.00    -0.730 N 
ATOM     23  H   LIG    1       -3.812  -5.891  -4.166  0.00  0.00    +0.400 HD
ATOM     24  O   LIG    1       -5.577  -3.427  -4.748  0.00  0.00    -0.530 OA
BRANCH  21  26
ATOM     25  C   LIG    1       -6.618  -4.631  -6.870  0.00  0.00    +0.040 C 
ATOM     26  C   LIG    1       -5.570  -5.392  -6.054  0.00  0.00    +0.040 C 
ENDBRANCH  21  26
ENDBRANCH   1  22
TORSDOF 3
