REMARK  Name = ZINCrg00000ba1DG.0
REMARK                            x       y       z     vdW  Elec       q    Type
REMARK                         _______ _______ _______ _____ _____    ______ ____
ROOT
ATOM      1  C   LIG    1       -0.812   0.984  -0.472  0.00  0.00    +0.200 C 
ENDROOT
BRANCH   1   2
ATOM      2  O   LIG    1        0.537   1.356  -0.183  0.00  0.00    -0.550 OA
ATOM      3  H   LIG    1        1.165   1.137  -0.886  0.00  0.00    +0.380 HD
ENDBRANCH   1   2
BRANCH   1   4
ATOM      4  C   LIG    1       -0.888  -0.529  -0.690  0.00  0.00    +0.250 C 
BRANCH   4   6
ATOM      5  C   LIG    1       -0.556  -2.567   0.604  0.00  0.00    +0.520 C 
ATOM      6  N   LIG    1       -0.554  -1.220   0.558  0.00  0.00    -0.720 N 
ATOM      7  H   LIG    1       -0.331  -0.708   1.351  0.00  0.00    +0.410 HD
ATOM      8  O   LIG    1       -0.835  -3.207  -0.388  0.00  0.00    -0.530 OA
BRANCH   5  10
ATOM      9  C   LIG    1        1.205  -2.895   2.318  0.00  0.00    +0.070 C 
ATOM     10  C   LIG    1       -0.212  -3.277   1.887  0.00  0.00    +0.040 C 
BRANCH  10  11
ATOM     11  C   LIG    1       -0.287  -4.767   1.672  0.00  0.00    -0.110 A 
ATOM     12  C   LIG    1        0.522  -5.371   0.730  0.00  0.00    +0.070 A 
ATOM     13  C   LIG    1        0.453  -6.738   0.532  0.00  0.00    +0.000 A 
ATOM     14  C   LIG    1       -0.426  -7.502   1.277  0.00  0.00    +0.040 A 
ATOM     15  C   LIG    1       -1.236  -6.900   2.221  0.00  0.00    -0.020 A 
ATOM     16  C   LIG    1       -1.164  -5.532   2.424  0.00  0.00    +0.100 A 
ATOM     17  F   LIG    1       -1.952  -4.943   3.350  0.00  0.00    -0.140 F 
ENDBRANCH  10  11
ENDBRANCH   5  10
ENDBRANCH   4   6
ENDBRANCH   1   4
BRANCH   1  18
ATOM     18  C   LIG    1       -1.280   1.706  -1.737  0.00  0.00    +0.260 C 
BRANCH  18  19
ATOM     19  N   LIG    1       -1.207   3.154  -1.528  0.00  0.00    -0.710 N 
ATOM     20  H   LIG    1       -0.895   3.506  -0.680  0.00  0.00    +0.410 HD
ATOM     21  C   LIG    1       -1.574   3.996  -2.514  0.00  0.00    +0.490 C 
ATOM     22  O   LIG    1       -1.964   3.555  -3.575  0.00  0.00    -0.480 OA
BRANCH  21  23
ATOM     23  C   LIG    1       -1.498   5.486  -2.299  0.00  0.00    +0.260 C 
ATOM     24  F   LIG    1       -0.358   5.792  -1.548  0.00  0.00    -0.180 F 
ATOM     25  F   LIG    1       -2.639   5.916  -1.612  0.00  0.00    -0.170 F 
BRANCH  23  26
ATOM     26  C   LIG    1       -1.422   6.193  -3.654  0.00  0.00    +0.080 C 
ATOM     27  C   LIG    1       -1.745   7.695  -3.584  0.00  0.00    +0.020 C 
ATOM     28  C   LIG    1       -2.511   7.512  -4.904  0.00  0.00    +0.040 C 
ATOM     29  C   LIG    1       -2.695   6.039  -4.502  0.00  0.00    +0.080 C 
BRANCH  26  30
ATOM     30  O   LIG    1       -0.220   5.897  -4.367  0.00  0.00    -0.510 OA
ATOM     31  H   LIG    1        0.589   6.078  -3.868  0.00  0.00    +0.380 HD
ENDBRANCH  26  30
ENDBRANCH  23  26
ENDBRANCH  21  23
ENDBRANCH  18  19
ENDBRANCH   1  18
TORSDOF 10
