REMARK  Name = ZINCrg000000tyhf.0
REMARK                            x       y       z     vdW  Elec       q    Type
REMARK                         _______ _______ _______ _____ _____    ______ ____
ROOT
ATOM      1  C   LIG    1       -4.337   2.764   5.173  0.00  0.00    +0.230 A 
ATOM      2  C   LIG    1       -3.867   1.477   5.396  0.00  0.00    +0.010 A 
ATOM      3  C   LIG    1       -2.589   1.132   5.002  0.00  0.00    +0.150 A 
ATOM      4  C   LIG    1       -1.777   2.068   4.387  0.00  0.00    -0.700 A 
ATOM      5  C   LIG    1       -2.240   3.352   4.169  0.00  0.00    +0.150 A 
ATOM      6  C   LIG    1       -3.519   3.702   4.556  0.00  0.00    -0.030 A 
ENDROOT
BRANCH   1   9
ATOM      7  O   LIG    1       -5.502   1.834   7.379  0.00  0.00    -0.560 OA
ATOM      8  C   LIG    1       -6.172   2.564   6.674  0.00  0.00    +0.700 C 
ATOM      9  N   LIG    1       -5.632   3.117   5.570  0.00  0.00    -0.690 N 
ATOM     10  H   LIG    1       -6.140   3.759   5.051  0.00  0.00    +0.410 HD
ATOM     11  N   LIG    1       -7.455   2.820   6.997  0.00  0.00    -0.730 N 
ATOM     12  H   LIG    1       -7.990   3.402   6.435  0.00  0.00    +0.400 HD
BRANCH  11  13
ATOM     13  C   LIG    1       -8.042   2.219   8.197  0.00  0.00    +0.370 C 
BRANCH  13  14
ATOM     14  C   LIG    1       -9.477   2.661   8.330  0.00  0.00    -0.210 A 
ATOM     15  C   LIG    1       -9.924   3.746   8.988  0.00  0.00    +0.200 A 
ATOM     16  O   LIG    1      -11.261   3.792   8.871  0.00  0.00    -0.170 OA
ATOM     17  C   LIG    1      -11.684   2.741   8.149  0.00  0.00    +0.170 A 
ATOM     18  C   LIG    1      -10.612   2.012   7.792  0.00  0.00    -0.050 A 
ENDBRANCH  13  14
ENDBRANCH  11  13
ENDBRANCH   1   9
BRANCH   4  19
ATOM     19  S   LIG    1       -0.147   1.624   3.887  0.00  0.00    +2.700 S 
ATOM     20  O   LIG    1        0.596   2.834   3.822  0.00  0.00    -0.950 OA
ATOM     21  O   LIG    1        0.235   0.520   4.696  0.00  0.00    -0.950 OA
BRANCH  19  22
ATOM     22  N   LIG    1       -0.248   1.054   2.335  0.00  0.00    -1.100 NA
ATOM     23  H   LIG    1       -0.038   0.126   2.145  0.00  0.00    +0.420 HD
BRANCH  22  24
ATOM     24  C   LIG    1       -0.657   1.950   1.251  0.00  0.00    +0.270 C 
ATOM     25  C   LIG    1        0.096   1.590  -0.042  0.00  0.00    +0.090 C 
ATOM     26  C   LIG    1       -0.589   2.303  -1.225  0.00  0.00    -0.300 C 
ATOM     27  S   LIG    1       -2.335   2.500  -0.715  0.00  0.00    +2.390 S 
ATOM     28  O   LIG    1       -3.157   1.662  -1.516  0.00  0.00    -0.930 OA
ATOM     29  O   LIG    1       -2.636   3.883  -0.593  0.00  0.00    -0.930 OA
ATOM     30  C   LIG    1       -2.164   1.766   0.956  0.00  0.00    -0.330 C 
ENDBRANCH  22  24
ENDBRANCH  19  22
ENDBRANCH   4  19
TORSDOF 6
