REMARK  Name = ZINCrH00000No4FA.0
REMARK                            x       y       z     vdW  Elec       q    Type
REMARK                         _______ _______ _______ _____ _____    ______ ____
ROOT
ATOM      1  N   LIG    1        8.539  -0.615  -3.545  0.00  0.00    -0.520 NA
ATOM      2  C   LIG    1        9.170  -0.242  -2.272  0.00  0.00    +0.190 C 
ATOM      3  C   LIG    1        8.347  -0.810  -1.112  0.00  0.00    +0.190 C 
ATOM      4  N   LIG    1        6.974  -0.291  -1.189  0.00  0.00    -0.540 NA
ATOM      5  C   LIG    1        6.344  -0.664  -2.462  0.00  0.00    +0.190 C 
ATOM      6  C   LIG    1        7.166  -0.096  -3.622  0.00  0.00    +0.190 C 
ENDROOT
BRANCH   1   7
ATOM      7  C   LIG    1        9.341  -0.152  -4.686  0.00  0.00    +0.220 C 
BRANCH   7   9
ATOM      8  O   LIG    1        7.845  -1.500  -5.917  0.00  0.00    -0.490 OA
ATOM      9  C   LIG    1        8.803  -0.757  -5.957  0.00  0.00    +0.520 C 
ATOM     10  N   LIG    1        9.386  -0.471  -7.138  0.00  0.00    -0.670 N 
ATOM     11  H   LIG    1       10.099   0.184  -7.181  0.00  0.00    +0.420 HD
BRANCH  10  12
ATOM     12  C   LIG    1        8.961  -1.121  -8.303  0.00  0.00    +0.130 A 
ATOM     13  C   LIG    1        8.354  -2.367  -8.223  0.00  0.00    +0.070 A 
ATOM     14  C   LIG    1        7.932  -3.005  -9.376  0.00  0.00    -0.020 A 
ATOM     15  C   LIG    1        8.123  -2.407 -10.609  0.00  0.00    +0.050 A 
ATOM     16  C   LIG    1        8.731  -1.168 -10.693  0.00  0.00    +0.030 A 
ATOM     17 CL   LIG    1        7.167  -4.560  -9.275  0.00  0.00    -0.050 Cl
ATOM     18  C   LIG    1        9.151  -0.523  -9.544  0.00  0.00    +0.070 A 
ATOM     19  F   LIG    1        9.746   0.687  -9.627  0.00  0.00    -0.130 F 
ENDBRANCH  10  12
ENDBRANCH   7   9
ENDBRANCH   1   7
BRANCH   4  20
ATOM     20  C   LIG    1        6.172  -0.754  -0.049  0.00  0.00    +0.210 C 
BRANCH  20  21
ATOM     21  C   LIG    1        4.859  -0.015  -0.025  0.00  0.00    -0.010 C 
ATOM     22  C   LIG    1        3.719  -0.690  -0.017  0.00  0.00    +0.000 C 
BRANCH  22  23
ATOM     23  C   LIG    1        2.431   0.035   0.006  0.00  0.00    -0.060 A 
ATOM     24  C   LIG    1        1.228  -0.672   0.015  0.00  0.00    +0.010 A 
ATOM     25  C   LIG    1        0.030   0.010   0.037  0.00  0.00    +0.000 A 
ATOM     26  C   LIG    1        0.018   1.394   0.052  0.00  0.00    +0.000 A 
ATOM     27  C   LIG    1        1.207   2.101   0.044  0.00  0.00    +0.000 A 
ATOM     28  C   LIG    1        2.413   1.430   0.021  0.00  0.00    +0.010 A 
ENDBRANCH  22  23
ENDBRANCH  20  21
ENDBRANCH   4  20
TORSDOF 6
