REMARK  Name = ZINCkj000005lqIx.0
REMARK                            x       y       z     vdW  Elec       q    Type
REMARK                         _______ _______ _______ _____ _____    ______ ____
ROOT
ATOM      1  C   LIG    1       -7.156   0.533   3.475  0.00  0.00    +0.230 C 
ATOM      2  C   LIG    1       -6.957   1.355   2.203  0.00  0.00    +0.330 C 
ATOM      3  N   LIG    1       -5.557   1.810   2.171  0.00  0.00    -0.630 N 
ATOM      4  C   LIG    1       -5.122   2.724   3.233  0.00  0.00    +0.340 C 
ATOM      5  C   LIG    1       -5.643   2.249   4.562  0.00  0.00    -0.060 A 
ATOM      6  C   LIG    1       -5.146   2.857   5.707  0.00  0.00    +0.030 A 
ATOM      7  C   LIG    1       -5.591   2.470   6.955  0.00  0.00    +0.070 A 
ATOM      8  C   LIG    1       -6.539   1.470   7.064  0.00  0.00    +0.030 A 
ATOM      9  C   LIG    1       -7.030   0.863   5.928  0.00  0.00    +0.030 A 
ATOM     10  C   LIG    1       -4.707   1.397   1.210  0.00  0.00    +0.520 C 
ATOM     11  O   LIG    1       -5.091   0.637   0.346  0.00  0.00    -0.520 OA
ATOM     12  C   LIG    1       -6.581   1.247   4.670  0.00  0.00    -0.150 A 
ENDROOT
BRANCH   1  13
ATOM     13  N   LIG    1       -6.487  -0.765   3.321  0.00  0.00    -0.630 N 
ATOM     14  H   LIG    1       -6.885  -1.257   2.534  0.00  0.00    +0.440 HD
ATOM     15  H   LIG    1       -6.616  -1.312   4.159  0.00  0.00    +0.440 HD
ATOM     16  H   LIG    1       -5.501  -0.619   3.163  0.00  0.00    +0.430 HD
ENDBRANCH   1  13
BRANCH  10  17
ATOM     17  C   LIG    1       -3.280   1.881   1.207  0.00  0.00    +0.090 C 
BRANCH  17  18
ATOM     18  C   LIG    1       -2.536   1.268   0.019  0.00  0.00    +0.170 C 
BRANCH  18  19
ATOM     19  C   LIG    1       -1.109   1.752   0.016  0.00  0.00    +0.190 A 
ATOM     20  N   LIG    1       -0.729   3.001   0.025  0.00  0.00    -0.480 NA
ATOM     21  C   LIG    1        0.611   3.055   0.013  0.00  0.00    +0.150 A 
ATOM     22  C   LIG    1        1.079   1.793   0.001  0.00  0.00    +0.130 A 
ATOM     23  N   LIG    1       -0.011   0.966   0.007  0.00  0.00    -0.570 N 
ATOM     24  H   LIG    1        0.002  -0.004   0.002  0.00  0.00    +0.420 HD
ENDBRANCH  18  19
ENDBRANCH  17  18
ENDBRANCH  10  17
TORSDOF 4
