REMARK  Name = ZINCqH0000037zq4.0
REMARK                            x       y       z     vdW  Elec       q    Type
REMARK                         _______ _______ _______ _____ _____    ______ ____
ROOT
ATOM      1  C   LIG    1       -6.107   1.252  -0.062  0.00  0.00    +0.120 C 
ATOM      2  C   LIG    1       -4.663   0.824  -0.015  0.00  0.00    -0.030 A 
ATOM      3  C   LIG    1       -4.271  -0.448  -0.176  0.00  0.00    -0.220 A 
ATOM      4  S   LIG    1       -2.521  -0.561  -0.066  0.00  0.00    +0.330 S 
ATOM      5  C   LIG    1       -2.372   1.117   0.205  0.00  0.00    +0.030 A 
ATOM      6  C   LIG    1       -3.608   1.715   0.200  0.00  0.00    -0.200 A 
ENDROOT
BRANCH   6   7
ATOM      7  C   LIG    1       -3.804   3.155   0.401  0.00  0.00    +0.590 C 
ATOM      8  N   LIG    1       -3.982   3.643   1.645  0.00  0.00    -0.610 N 
ATOM      9  C   LIG    1       -3.992   2.751   2.815  0.00  0.00    +0.250 C 
ATOM     10  C   LIG    1       -3.020   3.321   3.860  0.00  0.00    +0.210 C 
ATOM     11  O   LIG    1       -3.345   4.692   4.105  0.00  0.00    -0.380 OA
ATOM     12  C   LIG    1       -3.204   5.540   2.962  0.00  0.00    +0.210 C 
ATOM     13  C   LIG    1       -4.180   5.083   1.871  0.00  0.00    +0.250 C 
ATOM     14  O   LIG    1       -3.804   3.908  -0.554  0.00  0.00    -0.530 OA
ENDBRANCH   6   7
BRANCH   3  15
ATOM     15  C   LIG    1       -5.178  -1.590  -0.417  0.00  0.00    -0.010 A 
ATOM     16  C   LIG    1       -5.034  -2.767   0.319  0.00  0.00    +0.010 A 
ATOM     17  C   LIG    1       -5.888  -3.827   0.092  0.00  0.00    +0.010 A 
ATOM     18  C   LIG    1       -6.879  -3.728  -0.869  0.00  0.00    +0.000 A 
ATOM     19  C   LIG    1       -7.023  -2.566  -1.605  0.00  0.00    +0.010 A 
ATOM     20  C   LIG    1       -6.180  -1.497  -1.385  0.00  0.00    +0.020 A 
ENDBRANCH   3  15
BRANCH   5  21
ATOM     21  N   LIG    1       -1.173   1.782   0.398  0.00  0.00    -0.630 N 
ATOM     22  H   LIG    1       -1.168   2.742   0.542  0.00  0.00    +0.420 HD
ATOM     23  C   LIG    1       -0.012   1.098   0.384  0.00  0.00    +0.510 C 
ATOM     24  O   LIG    1       -0.018  -0.102   0.203  0.00  0.00    -0.500 OA
BRANCH  23  25
ATOM     25  C   LIG    1        1.293   1.823   0.588  0.00  0.00    +0.000 C 
ATOM     26  C   LIG    1        2.449   0.822   0.520  0.00  0.00    +0.070 C 
ATOM     27  C   LIG    1        1.289   2.506   1.956  0.00  0.00    +0.060 C 
ENDBRANCH  23  25
ENDBRANCH   5  21
TORSDOF 4
