REMARK  Name = ZINCqH00000515tG.0
REMARK                            x       y       z     vdW  Elec       q    Type
REMARK                         _______ _______ _______ _____ _____    ______ ____
ROOT
ATOM      1  C   LIG    1       -2.338  10.949  -0.440  0.00  0.00    +0.520 C 
ATOM      2  O   LIG    1       -3.477  10.639  -0.728  0.00  0.00    -0.500 OA
ENDROOT
BRANCH   1   6
ATOM      3  C   LIG    1       -1.385  15.005   0.348  0.00  0.00    +0.310 A 
ATOM      4  C   LIG    1       -0.390  14.035   0.421  0.00  0.00    -0.050 A 
ATOM      5  C   LIG    1       -0.696  12.716   0.171  0.00  0.00    +0.190 A 
ATOM      6  C   LIG    1       -2.005  12.358  -0.166  0.00  0.00    -0.180 A 
ATOM      7  C   LIG    1       -2.999  13.340  -0.237  0.00  0.00    +0.210 A 
ATOM      8  C   LIG    1       -2.689  14.646   0.017  0.00  0.00    -0.130 A 
BRANCH   3   9
ATOM      9  N   LIG    1       -1.077  16.336   0.605  0.00  0.00    -0.840 N 
ATOM     10  H   LIG    1       -0.152  16.608   0.712  0.00  0.00    +0.420 HD
ATOM     11  H   LIG    1       -1.787  16.993   0.677  0.00  0.00    +0.410 HD
ENDBRANCH   3   9
BRANCH   8  12
ATOM     12  N   LIG    1       -3.744  15.682  -0.059  0.00  0.00    +0.030 N 
ATOM     13  O   LIG    1       -3.485  16.782  -0.513  0.00  0.00    -0.170 OA
ATOM     14  O   LIG    1       -4.870  15.435   0.333  0.00  0.00    -0.140 OA
ENDBRANCH   8  12
ENDBRANCH   1   6
BRANCH   1  15
ATOM     15  O   LIG    1       -1.380  10.005  -0.372  0.00  0.00    -0.350 OA
BRANCH  15  16
ATOM     16  C   LIG    1       -1.780   8.638  -0.654  0.00  0.00    +0.350 C 
BRANCH  16  17
ATOM     17  C   LIG    1       -0.585   7.729  -0.530  0.00  0.00    +0.060 A 
ATOM     18  C   LIG    1        0.627   8.190  -0.205  0.00  0.00    -0.030 A 
ATOM     19  S   LIG    1        1.743   6.826  -0.162  0.00  0.00    +0.110 S 
ATOM     20  C   LIG    1        0.426   5.741  -0.600  0.00  0.00    +0.120 A 
ATOM     21  N   LIG    1       -0.668   6.434  -0.739  0.00  0.00    -0.460 NA
BRANCH  20  22
ATOM     22  C   LIG    1        0.544   4.279  -0.785  0.00  0.00    -0.040 A 
ATOM     23  C   LIG    1        1.777   3.648  -0.612  0.00  0.00    +0.070 A 
ATOM     24  C   LIG    1        1.882   2.284  -0.787  0.00  0.00    +0.000 A 
ATOM     25  C   LIG    1        0.765   1.540  -1.133  0.00  0.00    +0.120 A 
ATOM     26  C   LIG    1       -0.460   2.162  -1.311  0.00  0.00    +0.000 A 
ATOM     27  F   LIG    1        0.874   0.204  -1.303  0.00  0.00    -0.130 F 
ATOM     28  C   LIG    1       -0.577   3.524  -1.134  0.00  0.00    +0.110 A 
ENDBRANCH  20  22
ENDBRANCH  16  17
ENDBRANCH  15  16
ENDBRANCH   1  15
TORSDOF 7
