REMARK  Name = ZINCzw0000000i5N.0
REMARK                            x       y       z     vdW  Elec       q    Type
REMARK                         _______ _______ _______ _____ _____    ______ ____
ROOT
ATOM      1  C   LIG    1        1.308  -1.540   1.499  0.00  0.00    +0.550 C 
ATOM      2  N   LIG    1        1.153  -0.370   0.847  0.00  0.00    -0.610 N 
ATOM      3  C   LIG    1        0.002  -0.004   0.002  0.00  0.00    +0.290 C 
ATOM      4  C   LIG    1       -0.019   1.545   0.011  0.00  0.00    +0.280 C 
ATOM      5  C   LIG    1        1.497   1.877  -0.002  0.00  0.00    +0.080 C 
ATOM      6  F   LIG    1       -0.629   2.032   1.171  0.00  0.00    -0.180 F 
ATOM      7  F   LIG    1       -0.651   2.044  -1.133  0.00  0.00    -0.170 F 
ATOM      8  C   LIG    1        2.105   0.750   0.860  0.00  0.00    +0.240 C 
ATOM      9  O   LIG    1        2.301  -1.734   2.169  0.00  0.00    -0.510 OA
ENDROOT
BRANCH   8  10
ATOM     10  C   LIG    1        3.423   0.310   0.277  0.00  0.00    +0.510 C 
ATOM     11  N   LIG    1        4.446   1.183   0.190  0.00  0.00    -0.730 N 
ATOM     12  H   LIG    1        4.334   2.094   0.503  0.00  0.00    +0.400 HD
ATOM     13  O   LIG    1        3.563  -0.830  -0.114  0.00  0.00    -0.500 OA
BRANCH  11  14
ATOM     14  C   LIG    1        5.728   0.755  -0.376  0.00  0.00    +0.290 C 
BRANCH  14  15
ATOM     15  C   LIG    1        6.716   1.934  -0.358  0.00  0.00    -0.080 C 
ATOM     16  C   LIG    1        6.938   2.370   1.087  0.00  0.00    +0.060 C 
ATOM     17  C   LIG    1        8.064   3.386   1.214  0.00  0.00    +0.060 C 
ATOM     18  C   LIG    1        9.293   3.007   0.405  0.00  0.00    +0.250 C 
ATOM     19  N   LIG    1        8.985   2.586  -0.955  0.00  0.00    -0.370 N 
ATOM     20  C   LIG    1        8.520   3.679  -1.799  0.00  0.00    +0.250 C 
ATOM     21  C   LIG    1        7.144   4.195  -1.408  0.00  0.00    +0.060 C 
ATOM     22  H   LIG    1        9.854   2.239  -1.366  0.00  0.00    +0.430 HD
ATOM     23  C   LIG    1        8.040   1.469  -0.965  0.00  0.00    +0.280 C 
ATOM     24  C   LIG    1        6.138   3.074  -1.191  0.00  0.00    +0.060 C 
ENDBRANCH  14  15
ENDBRANCH  11  14
ENDBRANCH   8  10
BRANCH   1  25
ATOM     25  C   LIG    1        0.248  -2.606   1.397  0.00  0.00    +0.070 C 
BRANCH  25  26
ATOM     26  C   LIG    1        0.667  -3.822   2.225  0.00  0.00    +0.110 C 
BRANCH  26  30
ATOM     27  C   LIG    1       -2.338  -6.845   1.935  0.00  0.00    -0.660 A 
ATOM     28  C   LIG    1       -1.297  -6.816   1.026  0.00  0.00    +0.120 A 
ATOM     29  C   LIG    1       -0.325  -5.838   1.120  0.00  0.00    -0.010 A 
ATOM     30  C   LIG    1       -0.393  -4.889   2.123  0.00  0.00    -0.030 A 
ATOM     31  C   LIG    1       -1.431  -4.921   3.035  0.00  0.00    -0.010 A 
ATOM     32  C   LIG    1       -2.407  -5.896   2.938  0.00  0.00    +0.120 A 
BRANCH  27  33
ATOM     33  S   LIG    1       -3.577  -8.092   1.816  0.00  0.00    +2.490 S 
ATOM     34  O   LIG    1       -3.577  -8.456   0.443  0.00  0.00    -0.930 OA
ATOM     35  O   LIG    1       -4.723  -7.506   2.418  0.00  0.00    -0.930 OA
BRANCH  33  37
ATOM     36  C   LIG    1       -3.948 -10.612   2.813  0.00  0.00    +0.100 C 
ATOM     37  C   LIG    1       -2.948  -9.454   2.836  0.00  0.00    -0.330 C 
ENDBRANCH  33  37
ENDBRANCH  27  33
ENDBRANCH  26  30
ENDBRANCH  25  26
ENDBRANCH   1  25
TORSDOF 8
