REMARK  Name = ZINCqH0000032xR9.0
REMARK                            x       y       z     vdW  Elec       q    Type
REMARK                         _______ _______ _______ _____ _____    ______ ____
ROOT
ATOM      1  N   LIG    1       -7.067   3.413   1.335  0.00  0.00    -0.660 N 
ATOM      2  H   LIG    1       -7.850   2.844   1.270  0.00  0.00    +0.420 HD
ATOM      3  C   LIG    1       -7.213   4.749   1.444  0.00  0.00    +0.520 C 
ATOM      4  O   LIG    1       -6.236   5.468   1.439  0.00  0.00    -0.520 OA
ENDROOT
BRANCH   1  10
ATOM      5  N   LIG    1       -2.002   1.306   1.188  0.00  0.00    -0.380 N 
ATOM      6  N   LIG    1       -1.333   2.321   0.497  0.00  0.00    -0.230 NA
ATOM      7  C   LIG    1       -2.163   3.277   0.194  0.00  0.00    +0.280 A 
ATOM      8  C   LIG    1       -3.475   2.906   0.712  0.00  0.00    -0.210 A 
ATOM      9  C   LIG    1       -4.735   3.516   0.704  0.00  0.00    +0.170 A 
ATOM     10  C   LIG    1       -5.785   2.847   1.314  0.00  0.00    +0.040 A 
ATOM     11  C   LIG    1       -5.554   1.607   1.906  0.00  0.00    +0.330 A 
ATOM     12  N   LIG    1       -4.361   1.056   1.901  0.00  0.00    -0.490 NA
ATOM     13  C   LIG    1       -3.320   1.650   1.332  0.00  0.00    +0.300 A 
BRANCH   5  15
ATOM     14  C   LIG    1       -0.272   0.417   2.671  0.00  0.00    +0.050 C 
ATOM     15  C   LIG    1       -1.388   0.071   1.684  0.00  0.00    +0.270 C 
ATOM     16  C   LIG    1       -0.805  -0.716   0.509  0.00  0.00    +0.050 C 
ENDBRANCH   5  15
ENDBRANCH   1  10
BRANCH   3  17
ATOM     17  C   LIG    1       -8.589   5.349   1.572  0.00  0.00    +0.090 C 
BRANCH  17  18
ATOM     18  C   LIG    1       -8.474   6.871   1.680  0.00  0.00    +0.070 C 
BRANCH  18  19
ATOM     19  C   LIG    1       -9.850   7.471   1.809  0.00  0.00    +0.400 C 
ATOM     20  O   LIG    1      -10.827   6.752   1.813  0.00  0.00    -0.450 OA
BRANCH  19  21
ATOM     21  C   LIG    1      -10.009   8.928   1.928  0.00  0.00    -0.190 A 
ATOM     22  C   LIG    1       -8.883   9.759   1.929  0.00  0.00    +0.110 A 
ATOM     23  C   LIG    1       -9.039  11.124   2.037  0.00  0.00    -0.030 A 
ATOM     24  C   LIG    1      -10.308  11.673   2.155  0.00  0.00    +0.130 A 
ATOM     25  C   LIG    1      -11.427  10.854   2.159  0.00  0.00    -0.030 A 
ATOM     26  F   LIG    1      -10.453  13.011   2.265  0.00  0.00    -0.130 F 
ATOM     27  C   LIG    1      -11.286   9.488   2.047  0.00  0.00    +0.120 A 
ENDBRANCH  19  21
ENDBRANCH  18  19
ENDBRANCH  17  18
ENDBRANCH   3  17
TORSDOF 6
