REMARK  Name = ZINCrD0000073I6A.0
REMARK                            x       y       z     vdW  Elec       q    Type
REMARK                         _______ _______ _______ _____ _____    ______ ____
ROOT
ATOM      1  C   LIG    1        6.017  -1.407   2.938  0.00  0.00    +0.110 C 
ENDROOT
BRANCH   1   4
ATOM      2  N   LIG    1        4.266  -0.755   1.317  0.00  0.00    -0.710 N 
ATOM      3  H   LIG    1        3.787  -0.338   2.050  0.00  0.00    +0.400 HD
ATOM      4  C   LIG    1        5.444  -1.368   1.544  0.00  0.00    +0.530 C 
ATOM      5  O   LIG    1        6.044  -1.889   0.628  0.00  0.00    -0.520 OA
BRANCH   2   6
ATOM      6  C   LIG    1        3.710  -0.717  -0.038  0.00  0.00    +0.330 C 
BRANCH   6  12
ATOM      7  C   LIG    1        2.380   1.409  -0.014  0.00  0.00    +0.150 A 
ATOM      8  C   LIG    1        1.170   2.086   0.002  0.00  0.00    -0.080 A 
ATOM      9  C   LIG    1       -0.017   1.378   0.010  0.00  0.00    +0.060 A 
ATOM     10  C   LIG    1        0.002  -0.004   0.002  0.00  0.00    -0.030 A 
ATOM     11  C   LIG    1        1.208  -0.681  -0.013  0.00  0.00    +0.070 A 
ATOM     12  C   LIG    1        2.396   0.022  -0.021  0.00  0.00    -0.150 A 
BRANCH   7  14
ATOM     13  C   LIG    1        3.456   3.530  -0.013  0.00  0.00    +0.250 C 
ATOM     14  O   LIG    1        3.548   2.104  -0.021  0.00  0.00    -0.310 OA
ENDBRANCH   7  14
ENDBRANCH   6  12
ENDBRANCH   2   6
ENDBRANCH   1   4
BRANCH   1  15
ATOM     15  S   LIG    1        7.595  -2.295   2.917  0.00  0.00    +0.090 S 
BRANCH  15  16
ATOM     16  C   LIG    1        8.026  -2.191   4.622  0.00  0.00    +0.150 A 
ATOM     17  N   LIG    1        7.332  -1.604   5.569  0.00  0.00    -0.290 NA
ATOM     18  N   LIG    1        7.939  -1.723   6.696  0.00  0.00    -0.280 NA
ATOM     19  C   LIG    1        9.054  -2.379   6.537  0.00  0.00    +0.200 A 
ATOM     20  C   LIG    1       10.051  -2.719   7.614  0.00  0.00    +0.200 C 
ATOM     21  N   LIG    1        9.151  -2.702   5.210  0.00  0.00    -0.410 N 
BRANCH  21  22
ATOM     22  C   LIG    1       10.188  -3.409   4.583  0.00  0.00    +0.090 A 
ATOM     23  C   LIG    1       11.277  -2.726   4.059  0.00  0.00    +0.040 A 
ATOM     24  C   LIG    1       12.299  -3.425   3.446  0.00  0.00    +0.030 A 
ATOM     25  C   LIG    1       12.233  -4.802   3.346  0.00  0.00    +0.040 A 
ATOM     26  C   LIG    1       11.147  -5.485   3.863  0.00  0.00    +0.030 A 
ATOM     27  C   LIG    1       10.124  -4.792   4.481  0.00  0.00    -0.060 A 
ATOM     28  C   LIG    1        8.941  -5.536   5.043  0.00  0.00    +0.100 C 
ENDBRANCH  21  22
ENDBRANCH  15  16
ENDBRANCH   1  15
TORSDOF 7
