REMARK  Name = ZINCqH0000034U1f.0
REMARK                            x       y       z     vdW  Elec       q    Type
REMARK                         _______ _______ _______ _____ _____    ______ ____
ROOT
ATOM      1  N   LIG    1       -2.854  -2.315   0.072  0.00  0.00    -0.750 N 
ATOM      2  H   LIG    1       -3.573  -1.694   0.269  0.00  0.00    +0.400 HD
ATOM      3  C   LIG    1       -1.623  -1.850  -0.216  0.00  0.00    +0.700 C 
ATOM      4  N   LIG    1       -1.389  -0.523  -0.230  0.00  0.00    -0.750 N 
ATOM      5  H   LIG    1       -2.108   0.098  -0.033  0.00  0.00    +0.400 HD
ATOM      6  O   LIG    1       -0.722  -2.628  -0.463  0.00  0.00    -0.590 OA
ENDROOT
BRANCH   1   7
ATOM      7  C   LIG    1       -3.108  -3.758   0.088  0.00  0.00    +0.280 C 
BRANCH   7   8
ATOM      8  C   LIG    1       -4.574  -4.014   0.441  0.00  0.00    +0.070 C 
BRANCH   8  12
ATOM      9  C   LIG    1       -5.314  -8.223   0.487  0.00  0.00    +0.160 A 
ATOM     10  C   LIG    1       -4.906  -7.576   1.645  0.00  0.00    +0.020 A 
ATOM     11  C   LIG    1       -4.668  -6.216   1.627  0.00  0.00    +0.040 A 
ATOM     12  C   LIG    1       -4.835  -5.498   0.457  0.00  0.00    -0.100 A 
ATOM     13  C   LIG    1       -5.246  -6.139  -0.697  0.00  0.00    +0.040 A 
ATOM     14  C   LIG    1       -5.481  -7.500  -0.687  0.00  0.00    -0.010 A 
BRANCH   9  16
ATOM     15  C   LIG    1       -6.050 -10.188   1.610  0.00  0.00    +0.650 C 
ATOM     16  N   LIG    1       -5.556  -9.602   0.502  0.00  0.00    -0.650 N 
ATOM     17  H   LIG    1       -5.367 -10.136  -0.286  0.00  0.00    +0.420 HD
ATOM     18  O   LIG    1       -6.377  -9.507   2.563  0.00  0.00    -0.550 OA
BRANCH  15  20
ATOM     19  C   LIG    1       -6.721 -12.088   2.888  0.00  0.00    +0.310 C 
ATOM     20  O   LIG    1       -6.182 -11.526   1.663  0.00  0.00    -0.370 OA
ENDBRANCH  15  20
ENDBRANCH   9  16
ENDBRANCH   8  12
ENDBRANCH   7   8
ENDBRANCH   1   7
BRANCH   4  21
ATOM     21  C   LIG    1       -0.051  -0.018  -0.544  0.00  0.00    +0.280 C 
BRANCH  21  22
ATOM     22  C   LIG    1       -0.058   1.512  -0.492  0.00  0.00    -0.020 C 
ATOM     23  C   LIG    1       -0.964   2.055  -1.599  0.00  0.00    +0.010 C 
ATOM     24  C   LIG    1       -0.971   3.584  -1.548  0.00  0.00    -0.020 C 
ATOM     25  C   LIG    1        0.452   4.107  -1.752  0.00  0.00    +0.010 C 
ATOM     26  C   LIG    1        1.359   3.564  -0.645  0.00  0.00    -0.020 C 
ATOM     27  C   LIG    1        0.835   4.027   0.716  0.00  0.00    +0.010 C 
ATOM     28  C   LIG    1       -1.878   4.127  -2.654  0.00  0.00    +0.000 C 
ATOM     29  C   LIG    1        1.365   2.035  -0.697  0.00  0.00    +0.030 C 
ENDBRANCH  21  22
ENDBRANCH   4  21
TORSDOF 7
