REMARK  Name = ZINCqH0000051c7j.0
REMARK                            x       y       z     vdW  Elec       q    Type
REMARK                         _______ _______ _______ _____ _____    ______ ____
ROOT
ATOM      1  C   LIG    1        0.517   7.688   0.041  0.00  0.00    +0.120 A 
ATOM      2  N   LIG    1        1.796   7.392   0.027  0.00  0.00    -0.280 NA
ATOM      3  N   LIG    1        1.940   6.114   0.018  0.00  0.00    -0.260 NA
ATOM      4  C   LIG    1        0.761   5.542   0.026  0.00  0.00    +0.220 A 
ATOM      5  O   LIG    1       -0.165   6.526   0.035  0.00  0.00    -0.200 OA
ENDROOT
BRANCH   4   6
ATOM      6  C   LIG    1        0.493   4.089   0.020  0.00  0.00    -0.020 A 
ATOM      7  C   LIG    1       -0.822   3.620   0.030  0.00  0.00    +0.080 A 
ATOM      8  C   LIG    1       -1.070   2.263   0.019  0.00  0.00    +0.050 A 
ATOM      9  C   LIG    1       -0.016   1.361   0.009  0.00  0.00    +0.060 A 
ATOM     10  O   LIG    1        0.002  -0.004   0.002  0.00  0.00    -0.300 OA
ATOM     11  C   LIG    1        1.335  -0.373   0.400  0.00  0.00    +0.440 C 
ATOM     12  O   LIG    1        2.139   0.747  -0.014  0.00  0.00    -0.300 OA
ATOM     13  C   LIG    1        1.300   1.823  -0.001  0.00  0.00    +0.030 A 
ATOM     14  C   LIG    1        1.554   3.182   0.005  0.00  0.00    +0.100 A 
ENDBRANCH   4   6
BRANCH   1  15
ATOM     15  S   LIG    1       -0.179   9.306   0.056  0.00  0.00    +0.140 S 
BRANCH  15  16
ATOM     16  C   LIG    1        1.334  10.299   0.048  0.00  0.00    +0.090 C 
BRANCH  16  18
ATOM     17  O   LIG    1       -0.190  12.101   0.073  0.00  0.00    -0.410 OA
ATOM     18  C   LIG    1        0.975  11.763   0.060  0.00  0.00    +0.420 C 
BRANCH  18  19
ATOM     19  C   LIG    1        2.036  12.780   0.056  0.00  0.00    -0.170 A 
ATOM     20  C   LIG    1        3.380  12.394   0.047  0.00  0.00    +0.080 A 
ATOM     21  C   LIG    1        4.370  13.356   0.038  0.00  0.00    +0.080 A 
ATOM     22  C   LIG    1        4.036  14.701   0.049  0.00  0.00    +0.070 A 
ATOM     23  C   LIG    1        2.710  15.092   0.063  0.00  0.00    +0.020 A 
ATOM     24  F   LIG    1        5.669  12.985   0.023  0.00  0.00    -0.130 F 
ATOM     25  C   LIG    1        1.706  14.142   0.067  0.00  0.00    +0.160 A 
ATOM     26  F   LIG    1        0.410  14.525   0.082  0.00  0.00    -0.110 F 
ENDBRANCH  18  19
ENDBRANCH  16  18
ENDBRANCH  15  16
ENDBRANCH   1  15
TORSDOF 5
