REMARK  Name = ZINCvU0000000AM2.0
REMARK                            x       y       z     vdW  Elec       q    Type
REMARK                         _______ _______ _______ _____ _____    ______ ____
ROOT
ATOM      1  C   LIG    1        3.312   3.917   0.983  0.00  0.00    +0.160 A 
ATOM      2  N   LIG    1        4.271   4.711   0.565  0.00  0.00    -0.280 NA
ATOM      3  N   LIG    1        3.977   5.180  -0.594  0.00  0.00    -0.240 NA
ATOM      4  C   LIG    1        2.825   4.715  -0.988  0.00  0.00    +0.210 A 
ATOM      5  N   LIG    1        2.360   3.889   0.001  0.00  0.00    -0.420 N 
ENDROOT
BRANCH   5   6
ATOM      6  C   LIG    1        1.155   3.170   0.008  0.00  0.00    +0.090 A 
ATOM      7  C   LIG    1        1.174   1.782   0.000  0.00  0.00    +0.080 A 
ATOM      8  C   LIG    1       -0.013   1.076   0.008  0.00  0.00    +0.010 A 
ATOM      9  C   LIG    1       -1.221   1.751   0.017  0.00  0.00    +0.120 A 
ATOM     10  C   LIG    1       -1.242   3.136   0.031  0.00  0.00    +0.010 A 
ATOM     11  F   LIG    1       -2.381   1.059   0.019  0.00  0.00    -0.130 F 
ATOM     12  C   LIG    1       -0.058   3.846   0.023  0.00  0.00    +0.070 A 
ENDBRANCH   5   6
BRANCH   4  13
ATOM     13  C   LIG    1        2.133   5.027  -2.290  0.00  0.00    +0.230 C 
ATOM     14  C   LIG    1        2.824   4.274  -3.428  0.00  0.00    +0.070 C 
BRANCH  13  15
ATOM     15  N   LIG    1        2.201   6.472  -2.546  0.00  0.00    -0.520 NA
ATOM     16  C   LIG    1        1.635   7.233  -1.425  0.00  0.00    +0.160 C 
ATOM     17  C   LIG    1        1.854   8.729  -1.659  0.00  0.00    +0.040 C 
ATOM     18  C   LIG    1        1.178   9.139  -2.971  0.00  0.00    +0.010 C 
ATOM     19  C   LIG    1        1.751   8.298  -4.115  0.00  0.00    +0.020 C 
ATOM     20  C   LIG    1        1.535   6.814  -3.809  0.00  0.00    +0.160 C 
ENDBRANCH  13  15
ENDBRANCH   4  13
BRANCH   1  21
ATOM     21  S   LIG    1        3.262   3.049   2.515  0.00  0.00    +0.050 S 
BRANCH  21  22
ATOM     22  C   LIG    1        4.834   3.588   3.233  0.00  0.00    +0.160 C 
ATOM     23  C   LIG    1        5.991   3.060   2.383  0.00  0.00    +0.110 C 
BRANCH  22  27
ATOM     24  C   LIG    1        5.302   2.840   6.713  0.00  0.00    +0.180 A 
ATOM     25  N   LIG    1        4.885   1.708   6.231  0.00  0.00    -0.370 NA
ATOM     26  O   LIG    1        4.675   1.810   5.040  0.00  0.00    +0.090 OA
ATOM     27  C   LIG    1        4.956   3.052   4.636  0.00  0.00    +0.190 A 
ATOM     28  N   LIG    1        5.353   3.717   5.694  0.00  0.00    -0.460 NA
BRANCH  24  29
ATOM     29  C   LIG    1        5.663   3.119   8.149  0.00  0.00    +0.160 C 
BRANCH  29  31
ATOM     30  C   LIG    1        4.788   3.885  10.360  0.00  0.00    +0.030 C 
ATOM     31  C   LIG    1        4.422   3.602   8.902  0.00  0.00    +0.020 C 
ENDBRANCH  29  31
ENDBRANCH  24  29
ENDBRANCH  22  27
ENDBRANCH  21  22
ENDBRANCH   1  21
TORSDOF 8
