REMARK  Name = ZINCpe000000Umn5.0
REMARK                            x       y       z     vdW  Elec       q    Type
REMARK                         _______ _______ _______ _____ _____    ______ ____
ROOT
ATOM      1  O   LIG    1       -0.304  -0.331  -5.612  0.00  0.00    -0.290 OA
ENDROOT
BRANCH   1   2
ATOM      2  C   LIG    1        0.322  -0.611  -6.785  0.00  0.00    +0.150 A 
ATOM      3  C   LIG    1        1.578  -0.082  -7.045  0.00  0.00    -0.100 A 
ATOM      4  C   LIG    1        2.219  -0.371  -8.235  0.00  0.00    +0.080 A 
ATOM      5  C   LIG    1        1.607  -1.178  -9.174  0.00  0.00    -0.030 A 
ATOM      6  C   LIG    1        0.347  -1.707  -8.921  0.00  0.00    +0.210 A 
ATOM      7  C   LIG    1       -0.296  -1.422  -7.724  0.00  0.00    -0.050 A 
BRANCH   6   8
ATOM      8  N   LIG    1       -0.274  -2.524  -9.872  0.00  0.00    -0.560 N 
ATOM      9  C   LIG    1       -1.543  -3.228  -9.657  0.00  0.00    +0.260 C 
ATOM     10  C   LIG    1       -1.606  -4.311 -10.757  0.00  0.00    +0.060 C 
ATOM     11  C   LIG    1       -0.706  -3.698 -11.854  0.00  0.00    +0.070 C 
ATOM     12  C   LIG    1        0.213  -2.761 -11.102  0.00  0.00    +0.520 C 
ATOM     13  O   LIG    1        1.242  -2.294 -11.544  0.00  0.00    -0.510 OA
ENDBRANCH   6   8
ENDBRANCH   1   2
BRANCH   1  14
ATOM     14  C   LIG    1        0.391   0.511  -4.691  0.00  0.00    +0.240 C 
BRANCH  14  17
ATOM     15  C   LIG    1        1.320   2.111  -2.544  0.00  0.00    +0.290 C 
ATOM     16  N   LIG    1        0.004   1.474  -2.445  0.00  0.00    -0.610 N 
ATOM     17  C   LIG    1       -0.452   0.710  -3.457  0.00  0.00    +0.520 C 
ATOM     18  O   LIG    1       -1.541   0.182  -3.375  0.00  0.00    -0.510 OA
BRANCH  16  19
ATOM     19  C   LIG    1       -0.815   1.667  -1.246  0.00  0.00    +0.280 C 
ATOM     20  C   LIG    1       -0.058   1.144  -0.012  0.00  0.00    +0.070 C 
ATOM     21  C   LIG    1       -0.817   1.673   1.232  0.00  0.00    -0.290 C 
ATOM     22  S   LIG    1       -1.197   3.404   0.761  0.00  0.00    +2.390 S 
ATOM     23  O   LIG    1       -2.535   3.712   1.126  0.00  0.00    -0.930 OA
ATOM     24  O   LIG    1       -0.136   4.249   1.183  0.00  0.00    -0.930 OA
ATOM     25  C   LIG    1       -1.101   3.169  -1.050  0.00  0.00    -0.330 C 
ENDBRANCH  16  19
ENDBRANCH  14  17
ENDBRANCH   1  14
TORSDOF 5
