REMARK  Name = ZINCvU00000005Rw.0
REMARK                            x       y       z     vdW  Elec       q    Type
REMARK                         _______ _______ _______ _____ _____    ______ ____
ROOT
ATOM      1  C   LIG    1       -3.055  -3.748   0.605  0.00  0.00    -0.110 A 
ATOM      2  C   LIG    1       -2.040  -4.638   0.302  0.00  0.00    +0.030 A 
ATOM      3  C   LIG    1       -2.044  -5.905   0.852  0.00  0.00    -0.010 A 
ATOM      4  C   LIG    1       -3.074  -6.289   1.700  0.00  0.00    +0.160 A 
ATOM      5  C   LIG    1       -4.095  -5.396   1.997  0.00  0.00    +0.030 A 
ATOM      6  C   LIG    1       -4.082  -4.128   1.449  0.00  0.00    +0.040 A 
ENDROOT
BRANCH   4   7
ATOM      7  N   LIG    1       -3.083  -7.574   2.254  0.00  0.00    -0.680 N 
ATOM      8  H   LIG    1       -2.752  -8.327   1.740  0.00  0.00    +0.410 HD
ATOM      9  C   LIG    1       -3.553  -7.766   3.503  0.00  0.00    +0.700 C 
ATOM     10  N   LIG    1       -3.477  -8.986   4.071  0.00  0.00    -0.680 N 
ATOM     11  H   LIG    1       -3.024  -9.709   3.610  0.00  0.00    +0.410 HD
ATOM     12  O   LIG    1       -4.046  -6.839   4.116  0.00  0.00    -0.550 OA
BRANCH  10  13
ATOM     13  C   LIG    1       -4.051  -9.209   5.328  0.00  0.00    +0.160 A 
ATOM     14  C   LIG    1       -4.034  -8.206   6.288  0.00  0.00    +0.020 A 
ATOM     15  C   LIG    1       -4.606  -8.428   7.526  0.00  0.00    +0.030 A 
ATOM     16  C   LIG    1       -5.185  -9.650   7.812  0.00  0.00    -0.010 A 
ATOM     17  C   LIG    1       -5.198 -10.653   6.860  0.00  0.00    +0.030 A 
ATOM     18  C   LIG    1       -4.633 -10.436   5.619  0.00  0.00    -0.020 A 
ENDBRANCH  10  13
ENDBRANCH   4   7
BRANCH   1  19
ATOM     19  C   LIG    1       -3.044  -2.365   0.008  0.00  0.00    +0.290 C 
ATOM     20  C   LIG    1       -3.568  -2.424  -1.428  0.00  0.00    +0.040 C 
BRANCH  19  22
ATOM     21  C   LIG    1       -1.461  -0.513   0.012  0.00  0.00    +0.520 C 
ATOM     22  N   LIG    1       -1.675  -1.843   0.008  0.00  0.00    -0.720 N 
ATOM     23  H   LIG    1       -0.923  -2.456   0.005  0.00  0.00    +0.400 HD
ATOM     24  O   LIG    1       -2.401   0.253   0.015  0.00  0.00    -0.510 OA
BRANCH  21  25
ATOM     25  C   LIG    1       -0.052   0.024   0.011  0.00  0.00    +0.220 C 
BRANCH  25  26
ATOM     26  O   LIG    1       -0.087   1.452   0.016  0.00  0.00    -0.290 OA
BRANCH  26  31
ATOM     27  C   LIG    1        2.367   4.139   0.020  0.00  0.00    -0.040 A 
ATOM     28  C   LIG    1        3.543   3.413   0.017  0.00  0.00    -0.030 A 
ATOM     29  C   LIG    1        3.505   2.030   0.012  0.00  0.00    +0.050 A 
ATOM     30  C   LIG    1        2.291   1.372   0.018  0.00  0.00    -0.090 A 
ATOM     31  C   LIG    1        1.109   2.098   0.016  0.00  0.00    +0.130 A 
ATOM     32  C   LIG    1        1.150   3.485   0.020  0.00  0.00    -0.020 A 
BRANCH  27  34
ATOM     33  C   LIG    1        2.429   6.150   1.469  0.00  0.00    +0.030 C 
ATOM     34  C   LIG    1        2.412   5.645   0.025  0.00  0.00    +0.070 C 
ENDBRANCH  27  34
ENDBRANCH  26  31
ENDBRANCH  25  26
ENDBRANCH  21  25
ENDBRANCH  19  22
ENDBRANCH   1  19
TORSDOF 8
