REMARK  Name = ZINCrD00000fNveI.0
REMARK                            x       y       z     vdW  Elec       q    Type
REMARK                         _______ _______ _______ _____ _____    ______ ____
ROOT
ATOM      1  C   LIG    1        3.045   2.485  -3.164  0.00  0.00    +0.250 A 
ATOM      2  N   LIG    1        3.414   1.454  -2.435  0.00  0.00    -0.270 NA
ATOM      3  N   LIG    1        2.369   0.797  -2.072  0.00  0.00    -0.270 NA
ATOM      4  C   LIG    1        1.302   1.374  -2.549  0.00  0.00    +0.130 A 
ATOM      5  O   LIG    1        1.699   2.449  -3.253  0.00  0.00    -0.220 OA
ENDROOT
BRANCH   1   7
ATOM      6  C   LIG    1        5.286   3.499  -3.673  0.00  0.00    +0.100 A 
ATOM      7  C   LIG    1        3.933   3.486  -3.773  0.00  0.00    -0.160 A 
ATOM      8  S   LIG    1        3.410   4.849  -4.750  0.00  0.00    +0.170 S 
ATOM      9  C   LIG    1        5.072   5.379  -4.969  0.00  0.00    -0.150 A 
ATOM     10  C   LIG    1        5.500   6.597  -5.763  0.00  0.00    +0.120 C 
ATOM     11  C   LIG    1        6.943   6.945  -5.388  0.00  0.00    +0.030 C 
ATOM     12  C   LIG    1        7.801   5.680  -5.481  0.00  0.00    +0.020 C 
ATOM     13  C   LIG    1        7.429   4.732  -4.340  0.00  0.00    +0.100 C 
ATOM     14  C   LIG    1        5.918   4.542  -4.332  0.00  0.00    -0.110 A 
ENDBRANCH   1   7
BRANCH   4  15
ATOM     15  C   LIG    1       -0.120   0.915  -2.352  0.00  0.00    +0.390 C 
BRANCH  15  16
ATOM     16  N   LIG    1       -0.674   1.542  -1.145  0.00  0.00    -0.520 NA
ATOM     17  C   LIG    1       -0.013   1.086   0.008  0.00  0.00    +0.160 C 
ATOM     18  C   LIG    1       -0.715   1.573   1.293  0.00  0.00    +0.230 C 
ATOM     19  O   LIG    1       -0.390   2.924   1.512  0.00  0.00    -0.380 OA
ATOM     20  C   LIG    1       -1.309   3.906   0.994  0.00  0.00    +0.220 C 
ATOM     21  C   LIG    1       -1.821   3.553  -0.411  0.00  0.00    -0.090 C 
ATOM     22  C   LIG    1       -2.940   2.511  -0.278  0.00  0.00    +0.020 C 
ATOM     23  C   LIG    1       -3.535   2.236  -1.661  0.00  0.00    +0.220 C 
ATOM     24  O   LIG    1       -4.025   3.457  -2.220  0.00  0.00    -0.380 OA
ATOM     25  C   LIG    1       -3.023   4.459  -2.403  0.00  0.00    +0.200 C 
ATOM     26  C   LIG    1       -2.410   4.819  -1.048  0.00  0.00    +0.010 C 
ATOM     27  C   LIG    1       -0.713   3.009  -1.282  0.00  0.00    +0.190 C 
ENDBRANCH  15  16
ENDBRANCH   4  15
TORSDOF 3
