REMARK  Name = ZINCfA000000beh2.1
REMARK                            x       y       z     vdW  Elec       q    Type
REMARK                         _______ _______ _______ _____ _____    ______ ____
ROOT
ATOM      1  N   LIG    1       -2.267   0.919   1.096  0.00  0.00    -0.380 N 
ATOM      2  H   LIG    1       -2.713   0.974   0.193  0.00  0.00    +0.430 HD
ENDROOT
BRANCH   1   3
ATOM      3  C   LIG    1       -3.174   1.448   2.123  0.00  0.00    +0.290 C 
ATOM      4  C   LIG    1       -4.462   0.623   2.140  0.00  0.00    +0.120 C 
BRANCH   3   5
ATOM      5  C   LIG    1       -3.501   2.885   1.812  0.00  0.00    -0.120 A 
ATOM      6  N   LIG    1       -3.815   3.353   0.647  0.00  0.00    -0.230 NA
ATOM      7  N   LIG    1       -4.062   4.591   0.585  0.00  0.00    -0.250 NA
ATOM      8  C   LIG    1       -3.963   5.255   1.691  0.00  0.00    +0.020 A 
ATOM      9  C   LIG    1       -4.203   6.734   1.853  0.00  0.00    +0.230 C 
ATOM     10  S   LIG    1       -3.514   4.174   2.939  0.00  0.00    +0.250 S 
ENDBRANCH   3   5
ENDBRANCH   1   3
BRANCH   1  11
ATOM     11  C   LIG    1       -1.030   1.710   1.081  0.00  0.00    +0.240 C 
ATOM     12  C   LIG    1       -0.310   1.559   2.422  0.00  0.00    +0.090 C 
ENDBRANCH   1  11
BRANCH   1  13
ATOM     13  C   LIG    1       -1.947  -0.483   1.400  0.00  0.00    +0.260 C 
BRANCH  13  14
ATOM     14  C   LIG    1       -1.086  -1.064   0.277  0.00  0.00    +0.030 C 
BRANCH  14  16
ATOM     15  C   LIG    1        0.002  -3.138  -0.595  0.00  0.00    +0.030 C 
ATOM     16  C   LIG    1       -0.860  -2.556   0.528  0.00  0.00    +0.020 C 
ENDBRANCH  14  16
ENDBRANCH  13  14
ENDBRANCH   1  13
TORSDOF 6
