REMARK  Name = ZINCfA000000beh2.2
REMARK                            x       y       z     vdW  Elec       q    Type
REMARK                         _______ _______ _______ _____ _____    ______ ____
ROOT
ATOM      1  N   LIG    1       -1.463  -2.103  -0.208  0.00  0.00    -0.380 N 
ATOM      2  H   LIG    1       -1.235  -2.559  -1.078  0.00  0.00    +0.430 HD
ENDROOT
BRANCH   1   3
ATOM      3  C   LIG    1       -2.859  -2.393   0.147  0.00  0.00    +0.290 C 
ATOM      4  C   LIG    1       -3.019  -3.892   0.403  0.00  0.00    +0.120 C 
BRANCH   3   5
ATOM      5  C   LIG    1       -3.761  -1.977  -0.986  0.00  0.00    -0.120 A 
ATOM      6  N   LIG    1       -3.558  -2.218  -2.241  0.00  0.00    -0.230 NA
ATOM      7  N   LIG    1       -4.432  -1.788  -3.046  0.00  0.00    -0.250 NA
ATOM      8  C   LIG    1       -5.434  -1.154  -2.526  0.00  0.00    +0.020 A 
ATOM      9  C   LIG    1       -6.588  -0.557  -3.289  0.00  0.00    +0.230 C 
ATOM     10  S   LIG    1       -5.231  -1.113  -0.827  0.00  0.00    +0.250 S 
ENDBRANCH   3   5
ENDBRANCH   1   3
BRANCH   1  11
ATOM     11  C   LIG    1       -0.575  -2.599   0.852  0.00  0.00    +0.260 C 
ATOM     12  C   LIG    1       -0.986  -1.984   2.192  0.00  0.00    +0.080 C 
ENDBRANCH   1  11
BRANCH   1  13
ATOM     13  C   LIG    1       -1.286  -0.652  -0.354  0.00  0.00    +0.230 C 
BRANCH  13  14
ATOM     14  C   LIG    1        0.133  -0.358  -0.844  0.00  0.00    +0.030 C 
BRANCH  14  16
ATOM     15  C   LIG    1        1.736   1.447  -1.487  0.00  0.00    +0.030 C 
ATOM     16  C   LIG    1        0.317   1.153  -0.997  0.00  0.00    +0.020 C 
ENDBRANCH  14  16
ENDBRANCH  13  14
ENDBRANCH   1  13
TORSDOF 6
