REMARK  Name = ZINCqH0000004RKU.0
REMARK                            x       y       z     vdW  Elec       q    Type
REMARK                         _______ _______ _______ _____ _____    ______ ____
ROOT
ATOM      1  N   LIG    1       -4.447   8.536  -1.280  0.00  0.00    -0.650 N 
ATOM      2  H   LIG    1       -4.688   9.252  -0.670  0.00  0.00    +0.420 HD
ATOM      3  C   LIG    1       -3.305   7.846  -1.092  0.00  0.00    +0.510 C 
ATOM      4  O   LIG    1       -3.004   6.952  -1.854  0.00  0.00    -0.430 OA
ENDROOT
BRANCH   1  13
ATOM      5  N   LIG    1       -6.457   8.850  -2.626  0.00  0.00    -0.500 N 
ATOM      6  C   LIG    1       -6.978   8.251  -3.760  0.00  0.00    +0.050 A 
ATOM      7  C   LIG    1       -8.126   8.450  -4.512  0.00  0.00    +0.010 A 
ATOM      8  C   LIG    1       -8.368   7.659  -5.617  0.00  0.00    +0.020 A 
ATOM      9  C   LIG    1       -7.471   6.667  -5.982  0.00  0.00    +0.010 A 
ATOM     10  C   LIG    1       -6.325   6.456  -5.247  0.00  0.00    +0.060 A 
ATOM     11  C   LIG    1       -6.065   7.247  -4.125  0.00  0.00    +0.060 A 
ATOM     12  N   LIG    1       -5.051   7.282  -3.222  0.00  0.00    -0.470 NA
ATOM     13  C   LIG    1       -5.278   8.224  -2.343  0.00  0.00    +0.510 A 
BRANCH   5  15
ATOM     14  C   LIG    1       -6.566  11.286  -2.437  0.00  0.00    +0.040 C 
ATOM     15  C   LIG    1       -7.059   9.953  -1.872  0.00  0.00    +0.290 C 
ENDBRANCH   5  15
ENDBRANCH   1  13
BRANCH   3  16
ATOM     16  C   LIG    1       -2.401   8.186   0.066  0.00  0.00    +0.180 C 
BRANCH  16  17
ATOM     17  C   LIG    1       -1.201   7.274   0.050  0.00  0.00    +0.080 A 
ATOM     18  C   LIG    1        0.051   7.747   0.041  0.00  0.00    -0.050 A 
ATOM     19  S   LIG    1        1.157   6.375   0.031  0.00  0.00    +0.110 S 
ATOM     20  C   LIG    1       -0.217   5.273   0.031  0.00  0.00    +0.110 A 
ATOM     21  N   LIG    1       -1.319   5.968   0.045  0.00  0.00    -0.400 NA
BRANCH  20  22
ATOM     22  C   LIG    1       -0.134   3.797   0.023  0.00  0.00    +0.190 A 
ATOM     23  C   LIG    1        1.114   3.175   0.008  0.00  0.00    -0.010 A 
ATOM     24  C   LIG    1        1.176   1.792   0.001  0.00  0.00    +0.070 A 
ATOM     25  C   LIG    1       -0.013   1.076   0.008  0.00  0.00    -0.020 A 
ATOM     26  C   LIG    1       -1.216   1.757   0.017  0.00  0.00    +0.270 A 
ATOM     27  N   LIG    1       -1.248   3.074   0.030  0.00  0.00    -0.440 NA
ENDBRANCH  20  22
ENDBRANCH  16  17
ENDBRANCH   3  16
TORSDOF 5
