REMARK  Name = ZINCrH000004tcQj.1
REMARK                            x       y       z     vdW  Elec       q    Type
REMARK                         _______ _______ _______ _____ _____    ______ ____
ROOT
ATOM      1  C   LIG    1        3.542  -0.029   3.311  0.00  0.00    +0.150 A 
ATOM      2  C   LIG    1        3.549  -0.694   2.092  0.00  0.00    +0.030 A 
ATOM      3  C   LIG    1        2.841  -0.181   1.023  0.00  0.00    +0.040 A 
ATOM      4  C   LIG    1        2.125   0.993   1.166  0.00  0.00    -0.090 A 
ATOM      5  C   LIG    1        2.120   1.661   2.377  0.00  0.00    +0.070 A 
ATOM      6  C   LIG    1        2.822   1.150   3.451  0.00  0.00    +0.000 A 
ENDROOT
BRANCH   1   9
ATOM      7  C   LIG    1        5.543  -1.873   5.588  0.00  0.00    -0.010 A 
ATOM      8  N   LIG    1        5.021  -1.724   4.397  0.00  0.00    -0.230 NA
ATOM      9  N   LIG    1        4.261  -0.547   4.397  0.00  0.00    -0.300 N 
ATOM     10  C   LIG    1        4.338  -0.002   5.632  0.00  0.00    +0.250 A 
ATOM     11  C   LIG    1        5.125  -0.803   6.387  0.00  0.00    -0.050 A 
BRANCH   7  13
ATOM     12  F   LIG    1        5.651  -4.048   6.531  0.00  0.00    -0.170 F 
ATOM     13  C   LIG    1        6.435  -3.006   6.025  0.00  0.00    +0.560 C 
ATOM     14  F   LIG    1        7.309  -2.555   7.020  0.00  0.00    -0.160 F 
ATOM     15  F   LIG    1        7.174  -3.468   4.930  0.00  0.00    -0.170 F 
ENDBRANCH   7  13
ENDBRANCH   1   9
BRANCH   4  16
ATOM     16  C   LIG    1        1.353   1.550  -0.003  0.00  0.00    +0.240 C 
BRANCH  16  17
ATOM     17  N   LIG    1       -0.012   1.005   0.008  0.00  0.00    -0.670 NA
ATOM     18  H   LIG    1        0.002  -0.004   0.002  0.00  0.00    +0.350 HD
BRANCH  17  19
ATOM     19  C   LIG    1       -0.795   1.527  -1.120  0.00  0.00    +0.270 C 
BRANCH  19  20
ATOM     20  C   LIG    1       -2.186   0.947  -1.076  0.00  0.00    +0.080 A 
ATOM     21  C   LIG    1       -3.195   1.361  -0.289  0.00  0.00    -0.200 A 
ATOM     22  C   LIG    1       -3.200   2.494   0.708  0.00  0.00    +0.100 C 
ATOM     23  C   LIG    1       -4.658   2.846   1.029  0.00  0.00    +0.010 C 
ATOM     24  C   LIG    1       -5.428   1.574   1.392  0.00  0.00    +0.020 C 
ATOM     25  C   LIG    1       -5.646   0.724   0.134  0.00  0.00    +0.120 C 
ATOM     26  C   LIG    1       -4.316   0.558  -0.559  0.00  0.00    +0.080 A 
ATOM     27  N   LIG    1       -3.984  -0.310  -1.471  0.00  0.00    -0.280 NA
ATOM     28  N   LIG    1       -2.643  -0.088  -1.817  0.00  0.00    -0.480 N 
ATOM     29  H   LIG    1       -2.133  -0.589  -2.473  0.00  0.00    +0.440 HD
ENDBRANCH  19  20
ENDBRANCH  17  19
ENDBRANCH  16  17
ENDBRANCH   4  16
TORSDOF 6
