REMARK  Name = ZINCqH0000034prk.0
REMARK                            x       y       z     vdW  Elec       q    Type
REMARK                         _______ _______ _______ _____ _____    ______ ____
ROOT
ATOM      1  C   LIG    1       -1.226   1.752  -0.024  0.00  0.00    +0.250 A 
ATOM      2  C   LIG    1       -0.011   1.075  -0.079  0.00  0.00    -0.070 A 
ATOM      3  C   LIG    1        1.171   1.780  -0.073  0.00  0.00    +0.140 A 
ATOM      4  C   LIG    1        1.151   3.176  -0.006  0.00  0.00    -0.200 A 
ATOM      5  C   LIG    1       -0.071   3.852   0.054  0.00  0.00    +0.090 A 
ATOM      6  C   LIG    1       -1.250   3.142   0.048  0.00  0.00    -0.080 A 
ENDROOT
BRANCH   4   7
ATOM      7  C   LIG    1        2.416   3.934   0.001  0.00  0.00    +0.570 C 
ATOM      8  N   LIG    1        2.397   5.279  -0.094  0.00  0.00    -0.550 N 
ATOM      9  C   LIG    1        1.185   6.103  -0.096  0.00  0.00    +0.270 C 
ATOM     10  C   LIG    1        1.684   7.552  -0.218  0.00  0.00    +0.090 C 
ATOM     11  C   LIG    1        3.190   7.432  -0.287  0.00  0.00    -0.140 A 
ATOM     12  C   LIG    1        4.171   8.396  -0.407  0.00  0.00    +0.050 A 
ATOM     13  C   LIG    1        5.503   8.030  -0.450  0.00  0.00    -0.010 A 
ATOM     14  C   LIG    1        5.852   6.694  -0.374  0.00  0.00    +0.040 A 
ATOM     15  C   LIG    1        4.876   5.728  -0.255  0.00  0.00    +0.010 A 
ATOM     16  C   LIG    1        3.529   6.090  -0.210  0.00  0.00    +0.150 A 
ATOM     17  O   LIG    1        3.477   3.346   0.091  0.00  0.00    -0.520 OA
ENDBRANCH   4   7
BRANCH   1  18
ATOM     18  N   LIG    1       -2.419   1.038  -0.037  0.00  0.00    -0.730 N 
ATOM     19  H   LIG    1       -2.404   0.069  -0.084  0.00  0.00    +0.400 HD
BRANCH  18  20
ATOM     20  C   LIG    1       -3.699   1.748   0.021  0.00  0.00    +0.360 C 
BRANCH  20  25
ATOM     21  N   LIG    1       -5.382   0.205  -1.109  0.00  0.00    -0.360 N 
ATOM     22  N   LIG    1       -6.396  -0.668  -0.696  0.00  0.00    -0.280 NA
ATOM     23  C   LIG    1       -6.448  -0.646   0.611  0.00  0.00    +0.230 A 
ATOM     24  C   LIG    1       -5.466   0.237   1.072  0.00  0.00    -0.100 A 
ATOM     25  C   LIG    1       -4.829   0.751  -0.006  0.00  0.00    +0.060 A 
BRANCH  21  27
ATOM     26  C   LIG    1       -3.902  -0.508  -2.921  0.00  0.00    +0.040 C 
ATOM     27  C   LIG    1       -4.991   0.478  -2.495  0.00  0.00    +0.310 C 
ENDBRANCH  21  27
ENDBRANCH  20  25
ENDBRANCH  18  20
ENDBRANCH   1  18
TORSDOF 5
