REMARK  Name = ZINCvU0000000HgH.0
REMARK                            x       y       z     vdW  Elec       q    Type
REMARK                         _______ _______ _______ _____ _____    ______ ____
ROOT
ATOM      1  C   LIG    1       -9.752   3.996  -2.529  0.00  0.00    +0.420 A 
ATOM      2  N   LIG    1       -9.554   5.229  -2.113  0.00  0.00    -0.590 NA
ATOM      3  C   LIG    1      -10.526   6.147  -2.168  0.00  0.00    +0.550 A 
ATOM      4  C   LIG    1      -11.848   5.763  -2.707  0.00  0.00    -0.210 A 
ATOM      5  C   LIG    1      -12.011   4.460  -3.131  0.00  0.00    +0.060 A 
ATOM      6  S   LIG    1      -13.645   4.220  -3.730  0.00  0.00    +0.190 S 
ATOM      7  C   LIG    1      -14.085   5.885  -3.400  0.00  0.00    -0.040 A 
ATOM      8  C   LIG    1      -13.059   6.555  -2.876  0.00  0.00    +0.010 A 
ATOM      9  O   LIG    1      -10.324   7.286  -1.779  0.00  0.00    -0.470 OA
ATOM     10  N   LIG    1      -10.942   3.588  -3.037  0.00  0.00    -0.580 N 
ATOM     11  H   LIG    1      -11.045   2.671  -3.336  0.00  0.00    +0.430 HD
ENDROOT
BRANCH   8  12
ATOM     12  C   LIG    1      -13.144   7.985  -2.496  0.00  0.00    -0.040 A 
ATOM     13  C   LIG    1      -12.727   8.399  -1.232  0.00  0.00    +0.060 A 
ATOM     14  C   LIG    1      -12.803   9.733  -0.885  0.00  0.00    +0.000 A 
ATOM     15  C   LIG    1      -13.303  10.657  -1.786  0.00  0.00    +0.010 A 
ATOM     16  C   LIG    1      -13.723  10.251  -3.040  0.00  0.00    -0.010 A 
ATOM     17  C   LIG    1      -13.646   8.921  -3.399  0.00  0.00    +0.020 A 
ENDBRANCH   8  12
BRANCH   1  18
ATOM     18  S   LIG    1       -8.427   2.840  -2.428  0.00  0.00    +0.010 S 
BRANCH  18  19
ATOM     19  C   LIG    1       -7.143   3.895  -1.711  0.00  0.00    +0.120 C 
BRANCH  19  20
ATOM     20  C   LIG    1       -5.860   3.083  -1.525  0.00  0.00    +0.070 C 
BRANCH  20  21
ATOM     21  C   LIG    1       -4.774   3.975  -0.919  0.00  0.00    +0.070 C 
BRANCH  21  24
ATOM     22  N   LIG    1       -2.413   3.758  -0.215  0.00  0.00    -0.680 N 
ATOM     23  H   LIG    1       -2.456   4.672   0.107  0.00  0.00    +0.410 HD
ATOM     24  C   LIG    1       -3.510   3.175  -0.737  0.00  0.00    +0.520 C 
ATOM     25  O   LIG    1       -3.481   2.006  -1.060  0.00  0.00    -0.520 OA
BRANCH  22  33
ATOM     26  C   LIG    1       -1.163   2.964  -2.645  0.00  0.00    +0.090 C 
ATOM     27  C   LIG    1       -0.568   2.638  -1.299  0.00  0.00    -0.070 A 
ATOM     28  C   LIG    1        0.616   1.931  -1.219  0.00  0.00    +0.010 A 
ATOM     29  C   LIG    1        1.165   1.637   0.015  0.00  0.00    +0.020 A 
ATOM     30  C   LIG    1        0.529   2.044   1.173  0.00  0.00    +0.010 A 
ATOM     31  C   LIG    1       -0.657   2.747   1.101  0.00  0.00    -0.090 A 
ATOM     32  C   LIG    1       -1.350   3.192   2.363  0.00  0.00    +0.090 C 
ATOM     33  C   LIG    1       -1.212   3.045  -0.138  0.00  0.00    +0.130 A 
ENDBRANCH  22  33
ENDBRANCH  21  24
ENDBRANCH  20  21
ENDBRANCH  19  20
ENDBRANCH  18  19
ENDBRANCH   1  18
TORSDOF 7
