REMARK  Name = ZINCrg00000SjSFQ.0
REMARK                            x       y       z     vdW  Elec       q    Type
REMARK                         _______ _______ _______ _____ _____    ______ ____
ROOT
ATOM      1  C   LIG    1       -4.707   7.090  -1.743  0.00  0.00    +0.130 C 
ATOM      2  C   LIG    1       -3.226   6.724  -1.594  0.00  0.00    +0.280 C 
ATOM      3  N   LIG    1       -3.115   5.259  -1.513  0.00  0.00    -0.620 N 
ATOM      4  C   LIG    1       -3.791   4.457  -2.545  0.00  0.00    +0.250 C 
ATOM      5  C   LIG    1       -5.249   4.933  -2.645  0.00  0.00    +0.220 C 
ATOM      6  C   LIG    1       -2.412   4.670  -0.526  0.00  0.00    +0.530 C 
ATOM      7  O   LIG    1       -1.915   5.345   0.351  0.00  0.00    -0.530 OA
ATOM      8  O   LIG    1       -5.268   6.351  -2.830  0.00  0.00    -0.370 OA
ENDROOT
BRANCH   6   9
ATOM      9  C   LIG    1       -2.243   3.173  -0.511  0.00  0.00    -0.020 C 
ATOM     10  C   LIG    1       -1.387   2.744  -1.705  0.00  0.00    +0.030 C 
ATOM     11  C   LIG    1       -1.242   1.220  -1.710  0.00  0.00    +0.030 C 
ATOM     12  C   LIG    1       -0.538   0.774  -0.424  0.00  0.00    +0.260 C 
ATOM     13  N   LIG    1       -1.274   1.306   0.731  0.00  0.00    -0.610 N 
ATOM     14  C   LIG    1       -1.690   0.487   1.716  0.00  0.00    +0.520 C 
ATOM     15  O   LIG    1       -2.347   0.929   2.635  0.00  0.00    -0.530 OA
ATOM     16  C   LIG    1       -1.551   2.749   0.788  0.00  0.00    +0.310 C 
BRANCH  14  17
ATOM     17  C   LIG    1       -1.340  -0.978   1.677  0.00  0.00    -0.010 C 
ATOM     18  C   LIG    1       -2.088  -1.711   2.792  0.00  0.00    +0.050 C 
ATOM     19  C   LIG    1        0.167  -1.147   1.877  0.00  0.00    +0.040 C 
ENDBRANCH  14  17
ENDBRANCH   6   9
BRANCH   1  20
ATOM     20  C   LIG    1       -4.837   8.589  -2.022  0.00  0.00    +0.370 C 
BRANCH  20  24
ATOM     21  C   LIG    1       -9.409  10.083  -0.598  0.00  0.00    +0.190 C 
ATOM     22  C   LIG    1       -8.235   9.610  -1.415  0.00  0.00    +0.230 A 
ATOM     23  N   LIG    1       -7.032   9.382  -0.955  0.00  0.00    -0.320 NA
ATOM     24  N   LIG    1       -6.255   8.960  -2.046  0.00  0.00    -0.380 N 
ATOM     25  C   LIG    1       -7.067   8.969  -3.117  0.00  0.00    +0.300 A 
ATOM     26  C   LIG    1       -6.680   8.595  -4.524  0.00  0.00    +0.200 C 
ATOM     27  N   LIG    1       -8.253   9.356  -2.723  0.00  0.00    -0.550 NA
ENDBRANCH  20  24
ENDBRANCH   1  20
TORSDOF 4
