REMARK  Name = ZINCqH0000038XL5.0
REMARK                            x       y       z     vdW  Elec       q    Type
REMARK                         _______ _______ _______ _____ _____    ______ ____
ROOT
ATOM      1  C   LIG    1       -1.213   0.454  -0.610  0.00  0.00    +0.590 C 
ATOM      2  N   LIG    1        0.094   0.198  -0.406  0.00  0.00    -0.720 N 
ATOM      3  H   LIG    1        0.411  -0.719  -0.389  0.00  0.00    +0.400 HD
ATOM      4  O   LIG    1       -1.611   1.604  -0.631  0.00  0.00    -0.530 OA
ENDROOT
BRANCH   1   9
ATOM      5  C   LIG    1       -5.410  -2.153  -1.396  0.00  0.00    +0.370 C 
ATOM      6  N   LIG    1       -4.010  -1.797  -1.153  0.00  0.00    -0.360 N 
ATOM      7  N   LIG    1       -2.950  -2.699  -1.013  0.00  0.00    -0.270 NA
ATOM      8  C   LIG    1       -1.847  -2.034  -0.807  0.00  0.00    +0.290 A 
ATOM      9  C   LIG    1       -2.158  -0.655  -0.806  0.00  0.00    -0.290 A 
ATOM     10  C   LIG    1       -3.528  -0.546  -1.020  0.00  0.00    +0.370 A 
BRANCH  10  11
ATOM     11  N   LIG    1       -4.261   0.633  -1.088  0.00  0.00    -0.390 N 
ATOM     12  C   LIG    1       -4.154   1.689  -0.227  0.00  0.00    +0.230 A 
ATOM     13  C   LIG    1       -5.023   2.642  -0.619  0.00  0.00    -0.050 A 
ATOM     14  C   LIG    1       -5.698   2.157  -1.758  0.00  0.00    -0.030 A 
ATOM     15  C   LIG    1       -5.214   0.927  -2.024  0.00  0.00    +0.120 A 
ENDBRANCH  10  11
ENDBRANCH   1   9
BRANCH   2  16
ATOM     16  C   LIG    1        1.036   1.303  -0.216  0.00  0.00    +0.310 C 
BRANCH  16  17
ATOM     17  C   LIG    1        2.422   0.741   0.109  0.00  0.00    -0.060 C 
ATOM     18  C   LIG    1        3.560   1.758  -0.085  0.00  0.00    +0.050 C 
ATOM     19  C   LIG    1        3.643   1.268  -1.541  0.00  0.00    +0.010 C 
ATOM     20  C   LIG    1        3.048  -0.060  -1.045  0.00  0.00    +0.030 C 
BRANCH  17  21
ATOM     21  C   LIG    1        2.468   0.027   1.435  0.00  0.00    -0.060 A 
ATOM     22  C   LIG    1        2.688  -1.338   1.477  0.00  0.00    +0.020 A 
ATOM     23  C   LIG    1        2.736  -1.993   2.693  0.00  0.00    +0.020 A 
ATOM     24  C   LIG    1        2.553  -1.285   3.868  0.00  0.00    -0.040 A 
ATOM     25  C   LIG    1        2.328   0.080   3.824  0.00  0.00    +0.020 A 
ATOM     26 CL   LIG    1        2.607  -2.108   5.395  0.00  0.00    -0.070 Cl
ATOM     27  C   LIG    1        2.285   0.735   2.608  0.00  0.00    +0.030 A 
ENDBRANCH  17  21
ENDBRANCH  16  17
ENDBRANCH   2  16
TORSDOF 5
