REMARK  Name = ZINCvU0000000Hun.0
REMARK                            x       y       z     vdW  Elec       q    Type
REMARK                         _______ _______ _______ _____ _____    ______ ____
ROOT
ATOM      1  N   LIG    1        2.450   0.069  -0.779  0.00  0.00    -0.550 N 
ATOM      2  C   LIG    1        1.315  -0.644  -0.690  0.00  0.00    +0.570 C 
ATOM      3  C   LIG    1        0.041  -0.001  -0.345  0.00  0.00    -0.160 A 
ATOM      4  C   LIG    1       -1.141  -0.735  -0.249  0.00  0.00    +0.110 A 
ATOM      5  C   LIG    1       -2.318  -0.095   0.077  0.00  0.00    -0.010 A 
ATOM      6  C   LIG    1       -2.339   1.272   0.311  0.00  0.00    +0.060 A 
ATOM      7  C   LIG    1       -1.180   2.016   0.228  0.00  0.00    -0.010 A 
ATOM      8  C   LIG    1        0.015   1.389  -0.105  0.00  0.00    +0.040 A 
ATOM      9  C   LIG    1        1.283   2.140  -0.214  0.00  0.00    -0.300 C 
ATOM     10  C   LIG    1        1.325   3.499   0.008  0.00  0.00    +0.420 C 
ATOM     11  O   LIG    1        1.344  -1.842  -0.897  0.00  0.00    -0.500 OA
ATOM     12  C   LIG    1        2.498   1.394  -0.565  0.00  0.00    +0.580 C 
ATOM     13  O   LIG    1        3.559   1.982  -0.661  0.00  0.00    -0.530 OA
ENDROOT
BRANCH  10  14
ATOM     14  N   LIG    1        2.522   4.136   0.102  0.00  0.00    -0.610 N 
ATOM     15  H   LIG    1        3.346   3.624   0.092  0.00  0.00    +0.430 HD
BRANCH  14  16
ATOM     16  C   LIG    1        2.565   5.529   0.214  0.00  0.00    +0.170 A 
ATOM     17  C   LIG    1        3.788   6.181   0.311  0.00  0.00    +0.010 A 
ATOM     18  C   LIG    1        3.828   7.557   0.421  0.00  0.00    +0.090 A 
ATOM     19  C   LIG    1        2.653   8.287   0.435  0.00  0.00    -0.060 A 
ATOM     20  C   LIG    1        1.432   7.639   0.340  0.00  0.00    +0.010 A 
ATOM     21 CL   LIG    1       -0.041   8.558   0.358  0.00  0.00    -0.030 Cl
ATOM     22 CL   LIG    1        2.708  10.016   0.574  0.00  0.00    -0.040 Cl
ATOM     23  C   LIG    1        1.386   6.263   0.223  0.00  0.00    +0.000 A 
ENDBRANCH  14  16
ENDBRANCH  10  14
BRANCH   1  24
ATOM     24  C   LIG    1        3.690  -0.629  -1.127  0.00  0.00    +0.350 C 
BRANCH  24  28
ATOM     25  C   LIG    1        4.171  -0.646  -5.374  0.00  0.00    +0.140 A 
ATOM     26  C   LIG    1        4.695   0.394  -4.619  0.00  0.00    -0.030 A 
ATOM     27  C   LIG    1        4.538   0.397  -3.247  0.00  0.00    +0.090 A 
ATOM     28  C   LIG    1        3.860  -0.635  -2.625  0.00  0.00    -0.150 A 
ATOM     29  C   LIG    1        3.342  -1.676  -3.374  0.00  0.00    +0.080 A 
ATOM     30  C   LIG    1        3.491  -1.681  -4.747  0.00  0.00    -0.080 A 
BRANCH  25  32
ATOM     31  C   LIG    1        3.759  -1.754  -7.436  0.00  0.00    +0.250 C 
ATOM     32  O   LIG    1        4.324  -0.652  -6.724  0.00  0.00    -0.320 OA
ENDBRANCH  25  32
ENDBRANCH  24  28
ENDBRANCH   1  24
TORSDOF 5
