REMARK  Name = ZINCqH0000050Sa0.0
REMARK                            x       y       z     vdW  Elec       q    Type
REMARK                         _______ _______ _______ _____ _____    ______ ____
ROOT
ATOM      1  C   LIG    1       -3.049  -3.827   0.322  0.00  0.00    +0.570 C 
ATOM      2  N   LIG    1       -2.705  -2.623  -0.176  0.00  0.00    -0.720 N 
ATOM      3  H   LIG    1       -3.335  -2.125  -0.720  0.00  0.00    +0.400 HD
ATOM      4  O   LIG    1       -2.260  -4.451   1.004  0.00  0.00    -0.520 OA
ENDROOT
BRANCH   2   5
ATOM      5  C   LIG    1       -1.379  -2.066   0.104  0.00  0.00    +0.310 C 
ATOM      6  C   LIG    1       -1.435  -0.540  -0.000  0.00  0.00    +0.030 C 
ATOM      7  C   LIG    1        0.002  -0.004   0.002  0.00  0.00    +0.120 C 
ATOM      8  O   LIG    1        0.659  -0.470  -1.178  0.00  0.00    -0.300 OA
ATOM      9  C   LIG    1        0.572  -1.793  -1.472  0.00  0.00    +0.180 A 
ATOM     10  C   LIG    1        1.474  -2.330  -2.384  0.00  0.00    -0.040 A 
ATOM     11  C   LIG    1        1.412  -3.671  -2.715  0.00  0.00    +0.140 A 
ATOM     12  C   LIG    1        0.450  -4.482  -2.137  0.00  0.00    -0.050 A 
ATOM     13  C   LIG    1       -0.445  -3.950  -1.230  0.00  0.00    +0.100 A 
ATOM     14  F   LIG    1        2.290  -4.190  -3.601  0.00  0.00    -0.130 F 
ATOM     15  C   LIG    1        0.741  -0.516   1.240  0.00  0.00    +0.040 C 
ATOM     16  C   LIG    1       -0.019   1.526   0.010  0.00  0.00    +0.080 C 
ATOM     17  C   LIG    1       -0.387  -2.608  -0.894  0.00  0.00    -0.190 A 
ENDBRANCH   2   5
BRANCH   1  25
ATOM     18  C   LIG    1       -6.405  -8.497   1.372  0.00  0.00    +0.190 C 
ATOM     19  C   LIG    1       -6.818  -7.305   0.548  0.00  0.00    +0.070 A 
ATOM     20  N   LIG    1       -7.955  -7.116  -0.052  0.00  0.00    -0.310 NA
ATOM     21  O   LIG    1       -8.019  -6.065  -0.646  0.00  0.00    +0.090 OA
ATOM     22  C   LIG    1       -6.894  -5.335  -0.547  0.00  0.00    +0.240 A 
ATOM     23  N   LIG    1       -6.499  -4.160  -1.008  0.00  0.00    -0.460 NA
ATOM     24  C   LIG    1       -5.306  -3.676  -0.739  0.00  0.00    +0.380 A 
ATOM     25  C   LIG    1       -4.386  -4.388   0.040  0.00  0.00    -0.210 A 
ATOM     26  C   LIG    1       -4.755  -5.638   0.552  0.00  0.00    +0.230 A 
ATOM     27  C   LIG    1       -6.023  -6.109   0.251  0.00  0.00    -0.230 A 
ENDBRANCH   1  25
TORSDOF 2
