REMARK  Name = ZINCrH00000tj1nX.0
REMARK                            x       y       z     vdW  Elec       q    Type
REMARK                         _______ _______ _______ _____ _____    ______ ____
ROOT
ATOM      1  C   LIG    1        4.332   5.077  -1.898  0.00  0.00    +0.050 A 
ATOM      2  N   LIG    1        4.541   6.135  -1.153  0.00  0.00    -0.380 NA
ATOM      3  C   LIG    1        5.687   6.818  -1.270  0.00  0.00    +0.030 A 
ATOM      4  C   LIG    1        5.938   7.951  -0.479  0.00  0.00    +0.090 A 
ATOM      5  C   LIG    1        7.109   8.630  -0.622  0.00  0.00    +0.020 A 
ATOM      6  C   LIG    1        8.068   8.217  -1.545  0.00  0.00    +0.070 A 
ATOM      7  C   LIG    1        7.859   7.123  -2.329  0.00  0.00    +0.030 A 
ATOM      8  C   LIG    1        6.662   6.398  -2.208  0.00  0.00    +0.160 A 
ATOM      9  N   LIG    1        6.431   5.318  -2.966  0.00  0.00    -0.490 NA
ATOM     10  C   LIG    1        5.297   4.656  -2.831  0.00  0.00    +0.410 A 
ENDROOT
BRANCH  10  11
ATOM     11  N   LIG    1        5.056   3.538  -3.614  0.00  0.00    -0.700 N 
ATOM     12  H   LIG    1        4.223   3.049  -3.518  0.00  0.00    +0.410 HD
BRANCH  11  13
ATOM     13  C   LIG    1        6.057   3.095  -4.587  0.00  0.00    +0.240 C 
ATOM     14  C   LIG    1        5.876   3.869  -5.894  0.00  0.00    +0.030 C 
ATOM     15  C   LIG    1        5.884   1.598  -4.852  0.00  0.00    +0.040 C 
ENDBRANCH  11  13
ENDBRANCH  10  11
BRANCH   1  16
ATOM     16  C   LIG    1        3.043   4.308  -1.759  0.00  0.00    -0.240 C 
BRANCH  16  17
ATOM     17  S   LIG    1        2.670   4.067  -0.000  0.00  0.00    +2.520 S 
ATOM     18  O   LIG    1        3.609   3.180   0.592  0.00  0.00    -0.900 OA
ATOM     19  O   LIG    1        2.344   5.306   0.615  0.00  0.00    -0.890 OA
BRANCH  17  24
ATOM     20  C   LIG    1       -2.514   0.980   0.019  0.00  0.00    +0.090 C 
ATOM     21  C   LIG    1       -1.219   1.751   0.017  0.00  0.00    -0.020 A 
ATOM     22  C   LIG    1       -0.013   1.076   0.008  0.00  0.00    +0.000 A 
ATOM     23  C   LIG    1        1.175   1.783   0.000  0.00  0.00    +0.130 A 
ATOM     24  C   LIG    1        1.156   3.165   0.008  0.00  0.00    -0.680 A 
ATOM     25  C   LIG    1       -0.050   3.840   0.023  0.00  0.00    +0.130 A 
ATOM     26  C   LIG    1       -1.238   3.133   0.029  0.00  0.00    +0.000 A 
ENDBRANCH  17  24
ENDBRANCH  16  17
BRANCH  16  27
ATOM     27  C   LIG    1        1.951   5.063  -2.394  0.00  0.00    +0.210 C 
ATOM     28  N   LIG    1        1.107   5.646  -2.884  0.00  0.00    -0.350 NA
ENDBRANCH  16  27
ENDBRANCH   1  16
TORSDOF 6
