REMARK  Name = ZINCpk000000op61.0
REMARK                            x       y       z     vdW  Elec       q    Type
REMARK                         _______ _______ _______ _____ _____    ______ ____
ROOT
ATOM      1  C   LIG    1       -2.997   5.623   0.556  0.00  0.00    +0.510 C 
ATOM      2  N   LIG    1       -3.903   6.244  -0.225  0.00  0.00    -0.730 N 
ATOM      3  H   LIG    1       -4.419   6.986   0.127  0.00  0.00    +0.400 HD
ATOM      4  O   LIG    1       -2.352   4.695   0.116  0.00  0.00    -0.520 OA
ENDROOT
BRANCH   1   9
ATOM      5  N   LIG    1       -2.308   4.962   2.798  0.00  0.00    -0.990 NA
ATOM      6  C   LIG    1       -0.998   5.319   3.372  0.00  0.00    +0.270 C 
ATOM      7  C   LIG    1       -0.420   6.383   2.402  0.00  0.00    +0.040 C 
ATOM      8  C   LIG    1       -1.696   7.177   2.018  0.00  0.00    +0.060 C 
ATOM      9  C   LIG    1       -2.784   6.083   1.975  0.00  0.00    +0.230 C 
BRANCH   5  10
ATOM     10  S   LIG    1       -3.114   3.537   3.046  0.00  0.00    +2.620 S 
ATOM     11  O   LIG    1       -4.034   3.462   1.966  0.00  0.00    -0.940 OA
ATOM     12  O   LIG    1       -2.082   2.572   3.197  0.00  0.00    -0.940 OA
BRANCH  10  13
ATOM     13  C   LIG    1       -3.992   3.780   4.614  0.00  0.00    -0.370 C 
BRANCH  13  15
ATOM     14  C   LIG    1       -5.542   2.729   6.269  0.00  0.00    +0.030 C 
ATOM     15  C   LIG    1       -4.801   2.524   4.946  0.00  0.00    +0.040 C 
ENDBRANCH  13  15
ENDBRANCH  10  13
ENDBRANCH   5  10
ENDBRANCH   1   9
BRANCH   2  16
ATOM     16  C   LIG    1       -4.110   5.796  -1.605  0.00  0.00    +0.260 C 
BRANCH  16  17
ATOM     17  C   LIG    1       -5.185   6.662  -2.266  0.00  0.00    +0.080 C 
BRANCH  17  18
ATOM     18  C   LIG    1       -5.397   6.202  -3.685  0.00  0.00    -0.110 A 
ATOM     19  C   LIG    1       -6.338   5.228  -3.965  0.00  0.00    +0.050 A 
ATOM     20  C   LIG    1       -6.535   4.801  -5.262  0.00  0.00    -0.010 A 
ATOM     21  C   LIG    1       -5.786   5.347  -6.301  0.00  0.00    +0.110 A 
ATOM     22  O   LIG    1       -5.804   5.065  -7.633  0.00  0.00    -0.300 OA
ATOM     23  C   LIG    1       -5.203   6.153  -8.355  0.00  0.00    +0.240 C 
ATOM     24  C   LIG    1       -4.216   6.746  -7.322  0.00  0.00    +0.070 C 
ATOM     25  C   LIG    1       -4.849   6.330  -6.008  0.00  0.00    -0.170 A 
ATOM     26  C   LIG    1       -4.656   6.756  -4.713  0.00  0.00    +0.070 A 
ENDBRANCH  17  18
ENDBRANCH  16  17
ENDBRANCH   2  16
TORSDOF 7
