REMARK  Name = ZINCvU0000000EMX.0
REMARK                            x       y       z     vdW  Elec       q    Type
REMARK                         _______ _______ _______ _____ _____    ______ ____
ROOT
ATOM      1  C   LIG    1        0.121   7.805  -1.091  0.00  0.00    +0.480 C 
ATOM      2  N   LIG    1       -1.177   8.431  -0.852  0.00  0.00    -0.750 N 
ATOM      3  H   LIG    1       -1.247   9.398  -0.835  0.00  0.00    +0.410 HD
ATOM      4  C   LIG    1       -2.283   7.675  -0.654  0.00  0.00    +0.600 C 
ATOM      5  C   LIG    1       -2.057   6.274  -0.489  0.00  0.00    -0.310 A 
ATOM      6  C   LIG    1       -0.790   5.770  -0.315  0.00  0.00    +0.170 A 
ATOM      7  C   LIG    1       -0.762   4.325  -0.188  0.00  0.00    -0.120 A 
ATOM      8  C   LIG    1        0.359   3.463  -0.012  0.00  0.00    +0.070 A 
ATOM      9  C   LIG    1        0.135   2.096   0.092  0.00  0.00    -0.020 A 
ATOM     10  C   LIG    1       -1.160   1.615   0.022  0.00  0.00    +0.220 A 
ATOM     11  N   LIG    1       -2.179   2.426  -0.147  0.00  0.00    -0.460 NA
ATOM     12  C   LIG    1       -2.035   3.751  -0.250  0.00  0.00    +0.070 A 
ATOM     13  S   LIG    1       -3.252   5.001  -0.476  0.00  0.00    +0.270 S 
ATOM     14  O   LIG    1       -3.400   8.158  -0.620  0.00  0.00    -0.510 OA
ATOM     15  N   LIG    1        0.326   6.617  -0.259  0.00  0.00    -0.600 N 
ATOM     16  H   LIG    1        0.537   6.874   0.694  0.00  0.00    +0.370 HD
ENDROOT
BRANCH   1  20
ATOM     17  C   LIG    1        0.382   6.678  -5.208  0.00  0.00    -0.020 A 
ATOM     18  C   LIG    1       -0.514   7.672  -4.808  0.00  0.00    +0.060 A 
ATOM     19  C   LIG    1       -0.593   8.030  -3.478  0.00  0.00    +0.030 A 
ATOM     20  C   LIG    1        0.213   7.408  -2.542  0.00  0.00    -0.080 A 
ATOM     21  C   LIG    1        1.106   6.426  -2.932  0.00  0.00    +0.070 A 
ATOM     22  C   LIG    1        1.192   6.054  -4.258  0.00  0.00    +0.060 A 
BRANCH  17  24
ATOM     23  N   LIG    1        0.539   6.003  -7.681  0.00  0.00    -0.410 NA
ATOM     24  C   LIG    1        0.469   6.302  -6.587  0.00  0.00    +0.250 C 
ENDBRANCH  17  24
ENDBRANCH   1  20
BRANCH   8  25
ATOM     25  C   LIG    1        1.733   4.013   0.057  0.00  0.00    -0.050 A 
ATOM     26  C   LIG    1        2.712   3.564  -0.829  0.00  0.00    +0.020 A 
ATOM     27  C   LIG    1        3.989   4.083  -0.761  0.00  0.00    +0.000 A 
ATOM     28  C   LIG    1        4.301   5.040   0.188  0.00  0.00    +0.010 A 
ATOM     29  C   LIG    1        3.335   5.485   1.073  0.00  0.00    +0.000 A 
ATOM     30  C   LIG    1        2.054   4.977   1.013  0.00  0.00    +0.040 A 
ENDBRANCH   8  25
BRANCH  10  31
ATOM     31  C   LIG    1       -1.406   0.133   0.136  0.00  0.00    +0.010 C 
ATOM     32  C   LIG    1       -0.208  -0.799  -0.059  0.00  0.00    +0.040 C 
ATOM     33  C   LIG    1       -1.287  -0.703  -1.139  0.00  0.00    +0.050 C 
ENDBRANCH  10  31
TORSDOF 4
