REMARK  Name = ZINCkj000005llPY.0
REMARK                            x       y       z     vdW  Elec       q    Type
REMARK                         _______ _______ _______ _____ _____    ______ ____
ROOT
ATOM      1  N   LIG    1       -1.333   1.103   3.437  0.00  0.00    -0.750 N 
ATOM      2  H   LIG    1       -1.665   2.010   3.524  0.00  0.00    +0.390 HD
ATOM      3  C   LIG    1       -0.821   0.682   2.263  0.00  0.00    +0.700 C 
ATOM      4  N   LIG    1       -0.676   1.550   1.242  0.00  0.00    -0.620 N 
ATOM      5  C   LIG    1       -0.014   1.085   0.007  0.00  0.00    +0.280 C 
ATOM      6  C   LIG    1       -0.732   1.587  -1.258  0.00  0.00    +0.020 C 
ATOM      7  C   LIG    1       -2.227   1.510  -1.071  0.00  0.00    +0.030 C 
ATOM      8  C   LIG    1       -2.737   2.838  -0.521  0.00  0.00    -0.010 C 
ATOM      9  C   LIG    1       -2.651   2.961   0.942  0.00  0.00    -0.000 C 
ATOM     10  C   LIG    1       -1.174   2.897   1.402  0.00  0.00    +0.270 C 
ATOM     11  O   LIG    1       -0.490  -0.479   2.126  0.00  0.00    -0.580 OA
ENDROOT
BRANCH   1  15
ATOM     12  C   LIG    1       -2.941   1.079   6.238  0.00  0.00    -0.030 C 
ATOM     13  C   LIG    1       -3.465  -0.317   5.817  0.00  0.00    +0.010 C 
ATOM     14  C   LIG    1       -2.679  -0.644   4.531  0.00  0.00    +0.030 C 
ATOM     15  C   LIG    1       -1.387   0.190   4.582  0.00  0.00    +0.260 C 
ATOM     16  C   LIG    1       -1.433   0.995   5.897  0.00  0.00    +0.060 C 
BRANCH  12  17
ATOM     17  C   LIG    1       -3.146   1.305   7.738  0.00  0.00    +0.280 C 
BRANCH  17  18
ATOM     18  N   LIG    1       -4.584   1.375   8.030  0.00  0.00    -0.640 N 
ATOM     19  H   LIG    1       -4.995   2.139   7.515  0.00  0.00    +0.440 HD
ATOM     20  H   LIG    1       -4.720   1.524   9.019  0.00  0.00    +0.440 HD
ATOM     21  H   LIG    1       -5.026   0.509   7.757  0.00  0.00    +0.440 HD
ENDBRANCH  17  18
ENDBRANCH  12  17
ENDBRANCH   1  15
BRANCH   8  22
ATOM     22  C   LIG    1       -4.200   3.006  -0.935  0.00  0.00    +0.020 C 
BRANCH  22  23
ATOM     23  C   LIG    1       -4.697   4.387  -0.502  0.00  0.00    +0.160 C 
BRANCH  23  24
ATOM     24  O   LIG    1       -6.064   4.543  -0.888  0.00  0.00    -0.580 OA
ATOM     25  H   LIG    1       -6.446   5.398  -0.645  0.00  0.00    +0.380 HD
ENDBRANCH  23  24
ENDBRANCH  22  23
ENDBRANCH   8  22
TORSDOF 6
