REMARK  Name = ZINCrD000000AojV.0
REMARK                            x       y       z     vdW  Elec       q    Type
REMARK                         _______ _______ _______ _____ _____    ______ ____
ROOT
ATOM      1  N   LIG    1       -0.723   1.364   1.215  0.00  0.00    -0.720 N 
ATOM      2  H   LIG    1       -1.494   1.945   1.121  0.00  0.00    +0.410 HD
ATOM      3  C   LIG    1       -0.257   1.057   2.441  0.00  0.00    +0.570 C 
ATOM      4  O   LIG    1        0.709   0.329   2.559  0.00  0.00    -0.520 OA
ENDROOT
BRANCH   3   5
ATOM      5  C   LIG    1       -0.920   1.605   3.644  0.00  0.00    -0.120 A 
ATOM      6  C   LIG    1       -2.030   2.441   3.511  0.00  0.00    +0.060 A 
ATOM      7  C   LIG    1       -2.647   2.951   4.636  0.00  0.00    +0.030 A 
ATOM      8  C   LIG    1       -2.170   2.636   5.894  0.00  0.00    +0.050 A 
ATOM      9  C   LIG    1       -1.067   1.805   6.036  0.00  0.00    +0.070 A 
ATOM     10  C   LIG    1       -0.443   1.283   4.915  0.00  0.00    +0.070 A 
BRANCH   9  11
ATOM     11  O   LIG    1       -0.602   1.498   7.276  0.00  0.00    -0.250 OA
BRANCH  11  12
ATOM     12  C   LIG    1        0.614   1.981   7.638  0.00  0.00    +0.160 A 
ATOM     13  C   LIG    1        1.307   2.863   6.812  0.00  0.00    -0.110 A 
ATOM     14  C   LIG    1        2.538   3.335   7.218  0.00  0.00    +0.300 A 
ATOM     15  N   LIG    1        3.064   2.952   8.366  0.00  0.00    -0.500 NA
ATOM     16  C   LIG    1        2.441   2.114   9.173  0.00  0.00    +0.300 A 
ATOM     17  C   LIG    1        1.203   1.602   8.841  0.00  0.00    -0.050 A 
ENDBRANCH  11  12
ENDBRANCH   9  11
ENDBRANCH   3   5
BRANCH   1  18
ATOM     18  C   LIG    1       -0.066   0.821   0.024  0.00  0.00    +0.370 C 
BRANCH  18  20
ATOM     19  O   LIG    1       -1.734   2.043  -1.106  0.00  0.00    -0.500 OA
ATOM     20  C   LIG    1       -0.776   1.314  -1.211  0.00  0.00    +0.460 C 
BRANCH  20  21
ATOM     21  O   LIG    1       -0.346   0.942  -2.426  0.00  0.00    -0.340 OA
BRANCH  21  22
ATOM     22  C   LIG    1       -1.078   1.454  -3.571  0.00  0.00    +0.270 C 
BRANCH  22  23
ATOM     23  C   LIG    1       -0.455   0.934  -4.840  0.00  0.00    -0.100 A 
ATOM     24  C   LIG    1        0.550   1.652  -5.461  0.00  0.00    +0.040 A 
ATOM     25  C   LIG    1        1.126   1.172  -6.623  0.00  0.00    +0.010 A 
ATOM     26  C   LIG    1        0.689  -0.020  -7.170  0.00  0.00    +0.020 A 
ATOM     27  C   LIG    1       -0.320  -0.735  -6.551  0.00  0.00    +0.010 A 
ATOM     28  C   LIG    1       -0.891  -0.258  -5.387  0.00  0.00    +0.040 A 
ENDBRANCH  22  23
ENDBRANCH  21  22
ENDBRANCH  20  21
ENDBRANCH  18  20
ENDBRANCH   1  18
TORSDOF 8
