REMARK  Name = ZINCrD000000gTeb.0
REMARK                            x       y       z     vdW  Elec       q    Type
REMARK                         _______ _______ _______ _____ _____    ______ ____
ROOT
ATOM      1  N   LIG    1       -5.319   7.493   0.200  0.00  0.00    -0.720 N 
ATOM      2  H   LIG    1       -5.685   6.597   0.270  0.00  0.00    +0.400 HD
ATOM      3  C   LIG    1       -3.988   7.670   0.086  0.00  0.00    +0.570 C 
ATOM      4  O   LIG    1       -3.530   8.792  -0.002  0.00  0.00    -0.530 OA
ENDROOT
BRANCH   3   5
ATOM      5  C   LIG    1       -3.087   6.500   0.066  0.00  0.00    -0.200 A 
ATOM      6  C   LIG    1       -1.701   6.673  -0.053  0.00  0.00    +0.180 A 
ATOM      7  C   LIG    1       -0.899   5.548  -0.066  0.00  0.00    -0.040 A 
ATOM      8  C   LIG    1       -1.488   4.292   0.038  0.00  0.00    +0.370 A 
ATOM      9  N   LIG    1       -2.802   4.163   0.144  0.00  0.00    -0.500 NA
ATOM     10  C   LIG    1       -3.602   5.207   0.166  0.00  0.00    +0.340 A 
BRANCH   8  11
ATOM     11  N   LIG    1       -0.683   3.153   0.025  0.00  0.00    -0.420 N 
ATOM     12  C   LIG    1       -1.114   1.850   0.017  0.00  0.00    +0.150 A 
ATOM     13  C   LIG    1       -0.013   1.076   0.008  0.00  0.00    +0.160 A 
ATOM     14  N   LIG    1        1.064   1.877   0.002  0.00  0.00    -0.470 NA
ATOM     15  C   LIG    1        0.676   3.123   0.012  0.00  0.00    +0.410 A 
ENDBRANCH   8  11
ENDBRANCH   3   5
BRANCH   1  16
ATOM     16  C   LIG    1       -6.214   8.653   0.220  0.00  0.00    +0.310 C 
BRANCH  16  17
ATOM     17  C   LIG    1       -7.662   8.178   0.357  0.00  0.00    +0.190 C 
BRANCH  17  18
ATOM     18  O   LIG    1       -7.837   7.545   1.626  0.00  0.00    -0.310 OA
BRANCH  18  22
ATOM     19  C   LIG    1      -11.597   6.081   2.485  0.00  0.00    -0.100 A 
ATOM     20  C   LIG    1      -10.576   5.946   3.408  0.00  0.00    +0.050 A 
ATOM     21  C   LIG    1       -9.316   6.436   3.123  0.00  0.00    -0.020 A 
ATOM     22  C   LIG    1       -9.076   7.063   1.909  0.00  0.00    +0.120 A 
ATOM     23  C   LIG    1      -10.103   7.202   0.987  0.00  0.00    -0.080 A 
ATOM     24  C   LIG    1      -11.360   6.706   1.275  0.00  0.00    +0.050 A 
BRANCH  19  26
ATOM     25  C   LIG    1      -13.512   6.236   4.053  0.00  0.00    +0.040 C 
ATOM     26  C   LIG    1      -12.971   5.547   2.799  0.00  0.00    -0.030 C 
ATOM     27  C   LIG    1      -12.888   4.038   3.042  0.00  0.00    +0.040 C 
ATOM     28  C   LIG    1      -13.907   5.823   1.621  0.00  0.00    +0.030 C 
ENDBRANCH  19  26
ENDBRANCH  18  22
ENDBRANCH  17  18
ENDBRANCH  16  17
ENDBRANCH   1  16
TORSDOF 7
