REMARK  Name = ZINCrg000000trWe.1
REMARK                            x       y       z     vdW  Elec       q    Type
REMARK                         _______ _______ _______ _____ _____    ______ ____
ROOT
ATOM      1  O   LIG    1        0.848   0.888  -2.530  0.00  0.00    -0.540 OA
ATOM      2  C   LIG    1       -0.258   1.378  -2.398  0.00  0.00    +0.580 C 
ATOM      3  N   LIG    1       -0.771   1.559  -1.165  0.00  0.00    -0.720 N 
ATOM      4  H   LIG    1       -1.652   1.950  -1.059  0.00  0.00    +0.400 HD
ENDROOT
BRANCH   2   5
ATOM      5  C   LIG    1       -1.036   1.772  -3.584  0.00  0.00    -0.220 A 
ATOM      6  C   LIG    1       -0.524   1.593  -4.846  0.00  0.00    +0.380 A 
ATOM      7  N   LIG    1       -1.222   1.950  -5.956  0.00  0.00    -0.510 N 
ATOM      8  C   LIG    1       -0.525   1.761  -7.232  0.00  0.00    +0.340 C 
ATOM      9  C   LIG    1       -1.506   1.308  -8.317  0.00  0.00    -0.380 C 
ATOM     10  S   LIG    1       -2.802   2.581  -8.431  0.00  0.00    +2.550 S 
ATOM     11  N   LIG    1       -3.268   2.770  -6.856  0.00  0.00    -0.960 NA
ATOM     12  O   LIG    1       -2.245   3.838  -8.792  0.00  0.00    -0.960 OA
ATOM     13  O   LIG    1       -3.955   2.070  -9.086  0.00  0.00    -0.930 OA
ATOM     14  C   LIG    1       -2.487   2.460  -5.846  0.00  0.00    +0.520 A 
ATOM     15  C   LIG    1       -3.052   2.689  -4.555  0.00  0.00    +0.020 A 
ATOM     16  C   LIG    1       -2.370   2.357  -3.439  0.00  0.00    +0.140 A 
ENDBRANCH   2   5
BRANCH   3  17
ATOM     17  C   LIG    1        0.003   1.167   0.016  0.00  0.00    +0.310 C 
BRANCH  17  18
ATOM     18  C   LIG    1       -0.749   1.585   1.281  0.00  0.00    +0.230 C 
BRANCH  18  19
ATOM     19  N   LIG    1        0.083   1.308   2.459  0.00  0.00    -0.510 NA
ATOM     20  C   LIG    1        1.368   2.051   2.390  0.00  0.00    +0.170 C 
ATOM     21  C   LIG    1        1.843   2.075   3.864  0.00  0.00    +0.040 C 
ATOM     22  C   LIG    1        0.525   2.257   4.650  0.00  0.00    +0.020 C 
ATOM     23  C   LIG    1       -0.582   1.768   3.698  0.00  0.00    +0.170 C 
ENDBRANCH  18  19
BRANCH  18  24
ATOM     24  C   LIG    1       -2.035   0.806   1.381  0.00  0.00    -0.010 A 
ATOM     25  C   LIG    1       -3.256   1.256   1.039  0.00  0.00    -0.060 A 
ATOM     26  C   LIG    1       -4.167   0.205   1.294  0.00  0.00    -0.060 A 
ATOM     27  C   LIG    1       -3.448  -0.825   1.775  0.00  0.00    +0.160 A 
ATOM     28  O   LIG    1       -2.157  -0.457   1.820  0.00  0.00    -0.150 OA
ENDBRANCH  18  24
ENDBRANCH  17  18
ENDBRANCH   3  17
TORSDOF 5
