REMARK  Name = ZINCkj000005kB4J.1
REMARK                            x       y       z     vdW  Elec       q    Type
REMARK                         _______ _______ _______ _____ _____    ______ ____
ROOT
ATOM      1  C   LIG    1       -0.016   1.346   0.009  0.00  0.00    -0.370 A 
ATOM      2  C   LIG    1        0.002  -0.004   0.002  0.00  0.00    +0.440 A 
ATOM      3  N   LIG    1        1.200  -0.665  -0.013  0.00  0.00    -0.520 N 
ATOM      4  C   LIG    1        2.359   0.017  -0.020  0.00  0.00    +0.690 A 
ATOM      5  N   LIG    1        2.370   1.363  -0.013  0.00  0.00    -0.650 N 
ATOM      6  H   LIG    1        3.215   1.839  -0.019  0.00  0.00    +0.440 HD
ATOM      7  O   LIG    1        3.412  -0.591  -0.033  0.00  0.00    -0.500 OA
ATOM      8  C   LIG    1        1.211   2.052   0.002  0.00  0.00    +0.560 A 
ATOM      9  O   LIG    1        1.220   3.269   0.008  0.00  0.00    -0.510 OA
ENDROOT
BRANCH   3  10
ATOM     10  C   LIG    1        1.220  -2.130  -0.021  0.00  0.00    +0.240 C 
ATOM     11  C   LIG    1        1.960  -2.637   1.218  0.00  0.00    +0.060 C 
ATOM     12  C   LIG    1        1.936  -2.624  -1.280  0.00  0.00    +0.060 C 
ENDBRANCH   3  10
BRANCH   1  13
ATOM     13  C   LIG    1       -1.326   2.092   0.020  0.00  0.00    +0.380 C 
BRANCH  13  14
ATOM     14  N   LIG    1       -1.685   2.432   1.403  0.00  0.00    -0.510 N 
ATOM     15  H   LIG    1       -0.964   3.012   1.805  0.00  0.00    +0.430 HD
ATOM     16  H   LIG    1       -1.776   1.585   1.944  0.00  0.00    +0.430 HD
BRANCH  14  17
ATOM     17  C   LIG    1       -2.961   3.159   1.413  0.00  0.00    +0.410 C 
BRANCH  17  22
ATOM     18  C   LIG    1       -3.422   5.572   5.876  0.00  0.00    +0.120 C 
ATOM     19  C   LIG    1       -3.538   4.546   4.779  0.00  0.00    -0.180 A 
ATOM     20  C   LIG    1       -4.188   3.370   4.846  0.00  0.00    +0.230 A 
ATOM     21  O   LIG    1       -4.063   2.748   3.662  0.00  0.00    -0.170 OA
ATOM     22  C   LIG    1       -3.330   3.507   2.832  0.00  0.00    -0.120 A 
ATOM     23  C   LIG    1       -2.985   4.634   3.480  0.00  0.00    +0.030 A 
ENDBRANCH  17  22
ENDBRANCH  14  17
ENDBRANCH  13  14
ENDBRANCH   1  13
TORSDOF 5
