REMARK  Name = ZINCrH00000No50Y.0
REMARK                            x       y       z     vdW  Elec       q    Type
REMARK                         _______ _______ _______ _____ _____    ______ ____
ROOT
ATOM      1  C   LIG    1       -5.945   3.034  -2.836  0.00  0.00    +0.560 C 
ATOM      2  N   LIG    1       -5.814   3.122  -1.497  0.00  0.00    -0.600 N 
ATOM      3  C   LIG    1       -6.711   2.363  -0.622  0.00  0.00    +0.290 C 
ATOM      4  O   LIG    1       -5.199   3.664  -3.563  0.00  0.00    -0.540 OA
ENDROOT
BRANCH   1   6
ATOM      5  C   LIG    1       -7.114   2.094  -4.755  0.00  0.00    +0.150 C 
ATOM      6  C   LIG    1       -6.983   2.182  -3.414  0.00  0.00    -0.100 C 
BRANCH   5  13
ATOM      7  C   LIG    1       -8.300   1.147  -6.731  0.00  0.00    +0.150 A 
ATOM      8  C   LIG    1       -9.284   0.332  -7.268  0.00  0.00    -0.080 A 
ATOM      9  C   LIG    1      -10.126  -0.379  -6.434  0.00  0.00    +0.070 A 
ATOM     10  C   LIG    1       -9.991  -0.290  -5.058  0.00  0.00    -0.130 A 
ATOM     11  C   LIG    1       -9.016   0.511  -4.506  0.00  0.00    +0.070 A 
ATOM     12  C   LIG    1      -10.916  -1.072  -4.162  0.00  0.00    +0.100 C 
ATOM     13  C   LIG    1       -8.156   1.237  -5.337  0.00  0.00    -0.110 A 
BRANCH   7  15
ATOM     14  C   LIG    1       -7.683   1.708  -8.955  0.00  0.00    +0.250 C 
ATOM     15  O   LIG    1       -7.477   1.850  -7.548  0.00  0.00    -0.310 OA
ENDBRANCH   7  15
ENDBRANCH   5  13
ENDBRANCH   1   6
BRANCH   2  16
ATOM     16  C   LIG    1       -4.774   3.976  -0.917  0.00  0.00    +0.330 C 
BRANCH  16  17
ATOM     17  C   LIG    1       -3.510   3.175  -0.735  0.00  0.00    +0.500 C 
ATOM     18  N   LIG    1       -2.413   3.758  -0.214  0.00  0.00    -0.680 N 
ATOM     19  H   LIG    1       -2.456   4.671   0.111  0.00  0.00    +0.410 HD
ATOM     20  O   LIG    1       -3.481   2.007  -1.058  0.00  0.00    -0.510 OA
BRANCH  18  21
ATOM     21  C   LIG    1       -1.211   3.046  -0.140  0.00  0.00    +0.130 A 
ATOM     22  C   LIG    1       -0.565   2.649  -1.304  0.00  0.00    -0.070 A 
ATOM     23  C   LIG    1        0.620   1.942  -1.228  0.00  0.00    +0.010 A 
ATOM     24  C   LIG    1        1.167   1.639   0.005  0.00  0.00    +0.010 A 
ATOM     25  C   LIG    1        0.529   2.037   1.166  0.00  0.00    +0.010 A 
ATOM     26  C   LIG    1       -1.158   2.985  -2.648  0.00  0.00    +0.100 C 
ATOM     27  C   LIG    1       -0.658   2.740   1.096  0.00  0.00    -0.090 A 
ATOM     28  C   LIG    1       -1.353   3.174   2.361  0.00  0.00    +0.090 C 
ENDBRANCH  18  21
ENDBRANCH  16  17
ENDBRANCH   2  16
TORSDOF 6
