REMARK  Name = ZINCrg00000fSAtd.0
REMARK                            x       y       z     vdW  Elec       q    Type
REMARK                         _______ _______ _______ _____ _____    ______ ____
ROOT
ATOM      1  C   LIG    1       -0.654  -7.413  -0.123  0.00  0.00    +0.130 A 
ATOM      2  C   LIG    1       -1.971  -6.981  -0.208  0.00  0.00    +0.050 A 
ATOM      3  C   LIG    1       -2.994  -7.905  -0.295  0.00  0.00    +0.020 A 
ATOM      4  C   LIG    1       -2.708  -9.257  -0.297  0.00  0.00    +0.110 A 
ATOM      5  C   LIG    1       -1.398  -9.690  -0.212  0.00  0.00    -0.660 A 
ATOM      6  C   LIG    1       -0.370  -8.772  -0.131  0.00  0.00    +0.130 A 
ENDROOT
BRANCH   1   9
ATOM      7  O   LIG    1        1.548  -7.795   1.321  0.00  0.00    -0.480 OA
ATOM      8  C   LIG    1        1.492  -6.769   0.678  0.00  0.00    +0.510 C 
ATOM      9  N   LIG    1        0.386  -6.480  -0.035  0.00  0.00    -0.670 N 
ATOM     10  H   LIG    1        0.310  -5.625  -0.488  0.00  0.00    +0.420 HD
BRANCH   8  11
ATOM     11  C   LIG    1        2.660  -5.816   0.676  0.00  0.00    +0.270 C 
BRANCH  11  12
ATOM     12  O   LIG    1        3.720  -6.349   1.513  0.00  0.00    -0.320 OA
BRANCH  12  13
ATOM     13  C   LIG    1        4.845  -5.612   1.619  0.00  0.00    +0.560 C 
ATOM     14  O   LIG    1        4.936  -4.553   1.028  0.00  0.00    -0.480 OA
BRANCH  13  15
ATOM     15  C   LIG    1        5.957  -6.087   2.446  0.00  0.00    -0.070 A 
ATOM     16  C   LIG    1        7.146  -5.443   2.640  0.00  0.00    +0.070 A 
ATOM     17  C   LIG    1        7.908  -6.252   3.497  0.00  0.00    -0.070 A 
ATOM     18  C   LIG    1        7.160  -7.341   3.785  0.00  0.00    +0.240 A 
ATOM     19  O   LIG    1        5.986  -7.238   3.151  0.00  0.00    -0.150 OA
ENDBRANCH  13  15
ENDBRANCH  12  13
ENDBRANCH  11  12
ENDBRANCH   8  11
ENDBRANCH   1   9
BRANCH   5  20
ATOM     20  S   LIG    1       -1.039 -11.415  -0.215  0.00  0.00    +2.690 S 
ATOM     21  O   LIG    1       -2.216 -12.071   0.237  0.00  0.00    -0.950 OA
ATOM     22  O   LIG    1        0.225 -11.564   0.418  0.00  0.00    -0.940 OA
BRANCH  20  23
ATOM     23  N   LIG    1       -0.828 -11.869  -1.793  0.00  0.00    -1.000 NA
ATOM     24  C   LIG    1       -1.962 -12.339  -2.605  0.00  0.00    +0.280 C 
ATOM     25  C   LIG    1       -1.966 -11.551  -3.925  0.00  0.00    +0.220 C 
ATOM     26  O   LIG    1       -0.673 -11.643  -4.529  0.00  0.00    -0.370 OA
ATOM     27  C   LIG    1        0.378 -11.064  -3.752  0.00  0.00    +0.220 C 
ATOM     28  C   LIG    1        0.501 -11.821  -2.424  0.00  0.00    +0.270 C 
ENDBRANCH  20  23
ENDBRANCH   5  20
TORSDOF 7
