REMARK  Name = ZINCkj000005hxpM.0
REMARK                            x       y       z     vdW  Elec       q    Type
REMARK                         _______ _______ _______ _____ _____    ______ ____
ROOT
ATOM      1  S   LIG    1        2.777   4.752  -0.376  0.00  0.00    +2.710 S 
ATOM      2  O   LIG    1        3.961   3.968  -0.315  0.00  0.00    -0.960 OA
ATOM      3  O   LIG    1        2.560   5.896   0.437  0.00  0.00    -0.930 OA
ENDROOT
BRANCH   1   4
ATOM      4  C   LIG    1        1.436   3.654  -0.059  0.00  0.00    -0.730 A 
ATOM      5  C   LIG    1        1.684   2.319   0.203  0.00  0.00    +0.170 A 
ATOM      6  C   LIG    1        0.634   1.456   0.453  0.00  0.00    -0.100 A 
ATOM      7  C   LIG    1       -0.670   1.929   0.435  0.00  0.00    +0.200 A 
ATOM      8  C   LIG    1       -0.916   3.270   0.177  0.00  0.00    -0.020 A 
ATOM      9  C   LIG    1        0.137   4.128  -0.072  0.00  0.00    +0.060 A 
ATOM     10  C   LIG    1       -0.129   5.584  -0.358  0.00  0.00    +0.120 C 
BRANCH   7  11
ATOM     11  O   LIG    1       -1.704   1.081   0.675  0.00  0.00    -0.310 OA
ATOM     12  C   LIG    1       -1.377  -0.284   0.939  0.00  0.00    +0.250 C 
ENDBRANCH   7  11
ENDBRANCH   1   4
BRANCH   1  17
ATOM     13  C   LIG    1        3.102   4.525  -3.130  0.00  0.00    +0.230 C 
ATOM     14  C   LIG    1        2.729   5.367  -4.369  0.00  0.00    +0.040 C 
ATOM     15  C   LIG    1        1.576   6.264  -3.847  0.00  0.00    +0.060 C 
ATOM     16  C   LIG    1        2.022   6.526  -2.387  0.00  0.00    +0.280 C 
ATOM     17  N   LIG    1        2.634   5.260  -1.946  0.00  0.00    -1.000 NA
BRANCH  13  18
ATOM     18  C   LIG    1        4.619   4.339  -3.062  0.00  0.00    +0.250 C 
BRANCH  18  20
ATOM     19  C   LIG    1        6.504   3.266  -4.086  0.00  0.00    +0.330 C 
ATOM     20  N   LIG    1        5.068   3.546  -4.214  0.00  0.00    -0.500 N 
ATOM     21  H   LIG    1        4.901   4.063  -5.064  0.00  0.00    +0.430 HD
ATOM     22  H   LIG    1        4.557   2.677  -4.243  0.00  0.00    +0.430 HD
ENDBRANCH  18  20
ENDBRANCH  13  18
ENDBRANCH   1  17
TORSDOF 5
