REMARK  Name = ZINCvU00000007gQ.0
REMARK                            x       y       z     vdW  Elec       q    Type
REMARK                         _______ _______ _______ _____ _____    ______ ____
ROOT
ATOM      1  N   LIG    1       -4.557   0.195   0.700  0.00  0.00    -0.500 N 
ATOM      2  C   LIG    1       -3.624  -0.761   0.516  0.00  0.00    +0.570 C 
ATOM      3  C   LIG    1       -2.315  -0.146   0.240  0.00  0.00    +0.090 A 
ATOM      4  C   LIG    1       -2.466   1.212   0.264  0.00  0.00    -0.230 A 
ATOM      5  C   LIG    1       -1.325   2.103   0.033  0.00  0.00    +0.460 A 
ATOM      6  C   LIG    1       -0.017   1.400   0.010  0.00  0.00    -0.210 A 
ATOM      7  C   LIG    1        1.174   2.126   0.002  0.00  0.00    +0.120 A 
ATOM      8  C   LIG    1        2.378   1.457  -0.005  0.00  0.00    +0.000 A 
ATOM      9  C   LIG    1        2.403   0.070  -0.007  0.00  0.00    +0.100 A 
ATOM     10  C   LIG    1        1.234  -0.657  -0.004  0.00  0.00    +0.020 A 
ATOM     11  C   LIG    1        0.002  -0.004   0.002  0.00  0.00    +0.140 A 
ATOM     12  O   LIG    1       -1.439   3.306  -0.126  0.00  0.00    -0.420 OA
ATOM     13  O   LIG    1       -1.132  -0.742  -0.005  0.00  0.00    -0.180 OA
ATOM     14  O   LIG    1       -3.834  -1.957   0.570  0.00  0.00    -0.450 OA
ATOM     15  C   LIG    1       -3.901   1.505   0.555  0.00  0.00    +0.380 C 
ENDROOT
BRANCH   1  20
ATOM     16  C   LIG    1       -9.544  -1.394   1.741  0.00  0.00    +0.220 C 
ATOM     17  C   LIG    1       -8.213  -0.746   1.461  0.00  0.00    +0.010 A 
ATOM     18  N   LIG    1       -7.982   0.527   1.402  0.00  0.00    -0.240 NA
ATOM     19  N   LIG    1       -6.804   0.903   1.157  0.00  0.00    -0.270 NA
ATOM     20  C   LIG    1       -5.901  -0.018   0.979  0.00  0.00    +0.260 A 
ATOM     21  S   LIG    1       -6.693  -1.586   1.148  0.00  0.00    +0.140 S 
ENDBRANCH   1  20
BRANCH  15  22
ATOM     22  C   LIG    1       -4.022   2.292   1.834  0.00  0.00    -0.100 A 
ATOM     23  C   LIG    1       -3.913   1.650   3.054  0.00  0.00    +0.010 A 
ATOM     24  C   LIG    1       -4.020   2.372   4.227  0.00  0.00    +0.010 A 
ATOM     25  C   LIG    1       -4.244   3.736   4.182  0.00  0.00    -0.050 A 
ATOM     26  C   LIG    1       -4.357   4.377   2.962  0.00  0.00    +0.020 A 
ATOM     27  C   LIG    1       -4.247   3.655   1.789  0.00  0.00    +0.060 A 
BRANCH  25  28
ATOM     28  C   LIG    1       -4.364   4.523   5.461  0.00  0.00    -0.030 C 
ATOM     29  C   LIG    1       -3.273   5.595   5.504  0.00  0.00    +0.040 C 
ATOM     30  C   LIG    1       -4.201   3.581   6.656  0.00  0.00    +0.030 C 
ATOM     31  C   LIG    1       -5.738   5.191   5.522  0.00  0.00    +0.040 C 
ENDBRANCH  25  28
ENDBRANCH  15  22
TORSDOF 3
