REMARK  Name = ZINCpk00000KfLTb.0
REMARK                            x       y       z     vdW  Elec       q    Type
REMARK                         _______ _______ _______ _____ _____    ______ ____
ROOT
ATOM      1  C   LIG    1       -0.614  -0.494   1.293  0.00  0.00    +0.500 C 
ATOM      2  N   LIG    1       -0.367  -1.748   1.722  0.00  0.00    -0.720 N 
ATOM      3  H   LIG    1        0.200  -2.337   1.199  0.00  0.00    +0.400 HD
ATOM      4  O   LIG    1       -1.323   0.242   1.946  0.00  0.00    -0.510 OA
ENDROOT
BRANCH   1   5
ATOM      5  C   LIG    1       -0.008  -0.007   0.002  0.00  0.00    +0.270 C 
BRANCH   5   6
ATOM      6  N   LIG    1       -0.008   1.458  -0.015  0.00  0.00    -0.730 N 
ATOM      7  H   LIG    1        0.831   1.944  -0.002  0.00  0.00    +0.400 HD
ATOM      8  C   LIG    1       -1.175   2.132  -0.054  0.00  0.00    +0.710 C 
ATOM      9  O   LIG    1       -2.228   1.528   0.015  0.00  0.00    -0.570 OA
ATOM     10  N   LIG    1       -1.175   3.474  -0.170  0.00  0.00    -0.870 N 
ATOM     11  H   LIG    1       -2.015   3.959  -0.198  0.00  0.00    +0.410 HD
ATOM     12  H   LIG    1       -0.335   3.956  -0.225  0.00  0.00    +0.390 HD
ENDBRANCH   5   6
BRANCH   5  13
ATOM     13  C   LIG    1       -0.831  -0.530  -1.177  0.00  0.00    +0.000 C 
ATOM     14  C   LIG    1       -0.163  -0.116  -2.489  0.00  0.00    +0.020 C 
BRANCH  13  16
ATOM     15  C   LIG    1       -1.835  -2.571  -2.210  0.00  0.00    +0.020 C 
ATOM     16  C   LIG    1       -0.911  -2.057  -1.105  0.00  0.00    +0.000 C 
ENDBRANCH  13  16
ENDBRANCH   5  13
ENDBRANCH   1   5
BRANCH   2  17
ATOM     17  C   LIG    1       -0.956  -2.222   2.977  0.00  0.00    +0.330 C 
BRANCH  17  18
ATOM     18  C   LIG    1       -0.528  -3.645   3.226  0.00  0.00    -0.140 A 
ATOM     19  C   LIG    1       -1.390  -4.686   2.933  0.00  0.00    +0.040 A 
ATOM     20  C   LIG    1       -0.997  -5.996   3.157  0.00  0.00    +0.060 A 
ATOM     21  C   LIG    1        0.261  -6.263   3.687  0.00  0.00    +0.150 A 
ATOM     22  C   LIG    1        1.121  -5.218   3.985  0.00  0.00    -0.120 A 
ATOM     23  C   LIG    1        0.726  -3.909   3.755  0.00  0.00    +0.150 A 
BRANCH  21  24
ATOM     24  O   LIG    1        0.647  -7.547   3.912  0.00  0.00    -0.300 OA
ATOM     25  C   LIG    1        1.952  -7.747   4.457  0.00  0.00    +0.240 C 
ENDBRANCH  21  24
BRANCH  20  26
ATOM     26  O   LIG    1       -1.843  -7.020   2.862  0.00  0.00    -0.310 OA
ATOM     27  C   LIG    1       -3.119  -6.672   2.321  0.00  0.00    +0.240 C 
ENDBRANCH  20  26
BRANCH  23  28
ATOM     28  O   LIG    1        1.570  -2.883   4.047  0.00  0.00    -0.310 OA
ATOM     29  C   LIG    1        2.847  -3.228   4.589  0.00  0.00    +0.250 C 
ENDBRANCH  23  28
ENDBRANCH  17  18
ENDBRANCH   2  17
TORSDOF 9
