REMARK  Name = ZINCqH00000037wB.0
REMARK                            x       y       z     vdW  Elec       q    Type
REMARK                         _______ _______ _______ _____ _____    ______ ____
ROOT
ATOM      1  N   LIG    1        4.090   2.435  -1.406  0.00  0.00    -0.610 N 
ATOM      2  C   LIG    1        3.686   3.558  -2.031  0.00  0.00    +0.520 C 
ATOM      3  O   LIG    1        2.984   4.358  -1.448  0.00  0.00    -0.530 OA
ENDROOT
BRANCH   1   5
ATOM      4  C   LIG    1        4.055   0.446  -2.828  0.00  0.00    +0.020 C 
ATOM      5  C   LIG    1        4.937   1.469  -2.110  0.00  0.00    +0.260 C 
ENDBRANCH   1   5
BRANCH   2   6
ATOM      6  C   LIG    1        4.105   3.821  -3.455  0.00  0.00    +0.060 C 
BRANCH   6   7
ATOM      7  C   LIG    1        3.515   5.153  -3.923  0.00  0.00    +0.040 C 
BRANCH   7   8
ATOM      8  C   LIG    1        3.941   5.419  -5.368  0.00  0.00    +0.280 C 
BRANCH   8   9
ATOM      9  N   LIG    1        3.377   6.695  -5.816  0.00  0.00    -0.460 N 
ATOM     10  C   LIG    1        3.963   7.927  -5.703  0.00  0.00    +0.110 A 
ATOM     11  C   LIG    1        3.106   8.816  -6.239  0.00  0.00    +0.140 A 
ATOM     12  N   LIG    1        2.026   8.146  -6.668  0.00  0.00    -0.500 NA
ATOM     13  C   LIG    1        2.184   6.874  -6.423  0.00  0.00    +0.380 A 
ENDBRANCH   8   9
ENDBRANCH   7   8
ENDBRANCH   6   7
ENDBRANCH   2   6
BRANCH   1  14
ATOM     14  C   LIG    1        3.682   2.180  -0.022  0.00  0.00    +0.330 C 
BRANCH  14  15
ATOM     15  C   LIG    1        2.384   1.416  -0.014  0.00  0.00    -0.110 A 
ATOM     16  C   LIG    1        2.396   0.033  -0.021  0.00  0.00    +0.020 A 
ATOM     17  C   LIG    1        1.208  -0.675  -0.013  0.00  0.00    +0.010 A 
ATOM     18  C   LIG    1        0.002  -0.004   0.002  0.00  0.00    +0.030 A 
ATOM     19  C   LIG    1       -0.017   1.389   0.010  0.00  0.00    -0.060 A 
ATOM     20  C   LIG    1        1.183   2.097   0.002  0.00  0.00    +0.050 A 
BRANCH  19  21
ATOM     21  C   LIG    1       -1.310   2.116   0.020  0.00  0.00    +0.000 A 
ATOM     22  C   LIG    1       -1.348   3.514   0.033  0.00  0.00    -0.020 A 
ATOM     23  C   LIG    1       -2.572   4.150   0.037  0.00  0.00    +0.260 A 
ATOM     24  N   LIG    1       -3.695   3.458   0.039  0.00  0.00    -0.490 NA
ATOM     25  C   LIG    1       -3.703   2.138   0.031  0.00  0.00    +0.260 A 
ATOM     26  C   LIG    1       -2.523   1.423   0.022  0.00  0.00    -0.030 A 
ENDBRANCH  19  21
ENDBRANCH  14  15
ENDBRANCH   1  14
TORSDOF 8
