REMARK  Name = ZINCrH00000No4Ig.0
REMARK                            x       y       z     vdW  Elec       q    Type
REMARK                         _______ _______ _______ _____ _____    ______ ____
ROOT
ATOM      1  C   LIG    1       -1.244   2.114   0.019  0.00  0.00    +0.440 C 
ATOM      2  O   LIG    1       -1.260   3.329   0.026  0.00  0.00    -0.500 OA
ENDROOT
BRANCH   1   3
ATOM      3  C   LIG    1       -0.017   1.428   0.010  0.00  0.00    -0.350 C 
ATOM      4  C   LIG    1        1.191   2.147   0.002  0.00  0.00    +0.540 A 
ATOM      5  N   LIG    1        1.300   3.501   0.003  0.00  0.00    -0.570 N 
ATOM      6  H   LIG    1        0.562   4.131   0.009  0.00  0.00    +0.460 HD
ATOM      7  C   LIG    1        2.651   3.830  -0.004  0.00  0.00    +0.080 A 
ATOM      8  C   LIG    1        3.332   5.039  -0.005  0.00  0.00    +0.050 A 
ATOM      9  C   LIG    1        4.712   5.051  -0.018  0.00  0.00    +0.040 A 
ATOM     10  C   LIG    1        5.421   3.861  -0.031  0.00  0.00    +0.040 A 
ATOM     11  C   LIG    1        4.753   2.653  -0.030  0.00  0.00    +0.040 A 
ATOM     12  C   LIG    1        3.365   2.630  -0.017  0.00  0.00    +0.080 A 
ATOM     13  N   LIG    1        2.433   1.599  -0.013  0.00  0.00    -0.600 N 
ATOM     14  H   LIG    1        2.635   0.650  -0.020  0.00  0.00    +0.450 HD
BRANCH   3  16
ATOM     15  N   LIG    1        0.018  -1.140  -0.004  0.00  0.00    -0.440 NA
ATOM     16  C   LIG    1        0.002  -0.004   0.002  0.00  0.00    +0.270 C 
ENDBRANCH   3  16
ENDBRANCH   1   3
BRANCH   1  17
ATOM     17  C   LIG    1       -2.538   1.343   0.021  0.00  0.00    +0.230 C 
BRANCH  17  18
ATOM     18  O   LIG    1       -3.637   2.256   0.032  0.00  0.00    -0.330 OA
BRANCH  18  19
ATOM     19  C   LIG    1       -4.877   1.724   0.035  0.00  0.00    +0.500 C 
ATOM     20  O   LIG    1       -5.019   0.516   0.029  0.00  0.00    -0.510 OA
BRANCH  19  21
ATOM     21  C   LIG    1       -6.048   2.598   0.045  0.00  0.00    -0.040 C 
ATOM     22  C   LIG    1       -7.288   2.066   0.048  0.00  0.00    +0.130 C 
BRANCH  22  23
ATOM     23  C   LIG    1       -8.467   2.946   0.058  0.00  0.00    -0.080 A 
ATOM     24  C   LIG    1       -8.306   4.335   0.071  0.00  0.00    +0.060 A 
ATOM     25  C   LIG    1       -9.415   5.154   0.075  0.00  0.00    +0.030 A 
ATOM     26  C   LIG    1      -10.686   4.604   0.078  0.00  0.00    -0.020 A 
ATOM     27  C   LIG    1      -10.853   3.228   0.071  0.00  0.00    +0.030 A 
ATOM     28 CL   LIG    1      -12.077   5.642   0.091  0.00  0.00    -0.060 Cl
ATOM     29  C   LIG    1       -9.753   2.397   0.061  0.00  0.00    +0.060 A 
ENDBRANCH  22  23
ENDBRANCH  19  21
ENDBRANCH  18  19
ENDBRANCH  17  18
ENDBRANCH   1  17
TORSDOF 7
