REMARK  Name = ZINCrD00000hQ5ii.0
REMARK                            x       y       z     vdW  Elec       q    Type
REMARK                         _______ _______ _______ _____ _____    ______ ____
ROOT
ATOM      1  C   LIG    1        3.286   1.814  -1.091  0.00  0.00    +0.100 C 
ATOM      2  C   LIG    1        3.317   3.345  -1.099  0.00  0.00    +0.030 C 
ATOM      3  C   LIG    1        1.897   3.885  -1.283  0.00  0.00    +0.020 C 
ATOM      4  C   LIG    1        1.025   3.426  -0.110  0.00  0.00    +0.280 C 
ATOM      5  N   LIG    1        1.105   1.962  -0.005  0.00  0.00    -0.600 N 
ATOM      6  C   LIG    1       -0.014   1.212   0.009  0.00  0.00    +0.550 C 
ATOM      7  O   LIG    1       -1.106   1.749   0.028  0.00  0.00    -0.530 OA
ATOM      8  C   LIG    1        2.429   1.333   0.090  0.00  0.00    +0.280 C 
ENDROOT
BRANCH   1  14
ATOM      9  C   LIG    1        7.819  -0.002  -2.214  0.00  0.00    +0.140 C 
ATOM     10  C   LIG    1        6.643   0.501  -1.418  0.00  0.00    +0.000 A 
ATOM     11  C   LIG    1        6.582   0.608  -0.077  0.00  0.00    -0.020 A 
ATOM     12  N   LIG    1        5.345   1.109   0.225  0.00  0.00    -0.560 N 
ATOM     13  H   LIG    1        5.002   1.301   1.112  0.00  0.00    +0.420 HD
ATOM     14  C   LIG    1        4.688   1.283  -0.942  0.00  0.00    +0.220 A 
ATOM     15  C   LIG    1        7.670   0.250   0.903  0.00  0.00    +0.130 C 
ATOM     16  N   LIG    1        5.472   0.921  -1.921  0.00  0.00    -0.480 NA
ENDBRANCH   1  14
BRANCH   6  17
ATOM     17  C   LIG    1        0.083  -0.252   0.007  0.00  0.00    -0.020 C 
ATOM     18  C   LIG    1       -1.033  -1.001  -0.079  0.00  0.00    +0.120 C 
BRANCH  18  19
ATOM     19  C   LIG    1       -0.935  -2.471  -0.081  0.00  0.00    +0.120 A 
ATOM     20  N   LIG    1        0.253  -3.051   0.002  0.00  0.00    -0.420 NA
ATOM     21  C   LIG    1        0.338  -4.383  -0.000  0.00  0.00    +0.090 A 
ATOM     22  C   LIG    1        1.586  -5.029   0.087  0.00  0.00    +0.060 A 
ATOM     23  C   LIG    1        1.643  -6.388   0.083  0.00  0.00    +0.040 A 
ATOM     24  C   LIG    1        0.482  -7.155  -0.005  0.00  0.00    +0.050 A 
ATOM     25  C   LIG    1       -0.743  -6.565  -0.091  0.00  0.00    +0.060 A 
ATOM     26  C   LIG    1       -0.844  -5.165  -0.090  0.00  0.00    +0.080 A 
ATOM     27  N   LIG    1       -2.036  -4.560  -0.173  0.00  0.00    -0.420 NA
ATOM     28  C   LIG    1       -2.106  -3.251  -0.165  0.00  0.00    +0.280 A 
ENDBRANCH  18  19
ENDBRANCH   6  17
TORSDOF 3
