REMARK  Name = ZINCtV000002Mn86.0
REMARK                            x       y       z     vdW  Elec       q    Type
REMARK                         _______ _______ _______ _____ _____    ______ ____
ROOT
ATOM      1  C   LIG    1       -4.016   6.326   1.156  0.00  0.00    +0.150 A 
ATOM      2  N   LIG    1       -5.087   5.632   0.842  0.00  0.00    -0.280 NA
ATOM      3  N   LIG    1       -6.141   6.351   0.991  0.00  0.00    -0.260 NA
ATOM      4  C   LIG    1       -5.811   7.555   1.403  0.00  0.00    +0.270 A 
ATOM      5  N   LIG    1       -4.437   7.577   1.522  0.00  0.00    -0.420 N 
ENDROOT
BRANCH   5   6
ATOM      6  C   LIG    1       -3.639   8.654   1.931  0.00  0.00    +0.100 A 
ATOM      7  C   LIG    1       -3.746   9.147   3.225  0.00  0.00    +0.030 A 
ATOM      8  C   LIG    1       -2.955  10.206   3.627  0.00  0.00    +0.040 A 
ATOM      9  C   LIG    1       -2.064  10.781   2.739  0.00  0.00    +0.040 A 
ATOM     10  C   LIG    1       -1.959  10.295   1.449  0.00  0.00    +0.040 A 
ATOM     11  C   LIG    1       -2.744   9.234   1.043  0.00  0.00    +0.040 A 
ENDBRANCH   5   6
BRANCH   4  12
ATOM     12  C   LIG    1       -6.732   8.667   1.685  0.00  0.00    -0.140 A 
ATOM     13  C   LIG    1       -8.024   8.729   1.293  0.00  0.00    +0.080 A 
ATOM     14  C   LIG    1       -8.688   9.873   1.680  0.00  0.00    +0.010 A 
ATOM     15  C   LIG    1       -7.953  10.749   2.373  0.00  0.00    -0.040 A 
ATOM     16  S   LIG    1       -6.321  10.127   2.576  0.00  0.00    +0.150 S 
ENDBRANCH   4  12
BRANCH   1  17
ATOM     17  S   LIG    1       -2.350   5.757   1.108  0.00  0.00    +0.100 S 
BRANCH  17  18
ATOM     18  C   LIG    1       -2.615   4.057   0.543  0.00  0.00    +0.110 C 
BRANCH  18  20
ATOM     19  O   LIG    1       -0.262   3.944   0.697  0.00  0.00    -0.500 OA
ATOM     20  C   LIG    1       -1.287   3.354   0.426  0.00  0.00    +0.550 C 
ATOM     21  N   LIG    1       -1.238   2.070   0.019  0.00  0.00    -0.680 N 
ATOM     22  H   LIG    1       -2.049   1.621  -0.267  0.00  0.00    +0.420 HD
BRANCH  21  23
ATOM     23  C   LIG    1       -0.017   1.385   0.010  0.00  0.00    +0.150 A 
ATOM     24  C   LIG    1        0.775   1.389  -1.131  0.00  0.00    -0.020 A 
ATOM     25  C   LIG    1        1.978   0.707  -1.139  0.00  0.00    +0.050 A 
ATOM     26  C   LIG    1        2.392   0.021  -0.012  0.00  0.00    +0.070 A 
ATOM     27  C   LIG    1        1.606   0.015   1.126  0.00  0.00    +0.050 A 
ATOM     28 CL   LIG    1        0.256   2.250  -2.547  0.00  0.00    -0.040 Cl
ATOM     29  C   LIG    1        0.403   0.695   1.141  0.00  0.00    -0.020 A 
ATOM     30 CL   LIG    1       -0.583   0.686   2.569  0.00  0.00    -0.040 Cl
ENDBRANCH  21  23
ENDBRANCH  18  20
ENDBRANCH  17  18
ENDBRANCH   1  17
TORSDOF 6
