REMARK  Name = ZINCrH000004tPrR.0
REMARK                            x       y       z     vdW  Elec       q    Type
REMARK                         _______ _______ _______ _____ _____    ______ ____
ROOT
ATOM      1  O   LIG    1        2.437   4.203   0.750  0.00  0.00    -0.280 OA
ENDROOT
BRANCH   1   2
ATOM      2  C   LIG    1        2.602   5.538   0.575  0.00  0.00    +0.160 A 
ATOM      3  C   LIG    1        1.503   6.387   0.637  0.00  0.00    -0.080 A 
ATOM      4  C   LIG    1        1.667   7.742   0.464  0.00  0.00    +0.100 A 
ATOM      5  C   LIG    1        2.940   8.265   0.214  0.00  0.00    -0.200 A 
ATOM      6  C   LIG    1        4.042   7.407   0.147  0.00  0.00    +0.120 A 
ATOM      7  C   LIG    1        3.870   6.053   0.327  0.00  0.00    -0.020 A 
BRANCH   5   8
ATOM      8  C   LIG    1        3.119   9.716   0.022  0.00  0.00    +0.440 C 
ATOM      9  O   LIG    1        4.238  10.185  -0.058  0.00  0.00    -0.450 OA
BRANCH   8  10
ATOM     10  C   LIG    1        1.939  10.600  -0.074  0.00  0.00    -0.160 A 
ATOM     11  C   LIG    1        0.766  10.142  -0.679  0.00  0.00    +0.040 A 
ATOM     12  C   LIG    1       -0.333  10.970  -0.761  0.00  0.00    +0.000 A 
ATOM     13  C   LIG    1       -0.273  12.257  -0.255  0.00  0.00    +0.040 A 
ATOM     14  C   LIG    1        0.887  12.719   0.341  0.00  0.00    +0.000 A 
ATOM     15  C   LIG    1        1.992  11.899   0.434  0.00  0.00    +0.060 A 
ENDBRANCH   8  10
ENDBRANCH   5   8
ENDBRANCH   1   2
BRANCH   1  16
ATOM     16  C   LIG    1        1.108   3.741   1.001  0.00  0.00    +0.240 C 
BRANCH  16  18
ATOM     17  O   LIG    1        2.164   1.632   1.082  0.00  0.00    -0.510 OA
ATOM     18  C   LIG    1        1.120   2.243   1.169  0.00  0.00    +0.520 C 
ATOM     19  N   LIG    1       -0.029   1.584   1.416  0.00  0.00    -0.720 N 
ATOM     20  H   LIG    1       -0.864   2.072   1.481  0.00  0.00    +0.400 HD
BRANCH  19  21
ATOM     21  C   LIG    1       -0.017   0.128   1.579  0.00  0.00    +0.340 C 
BRANCH  21  22
ATOM     22  C   LIG    1       -1.419  -0.359   1.843  0.00  0.00    -0.150 A 
ATOM     23  C   LIG    1       -2.127  -1.002   0.846  0.00  0.00    +0.070 A 
ATOM     24  C   LIG    1       -3.412  -1.450   1.089  0.00  0.00    +0.000 A 
ATOM     25  C   LIG    1       -3.991  -1.253   2.329  0.00  0.00    +0.060 A 
ATOM     26  C   LIG    1       -3.285  -0.610   3.328  0.00  0.00    -0.020 A 
ATOM     27  C   LIG    1       -1.995  -0.168   3.088  0.00  0.00    +0.110 A 
ATOM     28  F   LIG    1       -1.302   0.456   4.065  0.00  0.00    -0.130 F 
ENDBRANCH  21  22
ENDBRANCH  19  21
ENDBRANCH  16  18
ENDBRANCH   1  16
TORSDOF 7
