REMARK  Name = ZINCqH00000n58bf.0
REMARK                            x       y       z     vdW  Elec       q    Type
REMARK                         _______ _______ _______ _____ _____    ______ ____
ROOT
ATOM      1  C   LIG    1       -0.123   1.640  -2.411  0.00  0.00    +0.490 C 
ATOM      2  N   LIG    1       -0.718   1.930  -3.585  0.00  0.00    -0.730 N 
ATOM      3  H   LIG    1       -1.586   2.362  -3.595  0.00  0.00    +0.400 HD
ATOM      4  O   LIG    1        0.963   1.099  -2.398  0.00  0.00    -0.530 OA
ENDROOT
BRANCH   1  11
ATOM      5  C   LIG    1        0.191   0.123   0.067  0.00  0.00    +0.190 C 
ATOM      6  N   LIG    1        0.046   1.584   0.012  0.00  0.00    -0.510 NA
ATOM      7  C   LIG    1        1.359   2.240  -0.055  0.00  0.00    +0.190 C 
ATOM      8  C   LIG    1        1.177   3.757   0.036  0.00  0.00    +0.030 C 
ATOM      9  C   LIG    1        0.290   4.230  -1.119  0.00  0.00    +0.020 C 
ATOM     10  C   LIG    1       -1.052   3.496  -1.054  0.00  0.00    +0.060 C 
ATOM     11  C   LIG    1       -0.806   1.987  -1.113  0.00  0.00    +0.180 C 
BRANCH   9  12
ATOM     12  C   LIG    1        0.060   5.715  -1.002  0.00  0.00    -0.080 A 
ATOM     13  C   LIG    1       -0.559   6.232   0.121  0.00  0.00    +0.010 A 
ATOM     14  C   LIG    1       -0.766   7.594   0.230  0.00  0.00    +0.000 A 
ATOM     15  C   LIG    1       -0.363   8.438  -0.787  0.00  0.00    +0.000 A 
ATOM     16  C   LIG    1        0.251   7.921  -1.912  0.00  0.00    +0.000 A 
ATOM     17  C   LIG    1        0.462   6.559  -2.020  0.00  0.00    +0.000 A 
ENDBRANCH   9  12
ENDBRANCH   1  11
BRANCH   2  18
ATOM     18  C   LIG    1       -0.053   1.593  -4.846  0.00  0.00    +0.390 C 
BRANCH  18  19
ATOM     19  C   LIG    1       -0.922   2.019  -6.001  0.00  0.00    -0.030 A 
ATOM     20  C   LIG    1       -0.889   3.219  -6.609  0.00  0.00    +0.020 A 
ATOM     21  C   LIG    1       -1.864   3.186  -7.632  0.00  0.00    -0.280 A 
ATOM     22  C   LIG    1       -2.435   1.969  -7.588  0.00  0.00    +0.280 A 
ATOM     23  O   LIG    1       -1.856   1.264  -6.602  0.00  0.00    -0.150 OA
BRANCH  21  24
ATOM     24  C   LIG    1       -2.200   4.302  -8.588  0.00  0.00    +0.540 C 
ATOM     25  F   LIG    1       -1.964   5.534  -7.969  0.00  0.00    -0.170 F 
ATOM     26  F   LIG    1       -3.548   4.214  -8.952  0.00  0.00    -0.180 F 
ATOM     27  F   LIG    1       -1.401   4.193  -9.731  0.00  0.00    -0.170 F 
ENDBRANCH  21  24
ENDBRANCH  18  19
ENDBRANCH   2  18
TORSDOF 5
