REMARK  Name = ZINCqH0000007Kzf.0
REMARK                            x       y       z     vdW  Elec       q    Type
REMARK                         _______ _______ _______ _____ _____    ______ ____
ROOT
ATOM      1  C   LIG    1        4.728   0.929  -0.038  0.00  0.00    +0.200 C 
ATOM      2  C   LIG    1        5.884   1.533   0.781  0.00  0.00    +0.040 C 
ATOM      3  C   LIG    1        5.355   2.896   1.282  0.00  0.00    +0.000 C 
ATOM      4  C   LIG    1        3.818   2.718   1.212  0.00  0.00    +0.220 C 
ATOM      5  C   LIG    1        5.805   3.156   2.722  0.00  0.00    +0.040 C 
ATOM      6  N   LIG    1        3.625   1.914  -0.022  0.00  0.00    -0.440 N 
ENDROOT
BRANCH   6   7
ATOM      7  C   LIG    1        2.395   1.280  -0.013  0.00  0.00    +0.420 A 
ATOM      8  C   LIG    1        1.203   2.024   0.001  0.00  0.00    -0.060 A 
ATOM      9  N   LIG    1        0.905   3.346   0.011  0.00  0.00    -0.450 NA
ATOM     10  C   LIG    1       -0.388   3.498   0.024  0.00  0.00    +0.480 A 
ATOM     11  N   LIG    1       -1.000   2.280   0.018  0.00  0.00    -0.450 N 
ATOM     12  C   LIG    1       -0.016   1.325   0.009  0.00  0.00    +0.290 A 
ATOM     13  N   LIG    1        0.002  -0.004   0.002  0.00  0.00    -0.530 NA
ATOM     14  C   LIG    1        1.144  -0.659  -0.012  0.00  0.00    +0.550 A 
ATOM     15  N   LIG    1        2.313  -0.046  -0.020  0.00  0.00    -0.560 NA
BRANCH  11  16
ATOM     16  C   LIG    1       -2.445   2.037   0.023  0.00  0.00    +0.210 C 
ATOM     17  C   LIG    1       -3.366   3.243  -0.170  0.00  0.00    +0.060 C 
ATOM     18  C   LIG    1       -3.250   2.582   1.204  0.00  0.00    +0.030 C 
ENDBRANCH  11  16
ENDBRANCH   6   7
BRANCH   1  23
ATOM     19  C   LIG    1        5.943  -0.816  -3.162  0.00  0.00    +0.120 A 
ATOM     20  C   LIG    1        6.001   0.239  -4.061  0.00  0.00    -0.090 A 
ATOM     21  C   LIG    1        5.647   1.512  -3.654  0.00  0.00    +0.030 A 
ATOM     22  C   LIG    1        5.236   1.734  -2.353  0.00  0.00    +0.000 A 
ATOM     23  C   LIG    1        5.177   0.684  -1.455  0.00  0.00    -0.030 A 
ATOM     24  C   LIG    1        5.534  -0.589  -1.855  0.00  0.00    -0.010 A 
BRANCH  19  26
ATOM     25  C   LIG    1        6.707  -2.226  -4.917  0.00  0.00    +0.230 C 
ATOM     26  O   LIG    1        6.291  -2.068  -3.559  0.00  0.00    -0.320 OA
ENDBRANCH  19  26
ENDBRANCH   1  23
TORSDOF 4
