REMARK  Name = ZINCrD00000F5Lzf.0
REMARK                            x       y       z     vdW  Elec       q    Type
REMARK                         _______ _______ _______ _____ _____    ______ ____
ROOT
ATOM      1  C   LIG    1        4.965  -1.113  -2.408  0.00  0.00    +0.000 C 
ATOM      2  C   LIG    1        4.356   0.302  -2.392  0.00  0.00    +0.300 C 
ATOM      3  N   LIG    1        3.360   0.272  -1.296  0.00  0.00    -0.620 N 
ATOM      4  C   LIG    1        4.009  -0.528  -0.232  0.00  0.00    +0.300 C 
ATOM      5  C   LIG    1        2.138   0.840  -1.275  0.00  0.00    +0.580 C 
ATOM      6  O   LIG    1        1.706   1.388  -2.267  0.00  0.00    -0.520 OA
ATOM      7  C   LIG    1        4.735  -1.663  -0.985  0.00  0.00    -0.020 C 
ENDROOT
BRANCH   7   8
ATOM      8  C   LIG    1        6.072  -1.979  -0.312  0.00  0.00    +0.460 C 
ATOM      9  F   LIG    1        6.866  -0.828  -0.290  0.00  0.00    -0.180 F 
ATOM     10  F   LIG    1        6.728  -2.986  -1.028  0.00  0.00    -0.180 F 
ATOM     11  F   LIG    1        5.842  -2.412   0.999  0.00  0.00    -0.180 F 
ENDBRANCH   7   8
BRANCH   5  12
ATOM     12  C   LIG    1        1.307   0.794  -0.018  0.00  0.00    -0.120 C 
ATOM     13  C   LIG    1        1.933   1.349   1.263  0.00  0.00    +0.060 C 
ATOM     14  C   LIG    1        0.821   2.126   0.557  0.00  0.00    +0.090 C 
BRANCH  12  15
ATOM     15  C   LIG    1        0.392  -0.396   0.114  0.00  0.00    -0.030 A 
ATOM     16  C   LIG    1       -0.121  -1.001  -1.018  0.00  0.00    +0.030 A 
ATOM     17  C   LIG    1       -0.961  -2.093  -0.898  0.00  0.00    +0.040 A 
ATOM     18  C   LIG    1       -1.287  -2.580   0.353  0.00  0.00    +0.030 A 
ATOM     19  C   LIG    1       -0.773  -1.975   1.486  0.00  0.00    -0.030 A 
ATOM     20 CL   LIG    1       -1.182  -2.587   3.059  0.00  0.00    -0.060 Cl
ATOM     21  C   LIG    1        0.071  -0.886   1.366  0.00  0.00    +0.030 A 
ENDBRANCH  12  15
ENDBRANCH   5  12
BRANCH   1  22
ATOM     22  C   LIG    1        4.246  -1.985  -3.439  0.00  0.00    +0.290 C 
BRANCH  22  25
ATOM     23  O   LIG    1        3.308  -3.087  -5.713  0.00  0.00    -0.510 OA
ATOM     24  C   LIG    1        4.051  -2.140  -5.863  0.00  0.00    +0.510 C 
ATOM     25  N   LIG    1        4.574  -1.517  -4.788  0.00  0.00    -0.730 N 
ATOM     26  H   LIG    1        5.168  -0.760  -4.908  0.00  0.00    +0.400 HD
BRANCH  24  27
ATOM     27  C   LIG    1        4.388  -1.659  -7.251  0.00  0.00    +0.170 C 
ATOM     28 CL   LIG    1        3.541  -2.687  -8.466  0.00  0.00    -0.130 Cl
ENDBRANCH  24  27
ENDBRANCH  22  25
ENDBRANCH   1  22
TORSDOF 6
