REMARK  Name = ZINCrH00000mpYcl.0
REMARK                            x       y       z     vdW  Elec       q    Type
REMARK                         _______ _______ _______ _____ _____    ______ ____
ROOT
ATOM      1  N   LIG    1       -1.115   2.572   0.079  0.00  0.00    -0.620 N 
ATOM      2  H   LIG    1       -1.979   2.131   0.083  0.00  0.00    +0.430 HD
ATOM      3  C   LIG    1       -1.045   3.918   0.065  0.00  0.00    +0.550 C 
ATOM      4  O   LIG    1        0.037   4.471   0.060  0.00  0.00    -0.410 OA
ENDROOT
BRANCH   1  10
ATOM      5  C   LIG    1        4.157  -0.625   0.095  0.00  0.00    +0.150 A 
ATOM      6  C   LIG    1        4.574   0.702   0.079  0.00  0.00    -0.040 A 
ATOM      7  C   LIG    1        3.657   1.722   0.072  0.00  0.00    +0.120 A 
ATOM      8  C   LIG    1        2.275   1.442   0.081  0.00  0.00    +0.070 A 
ATOM      9  N   LIG    1        1.239   2.306   0.076  0.00  0.00    -0.450 NA
ATOM     10  C   LIG    1        0.047   1.819   0.086  0.00  0.00    +0.320 A 
ATOM     11  S   LIG    1        0.104   0.062   0.104  0.00  0.00    +0.080 S 
ATOM     12  C   LIG    1        1.866   0.104   0.096  0.00  0.00    -0.130 A 
ATOM     13  C   LIG    1        2.807  -0.921   0.102  0.00  0.00    +0.030 A 
BRANCH   5  14
ATOM     14  O   LIG    1        5.074  -1.628   0.102  0.00  0.00    -0.310 OA
BRANCH  14  16
ATOM     15  C   LIG    1        7.328  -2.502   0.103  0.00  0.00    +0.070 C 
ATOM     16  C   LIG    1        6.452  -1.247   0.093  0.00  0.00    +0.190 C 
ENDBRANCH  14  16
ENDBRANCH   5  14
ENDBRANCH   1  10
BRANCH   3  17
ATOM     17  C   LIG    1       -2.285   4.722   0.057  0.00  0.00    -0.020 A 
ATOM     18  C   LIG    1       -3.249   4.535   1.049  0.00  0.00    +0.100 A 
ATOM     19  C   LIG    1       -4.402   5.292   1.038  0.00  0.00    +0.170 A 
ATOM     20  C   LIG    1       -4.609   6.228   0.041  0.00  0.00    -0.030 A 
ATOM     21  C   LIG    1       -3.660   6.415  -0.949  0.00  0.00    +0.200 A 
ATOM     22  C   LIG    1       -2.501   5.668  -0.947  0.00  0.00    -0.000 A 
BRANCH  20  23
ATOM     23  N   LIG    1       -5.851   7.033   0.033  0.00  0.00    +0.020 N 
ATOM     24  O   LIG    1       -6.688   6.871   0.903  0.00  0.00    -0.130 OA
ATOM     25  O   LIG    1       -6.036   7.858  -0.845  0.00  0.00    -0.130 OA
ENDBRANCH  20  23
BRANCH  22  26
ATOM     26  N   LIG    1       -1.488   5.868  -2.007  0.00  0.00    +0.020 N 
ATOM     27  O   LIG    1       -0.522   5.129  -2.074  0.00  0.00    -0.100 OA
ATOM     28  O   LIG    1       -1.620   6.772  -2.813  0.00  0.00    -0.130 OA
ENDBRANCH  22  26
ENDBRANCH   3  17
TORSDOF 6
