REMARK  Name = ZINCAx00000008IV.0
REMARK                            x       y       z     vdW  Elec       q    Type
REMARK                         _______ _______ _______ _____ _____    ______ ____
ROOT
ATOM      1  N   LIG    1       -2.763   4.686  -0.145  0.00  0.00    -0.510 N 
ATOM      2  C   LIG    1       -1.472   4.679  -0.537  0.00  0.00    +0.520 C 
ATOM      3  O   LIG    1       -1.093   5.452  -1.392  0.00  0.00    -0.520 OA
ENDROOT
BRANCH   1   9
ATOM      4  N   LIG    1       -4.488   7.710  -1.318  0.00  0.00    -0.540 N 
ATOM      5  C   LIG    1       -5.494   7.166  -2.027  0.00  0.00    +0.710 A 
ATOM      6  N   LIG    1       -5.627   5.832  -2.135  0.00  0.00    -0.660 N 
ATOM      7  H   LIG    1       -6.361   5.464  -2.652  0.00  0.00    +0.430 HD
ATOM      8  C   LIG    1       -4.750   5.001  -1.538  0.00  0.00    +0.570 A 
ATOM      9  C   LIG    1       -3.690   5.536  -0.784  0.00  0.00    -0.160 A 
ATOM     10  O   LIG    1       -4.878   3.793  -1.647  0.00  0.00    -0.520 OA
ATOM     11  O   LIG    1       -6.296   7.893  -2.580  0.00  0.00    -0.530 OA
ATOM     12  C   LIG    1       -3.569   6.907  -0.684  0.00  0.00    +0.500 A 
BRANCH  12  13
ATOM     13  N   LIG    1       -2.542   7.464   0.041  0.00  0.00    -0.820 N 
ATOM     14  H   LIG    1       -2.489   8.427   0.146  0.00  0.00    +0.410 HD
ATOM     15  H   LIG    1       -1.870   6.894   0.446  0.00  0.00    +0.420 HD
ENDBRANCH  12  13
BRANCH   4  16
ATOM     16  C   LIG    1       -4.372   9.168  -1.221  0.00  0.00    +0.300 C 
BRANCH  16  17
ATOM     17  C   LIG    1       -3.505   9.688  -2.369  0.00  0.00    +0.010 C 
BRANCH  17  19
ATOM     18  C   LIG    1       -2.516  11.730  -3.415  0.00  0.00    +0.020 C 
ATOM     19  C   LIG    1       -3.383  11.210  -2.267  0.00  0.00    +0.010 C 
ENDBRANCH  17  19
ENDBRANCH  16  17
ENDBRANCH   4  16
ENDBRANCH   1   9
BRANCH   2  20
ATOM     20  C   LIG    1       -0.500   3.711   0.087  0.00  0.00    +0.000 C 
ATOM     21  C   LIG    1       -0.658   2.298  -0.527  0.00  0.00    +0.080 C 
ATOM     22  C   LIG    1        0.756   1.764  -0.592  0.00  0.00    +0.530 C 
ATOM     23  N   LIG    1        1.637   2.770  -0.461  0.00  0.00    -0.570 N 
ATOM     24  O   LIG    1        1.051   0.597  -0.745  0.00  0.00    -0.510 OA
ATOM     25  C   LIG    1        0.954   4.059  -0.301  0.00  0.00    +0.300 C 
BRANCH  23  26
ATOM     26  C   LIG    1        3.029   2.609  -0.475  0.00  0.00    +0.110 A 
ATOM     27  C   LIG    1        3.724   2.673  -1.673  0.00  0.00    +0.060 A 
ATOM     28  C   LIG    1        5.098   2.519  -1.684  0.00  0.00    -0.020 A 
ATOM     29  C   LIG    1        5.780   2.290  -0.503  0.00  0.00    +0.060 A 
ATOM     30  C   LIG    1        5.093   2.219   0.695  0.00  0.00    -0.080 A 
ATOM     31  C   LIG    1        3.717   2.378   0.714  0.00  0.00    +0.140 A 
BRANCH  31  32
ATOM     32  O   LIG    1        3.040   2.309   1.892  0.00  0.00    -0.310 OA
BRANCH  32  33
ATOM     33  C   LIG    1        3.812   2.070   3.071  0.00  0.00    +0.170 C 
ATOM     34  C   LIG    1        2.884   2.026   4.287  0.00  0.00    +0.070 C 
ENDBRANCH  32  33
ENDBRANCH  31  32
ENDBRANCH  23  26
ENDBRANCH   2  20
BRANCH   1  35
ATOM     35  C   LIG    1       -3.202   3.811   0.945  0.00  0.00    +0.280 C 
BRANCH  35  36
ATOM     36  C   LIG    1       -3.118   4.567   2.272  0.00  0.00    +0.000 C 
BRANCH  36  37
ATOM     37  C   LIG    1       -3.577   3.653   3.410  0.00  0.00    -0.020 C 
ATOM     38  C   LIG    1       -3.612   4.446   4.718  0.00  0.00    +0.010 C 
ATOM     39  C   LIG    1       -2.601   2.483   3.549  0.00  0.00    +0.030 C 
ENDBRANCH  36  37
ENDBRANCH  35  36
ENDBRANCH   1  35
TORSDOF 12
