REMARK  Name = ZINCkj000005jVP0.1
REMARK                            x       y       z     vdW  Elec       q    Type
REMARK                         _______ _______ _______ _____ _____    ______ ____
ROOT
ATOM      1  S   LIG    1        0.498   3.815   2.166  0.00  0.00    +2.700 S 
ATOM      2  O   LIG    1        0.539   3.195   3.444  0.00  0.00    -0.920 OA
ATOM      3  O   LIG    1        0.284   5.208   1.985  0.00  0.00    -0.920 OA
ENDROOT
BRANCH   1   4
ATOM      4  C   LIG    1        2.031   3.441   1.382  0.00  0.00    -0.790 A 
ATOM      5  C   LIG    1        2.758   2.332   1.778  0.00  0.00    +0.250 A 
ATOM      6  C   LIG    1        3.961   2.035   1.159  0.00  0.00    -0.050 A 
ATOM      7  C   LIG    1        4.440   2.854   0.151  0.00  0.00    +0.230 A 
ATOM      8  C   LIG    1        3.716   3.966  -0.241  0.00  0.00    -0.050 A 
ATOM      9  F   LIG    1        5.615   2.567  -0.451  0.00  0.00    -0.100 F 
ATOM     10  F   LIG    1        2.292   1.536   2.765  0.00  0.00    -0.090 F 
ATOM     11  C   LIG    1        2.511   4.260   0.375  0.00  0.00    +0.260 A 
ATOM     12  F   LIG    1        1.804   5.346  -0.008  0.00  0.00    -0.090 F 
ENDBRANCH   1   4
BRANCH   1  13
ATOM     13  N   LIG    1       -0.691   3.044   1.310  0.00  0.00    -1.110 NA
ATOM     14  H   LIG    1       -1.362   3.562   0.837  0.00  0.00    +0.420 HD
BRANCH  13  23
ATOM     15  C   LIG    1       -2.938   1.663   2.442  0.00  0.00    +0.070 C 
ATOM     16  C   LIG    1       -2.189   1.109   1.228  0.00  0.00    +0.000 C 
ATOM     17  C   LIG    1       -2.850   1.616  -0.056  0.00  0.00    +0.260 C 
ATOM     18  N   LIG    1       -2.132   1.087  -1.222  0.00  0.00    -0.500 N 
ATOM     19  C   LIG    1       -0.755   1.594  -1.230  0.00  0.00    +0.260 C 
ATOM     20  C   LIG    1       -0.013   1.086   0.008  0.00  0.00    +0.050 C 
ATOM     21  H   LIG    1       -2.119   0.079  -1.177  0.00  0.00    +0.430 HD
ATOM     22  H   LIG    1       -2.602   1.379  -2.065  0.00  0.00    +0.440 HD
ATOM     23  C   LIG    1       -0.731   1.581   1.267  0.00  0.00    +0.260 C 
ENDBRANCH  13  23
ENDBRANCH   1  13
TORSDOF 3
