REMARK  Name = ZINCpe000000Wn8h.0
REMARK                            x       y       z     vdW  Elec       q    Type
REMARK                         _______ _______ _______ _____ _____    ______ ____
ROOT
ATOM      1  C   LIG    1        4.039  -4.633  -0.062  0.00  0.00    -0.110 A 
ATOM      2  C   LIG    1        4.687  -4.828  -1.267  0.00  0.00    +0.040 A 
ATOM      3  C   LIG    1        6.014  -5.218  -1.287  0.00  0.00    -0.040 A 
ATOM      4  C   LIG    1        6.694  -5.423  -0.098  0.00  0.00    +0.110 A 
ATOM      5  C   LIG    1        6.039  -5.232   1.116  0.00  0.00    +0.110 A 
ATOM      6  C   LIG    1        4.712  -4.837   1.129  0.00  0.00    -0.010 A 
ENDROOT
BRANCH   5   7
ATOM      7  O   LIG    1        6.702  -5.432   2.286  0.00  0.00    -0.300 OA
ATOM      8  C   LIG    1        5.968  -5.216   3.493  0.00  0.00    +0.240 C 
ENDBRANCH   5   7
BRANCH   1   9
ATOM      9  C   LIG    1        2.595  -4.204  -0.046  0.00  0.00    +0.330 C 
BRANCH   9  11
ATOM     10  C   LIG    1        1.320  -2.127  -0.022  0.00  0.00    +0.570 C 
ATOM     11  N   LIG    1        2.520  -2.741  -0.037  0.00  0.00    -0.720 N 
ATOM     12  H   LIG    1        3.334  -2.214  -0.042  0.00  0.00    +0.400 HD
ATOM     13  O   LIG    1        0.300  -2.788  -0.017  0.00  0.00    -0.530 OA
BRANCH  10  17
ATOM     14  C   LIG    1        1.188   2.072   0.002  0.00  0.00    +0.350 A 
ATOM     15  C   LIG    1       -0.017   1.376   0.010  0.00  0.00    -0.050 A 
ATOM     16  C   LIG    1        0.002  -0.004   0.002  0.00  0.00    +0.180 A 
ATOM     17  C   LIG    1        1.245  -0.653  -0.013  0.00  0.00    -0.230 A 
ATOM     18  C   LIG    1        2.410   0.115  -0.020  0.00  0.00    +0.340 A 
ATOM     19  N   LIG    1        2.346   1.430  -0.012  0.00  0.00    -0.540 NA
BRANCH  14  21
ATOM     20  C   LIG    1        2.443   4.088   0.000  0.00  0.00    +0.260 C 
ATOM     21  O   LIG    1        1.175   3.427   0.009  0.00  0.00    -0.300 OA
ENDBRANCH  14  21
ENDBRANCH  10  17
ENDBRANCH   9  11
ENDBRANCH   1   9
BRANCH   4  22
ATOM     22  O   LIG    1        7.997  -5.811  -0.116  0.00  0.00    -0.280 OA
BRANCH  22  23
ATOM     23  C   LIG    1        8.604  -5.988  -1.397  0.00  0.00    +0.240 C 
BRANCH  23  24
ATOM     24  C   LIG    1       10.037  -6.416  -1.220  0.00  0.00    +0.520 C 
ATOM     25  O   LIG    1       10.495  -6.556  -0.105  0.00  0.00    -0.510 OA
ATOM     26  N   LIG    1       10.812  -6.644  -2.299  0.00  0.00    -0.850 N 
ATOM     27  H   LIG    1       11.735  -6.919  -2.185  0.00  0.00    +0.410 HD
ATOM     28  H   LIG    1       10.446  -6.532  -3.191  0.00  0.00    +0.400 HD
ENDBRANCH  23  24
ENDBRANCH  22  23
ENDBRANCH   4  22
TORSDOF 8
