REMARK  Name = ZINCkj000005iCaF.0
REMARK                            x       y       z     vdW  Elec       q    Type
REMARK                         _______ _______ _______ _____ _____    ______ ____
ROOT
ATOM      1  C   LIG    1       -0.165   1.680   3.634  0.00  0.00    +0.520 C 
ATOM      2  N   LIG    1       -0.070   1.036   2.455  0.00  0.00    -0.730 N 
ATOM      3  H   LIG    1        0.436   0.210   2.392  0.00  0.00    +0.410 HD
ATOM      4  O   LIG    1       -0.797   2.712   3.712  0.00  0.00    -0.510 OA
ENDROOT
BRANCH   2   5
ATOM      5  C   LIG    1       -0.731   1.581   1.267  0.00  0.00    +0.230 C 
ATOM      6  C   LIG    1       -2.189   1.109   1.228  0.00  0.00    +0.070 C 
ATOM      7  C   LIG    1       -2.850   1.616  -0.056  0.00  0.00    +0.280 C 
ATOM      8  N   LIG    1       -2.132   1.087  -1.222  0.00  0.00    -0.500 N 
ATOM      9  C   LIG    1       -0.755   1.594  -1.230  0.00  0.00    +0.270 C 
ATOM     10  H   LIG    1       -2.119   0.079  -1.177  0.00  0.00    +0.430 HD
ATOM     11  H   LIG    1       -2.602   1.379  -2.065  0.00  0.00    +0.440 HD
ATOM     12  C   LIG    1       -0.013   1.086   0.008  0.00  0.00    +0.180 C 
ATOM     13  F   LIG    1        1.300   1.571  -0.002  0.00  0.00    -0.170 F 
ENDBRANCH   2   5
BRANCH   1  14
ATOM     14  C   LIG    1        0.516   1.120   4.856  0.00  0.00    +0.120 C 
BRANCH  14  17
ATOM     15  C   LIG    1        0.886   3.893   7.396  0.00  0.00    +0.130 A 
ATOM     16  C   LIG    1        1.128   3.058   6.315  0.00  0.00    -0.060 A 
ATOM     17  C   LIG    1        0.257   2.023   6.035  0.00  0.00    -0.050 A 
ATOM     18  C   LIG    1       -0.849   1.812   6.837  0.00  0.00    -0.020 A 
ATOM     19  C   LIG    1       -1.088   2.639   7.919  0.00  0.00    +0.050 A 
ATOM     20  C   LIG    1       -0.224   3.678   8.201  0.00  0.00    -0.110 A 
ATOM     21  C   LIG    1       -0.486   4.579   9.380  0.00  0.00    +0.100 C 
BRANCH  15  23
ATOM     22  C   LIG    1        2.861   5.076   6.801  0.00  0.00    +0.240 C 
ATOM     23  O   LIG    1        1.739   4.915   7.671  0.00  0.00    -0.310 OA
ENDBRANCH  15  23
ENDBRANCH  14  17
ENDBRANCH   1  14
TORSDOF 4
