REMARK  Name = ZINCrg000000tOKW.0
REMARK                            x       y       z     vdW  Elec       q    Type
REMARK                         _______ _______ _______ _____ _____    ______ ____
ROOT
ATOM      1  O   LIG    1        4.772   0.772  -0.245  0.00  0.00    -0.510 OA
ATOM      2  C   LIG    1        5.969   0.983  -0.257  0.00  0.00    +0.610 C 
ATOM      3  N   LIG    1        6.445   2.191   0.105  0.00  0.00    -0.580 N 
ENDROOT
BRANCH   3   4
ATOM      4  C   LIG    1        5.523   3.233   0.563  0.00  0.00    +0.290 C 
ATOM      5  C   LIG    1        4.769   2.745   1.812  0.00  0.00    +0.070 C 
ATOM      6  C   LIG    1        3.598   3.736   2.039  0.00  0.00    -0.310 C 
ATOM      7  S   LIG    1        2.963   3.998   0.340  0.00  0.00    +2.390 S 
ATOM      8  O   LIG    1        2.697   5.381   0.145  0.00  0.00    -0.940 OA
ATOM      9  O   LIG    1        1.954   3.038   0.060  0.00  0.00    -0.930 OA
ATOM     10  C   LIG    1        4.495   3.539  -0.544  0.00  0.00    -0.310 C 
ENDBRANCH   3   4
BRANCH   2  11
ATOM     11  C   LIG    1        6.903  -0.086  -0.669  0.00  0.00    -0.060 A 
ATOM     12  N   LIG    1        8.222  -0.024  -0.627  0.00  0.00    -0.200 NA
ATOM     13  N   LIG    1        8.716  -1.129  -1.063  0.00  0.00    -0.160 N 
ATOM     14  N   LIG    1        7.666  -1.989  -1.411  0.00  0.00    -0.270 NA
ATOM     15  C   LIG    1        6.545  -1.350  -1.169  0.00  0.00    +0.300 A 
BRANCH  13  16
ATOM     16  C   LIG    1       10.082  -1.427  -1.168  0.00  0.00    +0.150 A 
ATOM     17  C   LIG    1       10.489  -2.696  -1.555  0.00  0.00    +0.040 A 
ATOM     18  C   LIG    1       11.836  -2.988  -1.651  0.00  0.00    +0.040 A 
ATOM     19  C   LIG    1       12.777  -2.013  -1.375  0.00  0.00    +0.020 A 
ATOM     20  C   LIG    1       12.374  -0.748  -0.990  0.00  0.00    +0.040 A 
ATOM     21  C   LIG    1       11.029  -0.452  -0.886  0.00  0.00    +0.030 A 
ENDBRANCH  13  16
ENDBRANCH   2  11
BRANCH   3  22
ATOM     22  C   LIG    1        7.883   2.461   0.042  0.00  0.00    +0.300 C 
BRANCH  22  23
ATOM     23  C   LIG    1        8.266   2.853  -1.387  0.00  0.00    +0.150 C 
ATOM     24  C   LIG    1        9.796   3.027  -1.490  0.00  0.00    +0.010 C 
ATOM     25  C   LIG    1        9.925   4.262  -2.423  0.00  0.00    +0.010 C 
ATOM     26  C   LIG    1        8.682   5.083  -1.997  0.00  0.00    +0.200 C 
ATOM     27  O   LIG    1        7.663   4.107  -1.725  0.00  0.00    -0.370 OA
ENDBRANCH  22  23
ENDBRANCH   3  22
TORSDOF 5
