REMARK  Name = ZINCpe000000WwW3.0
REMARK                            x       y       z     vdW  Elec       q    Type
REMARK                         _______ _______ _______ _____ _____    ______ ____
ROOT
ATOM      1  C   LIG    1       -0.816   3.404   4.848  0.00  0.00    +0.520 C 
ATOM      2  N   LIG    1       -1.101   2.753   3.703  0.00  0.00    -0.620 N 
ATOM      3  C   LIG    1       -1.023   1.286   3.629  0.00  0.00    +0.300 C 
ATOM      4  C   LIG    1       -0.165   0.904   2.418  0.00  0.00    +0.170 C 
ATOM      5  N   LIG    1       -0.700   1.560   1.217  0.00  0.00    -0.540 NA
ATOM      6  C   LIG    1       -0.622   3.022   1.328  0.00  0.00    +0.160 C 
ATOM      7  C   LIG    1       -1.499   3.490   2.494  0.00  0.00    +0.280 C 
ATOM      8  O   LIG    1       -0.489   2.779   5.835  0.00  0.00    -0.530 OA
ENDROOT
BRANCH   1   9
ATOM      9  C   LIG    1       -0.902   4.907   4.902  0.00  0.00    +0.110 C 
BRANCH   9  14
ATOM     10  C   LIG    1        1.115   6.115   7.860  0.00  0.00    +0.130 A 
ATOM     11  C   LIG    1        0.129   6.255   8.825  0.00  0.00    -0.080 A 
ATOM     12  C   LIG    1       -1.185   5.959   8.518  0.00  0.00    +0.050 A 
ATOM     13  C   LIG    1       -1.518   5.528   7.247  0.00  0.00    -0.020 A 
ATOM     14  C   LIG    1       -0.536   5.382   6.284  0.00  0.00    -0.030 A 
ATOM     15  C   LIG    1        0.779   5.678   6.587  0.00  0.00    -0.010 A 
BRANCH  10  17
ATOM     16  C   LIG    1        2.681   6.851   9.490  0.00  0.00    +0.250 C 
ATOM     17  O   LIG    1        2.408   6.406   8.160  0.00  0.00    -0.320 OA
ENDBRANCH  10  17
ENDBRANCH   9  14
ENDBRANCH   1   9
BRANCH   5  18
ATOM     18  C   LIG    1       -0.013   1.086   0.008  0.00  0.00    +0.210 C 
BRANCH  18  19
ATOM     19  C   LIG    1       -0.753   1.593  -1.232  0.00  0.00    +0.010 C 
ATOM     20  C   LIG    1       -2.130   0.915  -1.337  0.00  0.00    +0.080 C 
ATOM     21  C   LIG    1       -2.702   1.174  -2.745  0.00  0.00    -0.310 C 
ATOM     22  S   LIG    1       -1.239   1.378  -3.823  0.00  0.00    +2.390 S 
ATOM     23  O   LIG    1       -1.151   0.272  -4.711  0.00  0.00    -0.940 OA
ATOM     24  O   LIG    1       -1.212   2.703  -4.335  0.00  0.00    -0.940 OA
ATOM     25  C   LIG    1        0.031   1.207  -2.513  0.00  0.00    -0.310 C 
ENDBRANCH  18  19
ENDBRANCH   5  18
TORSDOF 5
