REMARK  Name = ZINCqH0000004QyI.0
REMARK                            x       y       z     vdW  Elec       q    Type
REMARK                         _______ _______ _______ _____ _____    ______ ____
ROOT
ATOM      1  N   LIG    1       -2.393   1.298  -2.824  0.00  0.00    -0.660 N 
ATOM      2  H   LIG    1       -1.760   1.672  -3.456  0.00  0.00    +0.410 HD
ATOM      3  C   LIG    1       -2.207   1.472  -1.501  0.00  0.00    +0.710 C 
ATOM      4  N   LIG    1       -1.137   2.160  -1.055  0.00  0.00    -0.730 N 
ATOM      5  H   LIG    1       -0.500   2.529  -1.687  0.00  0.00    +0.400 HD
ATOM      6  O   LIG    1       -3.005   1.009  -0.709  0.00  0.00    -0.560 OA
ENDROOT
BRANCH   4   7
ATOM      7  C   LIG    1       -0.935   2.349   0.383  0.00  0.00    +0.320 C 
ATOM      8  C   LIG    1       -1.657   3.593   0.859  0.00  0.00    -0.110 A 
ATOM      9  C   LIG    1       -3.001   3.806   1.116  0.00  0.00    +0.040 A 
ATOM     10  C   LIG    1       -3.438   5.044   1.547  0.00  0.00    +0.000 A 
ATOM     11  C   LIG    1       -2.532   6.072   1.723  0.00  0.00    +0.010 A 
ATOM     12  C   LIG    1       -1.191   5.862   1.466  0.00  0.00    +0.010 A 
ATOM     13  C   LIG    1       -0.751   4.622   1.034  0.00  0.00    -0.090 A 
ATOM     14  C   LIG    1        0.644   4.142   0.688  0.00  0.00    +0.080 C 
ATOM     15  C   LIG    1        0.550   2.608   0.684  0.00  0.00    -0.060 C 
ATOM     16  C   LIG    1        1.429   2.020  -0.413  0.00  0.00    +0.010 C 
ATOM     17  C   LIG    1        2.901   2.255  -0.062  0.00  0.00    +0.210 C 
ATOM     18  O   LIG    1        3.176   1.692   1.222  0.00  0.00    -0.380 OA
ATOM     19  C   LIG    1        2.426   2.273   2.290  0.00  0.00    +0.210 C 
ATOM     20  C   LIG    1        0.931   2.040   2.045  0.00  0.00    +0.020 C 
ENDBRANCH   4   7
BRANCH   1  22
ATOM     21  C   LIG    1       -4.448   0.968  -4.186  0.00  0.00    -0.040 A 
ATOM     22  C   LIG    1       -3.506   0.573  -3.289  0.00  0.00    +0.050 A 
ATOM     23  C   LIG    1       -3.910  -0.737  -2.926  0.00  0.00    +0.040 A 
ATOM     24  N   LIG    1       -4.991  -0.990  -3.607  0.00  0.00    -0.360 NA
ATOM     25  C   LIG    1       -3.224  -1.655  -1.948  0.00  0.00    +0.160 C 
ATOM     26  O   LIG    1       -5.303  -0.060  -4.313  0.00  0.00    +0.110 OA
BRANCH  21  28
ATOM     27  C   LIG    1       -3.741   2.205  -6.215  0.00  0.00    +0.040 C 
ATOM     28  C   LIG    1       -4.517   2.293  -4.899  0.00  0.00    +0.140 C 
ENDBRANCH  21  28
ENDBRANCH   1  22
TORSDOF 3
