REMARK  Name = ZINCrD0000074IQR.0
REMARK                            x       y       z     vdW  Elec       q    Type
REMARK                         _______ _______ _______ _____ _____    ______ ____
ROOT
ATOM      1  C   LIG    1       -3.399   6.364   0.472  0.00  0.00    +0.480 C 
ATOM      2  O   LIG    1       -4.508   5.883   0.488  0.00  0.00    -0.500 OA
ENDROOT
BRANCH   1   3
ATOM      3  C   LIG    1       -3.223   7.856   0.584  0.00  0.00    +0.150 C 
BRANCH   3   4
ATOM      4  C   LIG    1       -4.594   8.524   0.705  0.00  0.00    -0.310 C 
BRANCH   4   5
ATOM      5  S   LIG    1       -4.381  10.321   0.840  0.00  0.00    +2.500 S 
ATOM      6  O   LIG    1       -3.897  10.858  -0.384  0.00  0.00    -0.930 OA
ATOM      7  O   LIG    1       -3.775  10.660   2.079  0.00  0.00    -0.930 OA
BRANCH   5  12
ATOM      8  C   LIG    1      -10.000  12.473   1.291  0.00  0.00    +0.090 C 
ATOM      9  C   LIG    1       -8.597  11.935   1.179  0.00  0.00    -0.030 A 
ATOM     10  C   LIG    1       -7.894  11.592   2.319  0.00  0.00    -0.010 A 
ATOM     11  C   LIG    1       -6.607  11.099   2.215  0.00  0.00    +0.120 A 
ATOM     12  C   LIG    1       -6.022  10.949   0.972  0.00  0.00    -0.670 A 
ATOM     13  C   LIG    1       -6.723  11.297  -0.168  0.00  0.00    +0.120 A 
ATOM     14  C   LIG    1       -8.012  11.784  -0.065  0.00  0.00    -0.010 A 
ENDBRANCH   5  12
ENDBRANCH   4   5
ENDBRANCH   3   4
ENDBRANCH   1   3
BRANCH   1  15
ATOM     15  O   LIG    1       -2.325   5.568   0.355  0.00  0.00    -0.330 OA
BRANCH  15  16
ATOM     16  C   LIG    1       -2.570   4.140   0.252  0.00  0.00    +0.270 C 
BRANCH  16  17
ATOM     17  C   LIG    1       -1.256   3.412   0.128  0.00  0.00    +0.520 C 
ATOM     18  N   LIG    1       -1.238   2.069   0.019  0.00  0.00    -0.670 N 
ATOM     19  H   LIG    1       -2.071   1.576  -0.045  0.00  0.00    +0.420 HD
ATOM     20  O   LIG    1       -0.216   4.035   0.127  0.00  0.00    -0.490 OA
BRANCH  18  21
ATOM     21  C   LIG    1       -0.016   1.385  -0.001  0.00  0.00    +0.150 A 
ATOM     22  C   LIG    1        1.092   1.960  -0.609  0.00  0.00    +0.050 A 
ATOM     23  C   LIG    1        2.295   1.281  -0.631  0.00  0.00    +0.040 A 
ATOM     24  C   LIG    1        2.395   0.029  -0.050  0.00  0.00    -0.040 A 
ATOM     25  C   LIG    1        1.292  -0.546   0.556  0.00  0.00    +0.050 A 
ATOM     26 CL   LIG    1        3.908  -0.822  -0.080  0.00  0.00    -0.070 Cl
ATOM     27  C   LIG    1        0.087   0.129   0.582  0.00  0.00    -0.100 A 
ATOM     28  C   LIG    1       -1.114  -0.497   1.242  0.00  0.00    +0.110 C 
ENDBRANCH  18  21
ENDBRANCH  16  17
ENDBRANCH  15  16
ENDBRANCH   1  15
TORSDOF 8
