REMARK  Name = ZINCvU0000000Dlq.0
REMARK                            x       y       z     vdW  Elec       q    Type
REMARK                         _______ _______ _______ _____ _____    ______ ____
ROOT
ATOM      1  C   LIG    1        4.370  -1.265  -1.488  0.00  0.00    +0.250 A 
ATOM      2  N   LIG    1        5.649  -1.553  -1.502  0.00  0.00    -0.500 NA
ATOM      3  C   LIG    1        6.375  -0.404  -1.502  0.00  0.00    +0.060 A 
ATOM      4  C   LIG    1        7.746  -0.136  -1.514  0.00  0.00    +0.060 A 
ATOM      5  C   LIG    1        8.188   1.168  -1.511  0.00  0.00    +0.010 A 
ATOM      6  C   LIG    1        7.282   2.218  -1.497  0.00  0.00    +0.030 A 
ATOM      7  C   LIG    1        5.925   1.970  -1.485  0.00  0.00    +0.010 A 
ATOM      8  C   LIG    1        5.462   0.663  -1.494  0.00  0.00    +0.060 A 
ATOM      9  N   LIG    1        4.200   0.091  -1.479  0.00  0.00    -0.470 N 
ENDROOT
BRANCH   1  10
ATOM     10  S   LIG    1        3.066  -2.449  -1.482  0.00  0.00    +0.050 S 
BRANCH  10  11
ATOM     11  C   LIG    1        4.031  -3.980  -1.500  0.00  0.00    +0.090 C 
BRANCH  11  12
ATOM     12  C   LIG    1        3.098  -5.163  -1.498  0.00  0.00    +0.420 C 
ATOM     13  O   LIG    1        1.897  -4.988  -1.486  0.00  0.00    -0.440 OA
BRANCH  12  17
ATOM     14  C   LIG    1        4.672  -9.103  -1.534  0.00  0.00    +0.140 A 
ATOM     15  C   LIG    1        5.532  -8.012  -1.536  0.00  0.00    -0.040 A 
ATOM     16  C   LIG    1        5.025  -6.732  -1.524  0.00  0.00    +0.080 A 
ATOM     17  C   LIG    1        3.641  -6.527  -1.510  0.00  0.00    -0.170 A 
ATOM     18  C   LIG    1        2.775  -7.628  -1.502  0.00  0.00    +0.040 A 
ATOM     19  C   LIG    1        3.291  -8.908  -1.519  0.00  0.00    +0.090 A 
BRANCH  14  21
ATOM     20  C   LIG    1        6.601 -10.491  -1.559  0.00  0.00    +0.250 C 
ATOM     21  O   LIG    1        5.178 -10.363  -1.545  0.00  0.00    -0.300 OA
ENDBRANCH  14  21
BRANCH  19  22
ATOM     22  O   LIG    1        2.453  -9.979  -1.518  0.00  0.00    -0.300 OA
ATOM     23  C   LIG    1        1.051  -9.706  -1.503  0.00  0.00    +0.240 C 
ENDBRANCH  19  22
ENDBRANCH  12  17
ENDBRANCH  11  12
ENDBRANCH  10  11
ENDBRANCH   1  10
BRANCH   9  24
ATOM     24  C   LIG    1        2.922   0.806  -1.464  0.00  0.00    +0.320 C 
BRANCH  24  25
ATOM     25  C   LIG    1        2.490   1.048  -0.016  0.00  0.00    +0.060 C 
BRANCH  25  26
ATOM     26  C   LIG    1        1.175   1.783   0.000  0.00  0.00    -0.090 A 
ATOM     27  C   LIG    1       -0.013   1.076   0.008  0.00  0.00    +0.010 A 
ATOM     28  C   LIG    1       -1.219   1.751   0.017  0.00  0.00    +0.000 A 
ATOM     29  C   LIG    1       -1.238   3.133   0.029  0.00  0.00    +0.000 A 
ATOM     30  C   LIG    1       -0.050   3.840   0.022  0.00  0.00    +0.000 A 
ATOM     31  C   LIG    1        1.156   3.165   0.008  0.00  0.00    +0.010 A 
ENDBRANCH  25  26
ENDBRANCH  24  25
ENDBRANCH   9  24
TORSDOF 9
