REMARK  Name = ZINCc70000005r2s.0
REMARK                            x       y       z     vdW  Elec       q    Type
REMARK                         _______ _______ _______ _____ _____    ______ ____
ROOT
ATOM      1  C   LIG    1        2.294   1.481  -0.012  0.00  0.00    +0.130 A 
ATOM      2  C   LIG    1        2.385   0.091  -0.020  0.00  0.00    +0.010 A 
ATOM      3  C   LIG    1        1.223  -0.664  -0.013  0.00  0.00    +0.080 A 
ATOM      4  C   LIG    1        0.002  -0.004   0.002  0.00  0.00    +0.020 A 
ATOM      5  C   LIG    1       -0.017   1.397   0.010  0.00  0.00    +0.390 A 
ATOM      6  N   LIG    1        1.108   2.085   0.003  0.00  0.00    -0.490 NA
ENDROOT
BRANCH   5   7
ATOM      7  N   LIG    1       -1.235   2.070   0.019  0.00  0.00    -0.840 N 
ATOM      8  H   LIG    1       -1.254   3.040   0.025  0.00  0.00    +0.410 HD
ATOM      9  H   LIG    1       -2.066   1.569   0.020  0.00  0.00    +0.410 HD
ENDBRANCH   5   7
BRANCH   1  10
ATOM     10  C   LIG    1        3.527   2.294  -0.019  0.00  0.00    +0.520 C 
ATOM     11  O   LIG    1        4.613   1.749  -0.033  0.00  0.00    -0.490 OA
BRANCH  10  13
ATOM     12  C   LIG    1        4.701   4.373  -0.019  0.00  0.00    +0.280 C 
ATOM     13  O   LIG    1        3.448   3.639  -0.011  0.00  0.00    -0.330 OA
ENDBRANCH  10  13
ENDBRANCH   1  10
BRANCH   4  14
ATOM     14  O   LIG    1       -1.160  -0.707   0.009  0.00  0.00    -0.480 OA
ATOM     15  H   LIG    1       -1.504  -0.906  -0.872  0.00  0.00    +0.390 HD
ENDBRANCH   4  14
TORSDOF 4
