REMARK  Name = ZINCqH0000003SPa.0
REMARK                            x       y       z     vdW  Elec       q    Type
REMARK                         _______ _______ _______ _____ _____    ______ ____
ROOT
ATOM      1  C   LIG    1       -3.156   1.497  -0.726  0.00  0.00    +0.460 C 
ATOM      2  O   LIG    1       -3.026   2.488  -0.047  0.00  0.00    -0.490 OA
ENDROOT
BRANCH   1   3
ATOM      3  C   LIG    1       -4.520   0.882  -0.907  0.00  0.00    +0.160 C 
BRANCH   3   7
ATOM      4  C   LIG    1       -7.411   3.166   1.255  0.00  0.00    -0.660 A 
ATOM      5  C   LIG    1       -7.124   3.481  -0.060  0.00  0.00    +0.120 A 
ATOM      6  C   LIG    1       -6.188   2.742  -0.759  0.00  0.00    +0.010 A 
ATOM      7  C   LIG    1       -5.540   1.688  -0.144  0.00  0.00    -0.030 A 
ATOM      8  C   LIG    1       -5.831   1.369   1.169  0.00  0.00    +0.010 A 
ATOM      9  C   LIG    1       -6.763   2.111   1.871  0.00  0.00    +0.120 A 
BRANCH   4  10
ATOM     10  S   LIG    1       -8.603   4.108   2.147  0.00  0.00    +2.490 S 
ATOM     11  O   LIG    1       -8.591   5.380   1.513  0.00  0.00    -0.930 OA
ATOM     12  O   LIG    1       -8.217   3.964   3.507  0.00  0.00    -0.930 OA
BRANCH  10  14
ATOM     13  C   LIG    1      -11.303   3.989   2.569  0.00  0.00    +0.080 C 
ATOM     14  C   LIG    1      -10.175   3.258   1.838  0.00  0.00    -0.330 C 
ENDBRANCH  10  14
ENDBRANCH   4  10
ENDBRANCH   3   7
ENDBRANCH   1   3
BRANCH   1  15
ATOM     15  O   LIG    1       -2.087   0.944  -1.319  0.00  0.00    -0.350 OA
BRANCH  15  16
ATOM     16  C   LIG    1       -0.825   1.652  -1.196  0.00  0.00    +0.250 C 
BRANCH  16  17
ATOM     17  C   LIG    1       -0.023   1.472  -2.459  0.00  0.00    +0.120 A 
ATOM     18  C   LIG    1       -0.579   0.802  -3.531  0.00  0.00    -0.010 A 
ATOM     19  C   LIG    1        0.165   0.646  -4.691  0.00  0.00    +0.070 A 
ATOM     20  C   LIG    1        1.451   1.164  -4.724  0.00  0.00    -0.030 A 
ATOM     21  C   LIG    1        1.942   1.818  -3.610  0.00  0.00    +0.260 A 
ATOM     22  N   LIG    1        1.204   1.952  -2.526  0.00  0.00    -0.470 NA
ENDBRANCH  16  17
BRANCH  16  23
ATOM     23  C   LIG    1       -0.039   1.093  -0.008  0.00  0.00    +0.030 C 
BRANCH  23  24
ATOM     24  C   LIG    1        1.200   1.956   0.236  0.00  0.00    +0.000 C 
ATOM     25  C   LIG    1        2.028   1.351   1.371  0.00  0.00    +0.020 C 
ATOM     26  C   LIG    1        0.766   3.372   0.621  0.00  0.00    +0.010 C 
ENDBRANCH  23  24
ENDBRANCH  16  23
ENDBRANCH  15  16
ENDBRANCH   1  15
TORSDOF 9
