REMARK  Name = ZINCrH000004tE0v.0
REMARK                            x       y       z     vdW  Elec       q    Type
REMARK                         _______ _______ _______ _____ _____    ______ ____
ROOT
ATOM      1  O   LIG    1        1.347   7.479  -0.531  0.00  0.00    -0.520 OA
ATOM      2  C   LIG    1        0.335   8.149  -0.514  0.00  0.00    +0.520 C 
ATOM      3  N   LIG    1       -0.860   7.558  -0.314  0.00  0.00    -0.670 N 
ATOM      4  H   LIG    1       -1.661   8.100  -0.236  0.00  0.00    +0.410 HD
ENDROOT
BRANCH   3   5
ATOM      5  C   LIG    1       -0.945   6.163  -0.219  0.00  0.00    +0.110 A 
ATOM      6  C   LIG    1        0.080   5.444   0.382  0.00  0.00    +0.070 A 
ATOM      7  C   LIG    1       -0.005   4.069   0.475  0.00  0.00    +0.020 A 
ATOM      8  C   LIG    1       -1.113   3.406  -0.033  0.00  0.00    +0.110 A 
ATOM      9  C   LIG    1       -2.134   4.123  -0.638  0.00  0.00    -0.040 A 
ATOM     10  C   LIG    1       -2.054   5.499  -0.727  0.00  0.00    +0.030 A 
BRANCH   8  11
ATOM     11  O   LIG    1       -1.194   2.052   0.059  0.00  0.00    -0.250 OA
BRANCH  11  12
ATOM     12  C   LIG    1       -2.243   1.434  -0.546  0.00  0.00    +0.090 A 
ATOM     13  C   LIG    1       -3.345   1.045   0.202  0.00  0.00    +0.030 A 
ATOM     14  C   LIG    1       -4.408   0.412  -0.414  0.00  0.00    +0.040 A 
ATOM     15  C   LIG    1       -4.374   0.166  -1.774  0.00  0.00    +0.040 A 
ATOM     16  C   LIG    1       -3.277   0.552  -2.522  0.00  0.00    +0.040 A 
ATOM     17  C   LIG    1       -2.212   1.186  -1.912  0.00  0.00    -0.050 A 
ATOM     18 CL   LIG    1       -0.835   1.672  -2.852  0.00  0.00    -0.050 Cl
ENDBRANCH  11  12
ENDBRANCH   8  11
ENDBRANCH   3   5
BRANCH   2  19
ATOM     19  C   LIG    1        0.414   9.640  -0.717  0.00  0.00    +0.100 C 
BRANCH  19  20
ATOM     20  C   LIG    1        1.874  10.050  -0.921  0.00  0.00    +0.070 C 
BRANCH  20  21
ATOM     21  C   LIG    1        1.954  11.541  -1.123  0.00  0.00    +0.520 C 
ATOM     22  N   LIG    1        3.149  12.131  -1.323  0.00  0.00    -0.620 N 
ATOM     23  C   LIG    1        4.390  11.341  -1.342  0.00  0.00    +0.250 C 
ATOM     24  C   LIG    1        5.172  11.707  -2.614  0.00  0.00    +0.220 C 
ATOM     25  O   LIG    1        5.323  13.127  -2.680  0.00  0.00    -0.380 OA
ATOM     26  C   LIG    1        4.089  13.842  -2.781  0.00  0.00    +0.220 C 
ATOM     27  C   LIG    1        3.251  13.585  -1.524  0.00  0.00    +0.260 C 
ATOM     28  O   LIG    1        0.942  12.210  -1.106  0.00  0.00    -0.540 OA
ENDBRANCH  20  21
ENDBRANCH  19  20
ENDBRANCH   2  19
TORSDOF 6
