REMARK  Name = ZINCrH000004sziN.2
REMARK                            x       y       z     vdW  Elec       q    Type
REMARK                         _______ _______ _______ _____ _____    ______ ____
ROOT
ATOM      1  N   LIG    1        0.886   2.209  -1.622  0.00  0.00    -0.680 N 
ATOM      2  H   LIG    1        1.461   2.919  -1.951  0.00  0.00    +0.410 HD
ATOM      3  C   LIG    1       -0.313   2.508  -1.085  0.00  0.00    +0.700 C 
ATOM      4  N   LIG    1       -0.730   3.789  -1.038  0.00  0.00    -0.740 N 
ATOM      5  H   LIG    1       -0.167   4.495  -1.390  0.00  0.00    +0.390 HD
ATOM      6  O   LIG    1       -1.019   1.622  -0.644  0.00  0.00    -0.570 OA
ENDROOT
BRANCH   1  13
ATOM      7  C   LIG    1        1.921  -4.856  -0.035  0.00  0.00    +0.230 C 
ATOM      8  C   LIG    1        1.855  -3.459  -0.595  0.00  0.00    +0.250 A 
ATOM      9  N   LIG    1        2.386  -3.084  -1.720  0.00  0.00    -0.480 NA
ATOM     10  C   LIG    1        2.131  -1.760  -1.907  0.00  0.00    +0.010 A 
ATOM     11  C   LIG    1        2.450  -0.849  -2.914  0.00  0.00    +0.100 A 
ATOM     12  C   LIG    1        2.039   0.451  -2.813  0.00  0.00    +0.000 A 
ATOM     13  C   LIG    1        1.301   0.875  -1.711  0.00  0.00    +0.190 A 
ATOM     14  C   LIG    1        0.980  -0.016  -0.699  0.00  0.00    +0.060 A 
ATOM     15  C   LIG    1        1.388  -1.337  -0.793  0.00  0.00    +0.030 A 
ATOM     16  O   LIG    1        1.239  -2.423  -0.003  0.00  0.00    -0.210 OA
ENDBRANCH   1  13
BRANCH   4  17
ATOM     17  C   LIG    1       -2.034   4.113  -0.454  0.00  0.00    +0.300 C 
BRANCH  17  18
ATOM     18  C   LIG    1       -2.198   5.633  -0.384  0.00  0.00    +0.120 C 
ATOM     19  C   LIG    1       -3.672   5.977  -0.161  0.00  0.00    +0.060 C 
BRANCH  18  20
ATOM     20  N   LIG    1       -1.398   6.160   0.730  0.00  0.00    -0.520 NA
ATOM     21  C   LIG    1        0.034   6.173   0.391  0.00  0.00    +0.210 C 
ATOM     22  C   LIG    1        0.211   6.896  -0.944  0.00  0.00    +0.050 C 
ATOM     23  C   LIG    1       -0.505   8.222  -0.910  0.00  0.00    -0.080 A 
ATOM     24  C   LIG    1       -0.182   9.173  -1.865  0.00  0.00    +0.000 A 
ATOM     25  C   LIG    1       -0.817  10.399  -1.872  0.00  0.00    +0.000 A 
ATOM     26  C   LIG    1       -1.780  10.680  -0.921  0.00  0.00    +0.000 A 
ATOM     27  C   LIG    1       -2.101   9.734   0.032  0.00  0.00    +0.010 A 
ATOM     28  C   LIG    1       -1.463   8.502   0.041  0.00  0.00    -0.110 A 
ATOM     29  C   LIG    1       -1.843   7.506   1.105  0.00  0.00    +0.270 C 
ENDBRANCH  18  20
ENDBRANCH  17  18
ENDBRANCH   4  17
TORSDOF 4
