REMARK  Name = ZINCnE000001QSUy.0
REMARK                            x       y       z     vdW  Elec       q    Type
REMARK                         _______ _______ _______ _____ _____    ______ ____
ROOT
ATOM      1  N   LIG    1       -0.288   1.272  -2.443  0.00  0.00    -0.690 N 
ATOM      2  H   LIG    1        0.479   0.686  -2.534  0.00  0.00    +0.410 HD
ATOM      3  C   LIG    1       -0.649   1.726  -1.226  0.00  0.00    +0.530 C 
ATOM      4  O   LIG    1       -1.548   2.534  -1.122  0.00  0.00    -0.480 OA
ENDROOT
BRANCH   1  10
ATOM      5  C   LIG    1       -1.919   3.081  -9.333  0.00  0.00    +0.230 C 
ATOM      6  C   LIG    1       -1.867   2.744  -7.865  0.00  0.00    +0.240 A 
ATOM      7  N   LIG    1       -0.789   2.421  -7.215  0.00  0.00    -0.480 NA
ATOM      8  C   LIG    1       -1.115   2.184  -5.915  0.00  0.00    +0.040 A 
ATOM      9  C   LIG    1       -0.380   1.811  -4.790  0.00  0.00    +0.030 A 
ATOM     10  C   LIG    1       -1.022   1.647  -3.576  0.00  0.00    +0.170 A 
ATOM     11  C   LIG    1       -2.397   1.847  -3.477  0.00  0.00    +0.080 A 
ATOM     12  C   LIG    1       -3.129   2.221  -4.583  0.00  0.00    +0.060 A 
ATOM     13  C   LIG    1       -2.499   2.389  -5.807  0.00  0.00    -0.010 A 
ATOM     14  O   LIG    1       -2.927   2.736  -7.041  0.00  0.00    -0.220 OA
ENDBRANCH   1  10
BRANCH   3  15
ATOM     15  C   LIG    1        0.065   1.231   0.005  0.00  0.00    +0.060 C 
BRANCH  15  16
ATOM     16  C   LIG    1       -0.533   1.898   1.245  0.00  0.00    -0.110 C 
ATOM     17  C   LIG    1       -0.369   3.415   1.136  0.00  0.00    +0.040 C 
ATOM     18  C   LIG    1        1.117   3.762   1.038  0.00  0.00    -0.020 C 
ATOM     19  C   LIG    1        1.843   3.259   2.288  0.00  0.00    -0.010 C 
ATOM     20  C   LIG    1        1.679   1.742   2.396  0.00  0.00    -0.010 C 
ATOM     21  C   LIG    1        0.192   1.395   2.495  0.00  0.00    +0.030 C 
BRANCH  16  22
ATOM     22  C   LIG    1       -1.997   1.556   1.342  0.00  0.00    +0.510 C 
ATOM     23  O   LIG    1       -2.665   1.991   2.265  0.00  0.00    -0.700 OA
ATOM     24  O   LIG    1       -2.515   0.845   0.497  0.00  0.00    -0.690 OA
ENDBRANCH  16  22
ENDBRANCH  15  16
ENDBRANCH   3  15
TORSDOF 4
