REMARK  Name = ZINCpe000027pH5l.0
REMARK                            x       y       z     vdW  Elec       q    Type
REMARK                         _______ _______ _______ _____ _____    ______ ____
ROOT
ATOM      1  N   LIG    1       -4.686   5.525  -1.043  0.00  0.00    -0.540 NA
ATOM      2  C   LIG    1       -3.918   5.840   0.170  0.00  0.00    +0.190 C 
ATOM      3  C   LIG    1       -2.466   5.392  -0.017  0.00  0.00    +0.180 C 
ATOM      4  N   LIG    1       -2.435   3.949  -0.297  0.00  0.00    -0.520 NA
ATOM      5  C   LIG    1       -3.202   3.634  -1.510  0.00  0.00    +0.190 C 
ATOM      6  C   LIG    1       -4.654   4.082  -1.323  0.00  0.00    +0.190 C 
ENDROOT
BRANCH   1   7
ATOM      7  C   LIG    1       -6.068   6.009  -0.932  0.00  0.00    +0.300 C 
BRANCH   7  12
ATOM      8  N   LIG    1       -6.892   6.237  -3.327  0.00  0.00    -0.440 N 
ATOM      9  C   LIG    1       -7.709   5.521  -4.159  0.00  0.00    +0.110 A 
ATOM     10  C   LIG    1       -8.137   4.453  -3.460  0.00  0.00    +0.140 A 
ATOM     11  N   LIG    1       -7.593   4.512  -2.236  0.00  0.00    -0.490 NA
ATOM     12  C   LIG    1       -6.849   5.581  -2.147  0.00  0.00    +0.210 A 
BRANCH   8  14
ATOM     13  C   LIG    1       -4.777   7.162  -4.137  0.00  0.00    +0.040 C 
ATOM     14  C   LIG    1       -6.194   7.483  -3.654  0.00  0.00    +0.280 C 
ENDBRANCH   8  14
ENDBRANCH   7  12
ENDBRANCH   1   7
BRANCH   4  15
ATOM     15  C   LIG    1       -1.052   3.465  -0.408  0.00  0.00    +0.220 C 
BRANCH  15  16
ATOM     16  C   LIG    1       -1.049   1.958  -0.448  0.00  0.00    +0.510 C 
ATOM     17  N   LIG    1        0.116   1.289  -0.549  0.00  0.00    -0.720 N 
ATOM     18  H   LIG    1        0.953   1.777  -0.600  0.00  0.00    +0.410 HD
ATOM     19  O   LIG    1       -2.096   1.348  -0.390  0.00  0.00    -0.500 OA
BRANCH  17  20
ATOM     20  C   LIG    1        0.119  -0.175  -0.588  0.00  0.00    +0.320 C 
ATOM     21  C   LIG    1       -0.694  -0.655  -1.793  0.00  0.00    +0.070 C 
BRANCH  20  22
ATOM     22  C   LIG    1        1.558  -0.679  -0.711  0.00  0.00    -0.050 C 
ATOM     23  C   LIG    1        1.932  -1.446  -1.981  0.00  0.00    +0.050 C 
ATOM     24  C   LIG    1        1.784  -2.191  -0.652  0.00  0.00    +0.030 C 
ENDBRANCH  20  22
BRANCH  20  25
ATOM     25  C   LIG    1       -0.481  -0.700   0.649  0.00  0.00    +0.200 C 
ATOM     26  N   LIG    1       -0.944  -1.106   1.604  0.00  0.00    -0.410 NA
ENDBRANCH  20  25
ENDBRANCH  17  20
ENDBRANCH  15  16
ENDBRANCH   4  15
TORSDOF 8
