REMARK  Name = ZINCqH0000050lGQ.0
REMARK                            x       y       z     vdW  Elec       q    Type
REMARK                         _______ _______ _______ _____ _____    ______ ____
ROOT
ATOM      1  C   LIG    1        4.170   4.976  -1.455  0.00  0.00    +0.520 C 
ATOM      2  N   LIG    1        4.737   5.327  -2.626  0.00  0.00    -0.620 N 
ATOM      3  C   LIG    1        4.109   4.959  -3.902  0.00  0.00    +0.280 C 
ATOM      4  C   LIG    1        5.132   4.225  -4.768  0.00  0.00    +0.040 C 
ATOM      5  C   LIG    1        6.388   5.087  -4.910  0.00  0.00    -0.030 C 
ATOM      6  C   LIG    1        7.004   5.327  -3.530  0.00  0.00    +0.040 C 
ATOM      7  C   LIG    1        5.999   6.079  -2.651  0.00  0.00    +0.280 C 
ATOM      8  O   LIG    1        4.701   5.281  -0.408  0.00  0.00    -0.540 OA
ENDROOT
BRANCH   5   9
ATOM      9  C   LIG    1        7.386   4.378  -5.789  0.00  0.00    +0.400 C 
ATOM     10  O   LIG    1        8.204   3.629  -5.296  0.00  0.00    -0.440 OA
BRANCH   9  11
ATOM     11  C   LIG    1        7.370   4.593  -7.242  0.00  0.00    -0.180 A 
ATOM     12  C   LIG    1        6.423   5.453  -7.813  0.00  0.00    +0.090 A 
ATOM     13  C   LIG    1        6.415   5.655  -9.170  0.00  0.00    -0.020 A 
ATOM     14  C   LIG    1        7.338   4.999  -9.978  0.00  0.00    +0.140 A 
ATOM     15  C   LIG    1        8.276   4.141  -9.416  0.00  0.00    -0.020 A 
ATOM     16  C   LIG    1        8.296   3.936  -8.060  0.00  0.00    +0.100 A 
BRANCH  14  17
ATOM     17  O   LIG    1        7.322   5.198 -11.320  0.00  0.00    -0.500 OA
ATOM     18  H   LIG    1        6.755   4.580 -11.802  0.00  0.00    +0.400 HD
ENDBRANCH  14  17
ENDBRANCH   9  11
ENDBRANCH   5   9
BRANCH   1  19
ATOM     19  C   LIG    1        2.875   4.205  -1.446  0.00  0.00    +0.060 C 
BRANCH  19  20
ATOM     20  C   LIG    1        2.451   3.937  -0.001  0.00  0.00    +0.100 C 
BRANCH  20  25
ATOM     21  C   LIG    1       -2.514   0.980   0.019  0.00  0.00    +0.090 C 
ATOM     22  C   LIG    1       -1.219   1.751   0.017  0.00  0.00    -0.090 A 
ATOM     23  C   LIG    1       -0.013   1.076   0.008  0.00  0.00    +0.000 A 
ATOM     24  C   LIG    1        1.175   1.783   0.000  0.00  0.00    +0.010 A 
ATOM     25  C   LIG    1        1.156   3.165   0.008  0.00  0.00    -0.090 A 
ATOM     26  C   LIG    1       -0.050   3.840   0.022  0.00  0.00    +0.010 A 
ATOM     27  C   LIG    1       -1.238   3.133   0.030  0.00  0.00    +0.000 A 
ENDBRANCH  20  25
ENDBRANCH  19  20
ENDBRANCH   1  19
TORSDOF 6
