REMARK  Name = ZINCqH00000055zO.1
REMARK                            x       y       z     vdW  Elec       q    Type
REMARK                         _______ _______ _______ _____ _____    ______ ____
ROOT
ATOM      1  N   LIG    1       -0.793   1.634  -2.445  0.00  0.00    -0.720 N 
ATOM      2  H   LIG    1       -0.166   0.905  -2.312  0.00  0.00    +0.410 HD
ATOM      3  C   LIG    1       -1.404   2.199  -1.385  0.00  0.00    +0.510 C 
ATOM      4  O   LIG    1       -2.187   3.110  -1.551  0.00  0.00    -0.510 OA
ENDROOT
BRANCH   1   5
ATOM      5  C   LIG    1       -1.075   2.120  -3.798  0.00  0.00    +0.280 C 
BRANCH   5   6
ATOM      6  C   LIG    1       -0.257   1.315  -4.810  0.00  0.00    +0.230 C 
BRANCH   6   7
ATOM      7  C   LIG    1       -0.638   1.730  -6.207  0.00  0.00    -0.140 A 
ATOM      8  C   LIG    1        0.263   2.123  -7.109  0.00  0.00    -0.030 A 
ATOM      9  S   LIG    1       -0.549   2.525  -8.617  0.00  0.00    +0.110 S 
ATOM     10  C   LIG    1       -2.113   2.133  -7.914  0.00  0.00    -0.040 A 
ATOM     11  C   LIG    1       -1.949   1.738  -6.651  0.00  0.00    +0.010 A 
ENDBRANCH   6   7
BRANCH   6  13
ATOM     12  C   LIG    1       -1.962  -0.405  -4.813  0.00  0.00    +0.180 C 
ATOM     13  N   LIG    1       -0.533  -0.118  -4.633  0.00  0.00    -0.530 NA
ATOM     14  C   LIG    1        0.287  -0.928  -5.544  0.00  0.00    +0.190 C 
ENDBRANCH   6  13
ENDBRANCH   5   6
ENDBRANCH   1   5
BRANCH   3  15
ATOM     15  C   LIG    1       -1.114   1.699   0.007  0.00  0.00    +0.230 C 
BRANCH  15  16
ATOM     16  O   LIG    1       -1.877   2.451   0.952  0.00  0.00    -0.260 OA
BRANCH  16  17
ATOM     17  C   LIG    1       -1.731   2.124   2.263  0.00  0.00    +0.170 A 
ATOM     18  C   LIG    1       -0.889   1.114   2.628  0.00  0.00    -0.060 A 
ATOM     19  C   LIG    1       -0.721   0.768   3.966  0.00  0.00    +0.080 A 
ATOM     20  C   LIG    1       -1.402   1.422   4.949  0.00  0.00    -0.060 A 
ATOM     21  C   LIG    1       -2.282   2.464   4.612  0.00  0.00    -0.060 A 
ATOM     22  C   LIG    1       -3.002   3.162   5.598  0.00  0.00    +0.080 A 
ATOM     23  C   LIG    1       -3.841   4.164   5.197  0.00  0.00    -0.010 A 
ATOM     24  C   LIG    1       -3.962   4.467   3.842  0.00  0.00    +0.290 A 
ATOM     25  N   LIG    1       -3.289   3.814   2.926  0.00  0.00    -0.440 NA
ATOM     26 CL   LIG    1       -1.182   0.970   6.611  0.00  0.00    -0.060 Cl
ATOM     27  C   LIG    1       -2.453   2.824   3.252  0.00  0.00    +0.120 A 
ENDBRANCH  16  17
ENDBRANCH  15  16
ENDBRANCH   3  15
TORSDOF 7
