REMARK  Name = ZINCrH000004qP8q.0
REMARK                            x       y       z     vdW  Elec       q    Type
REMARK                         _______ _______ _______ _____ _____    ______ ____
ROOT
ATOM      1  N   LIG    1       -3.209   3.129   4.171  0.00  0.00    -0.740 N 
ATOM      2  H   LIG    1       -3.144   2.719   5.048  0.00  0.00    +0.400 HD
ENDROOT
BRANCH   1   6
ATOM      3  C   LIG    1        0.627   0.459   2.591  0.00  0.00    +0.110 C 
ATOM      4  C   LIG    1       -0.459   1.481   2.376  0.00  0.00    -0.050 A 
ATOM      5  C   LIG    1       -1.323   1.812   3.404  0.00  0.00    -0.020 A 
ATOM      6  C   LIG    1       -2.312   2.763   3.159  0.00  0.00    +0.170 A 
ATOM      7  C   LIG    1       -2.397   3.343   1.903  0.00  0.00    +0.180 A 
ATOM      8  N   LIG    1       -1.552   3.008   0.947  0.00  0.00    -0.470 NA
ATOM      9  C   LIG    1       -0.604   2.105   1.141  0.00  0.00    +0.240 A 
BRANCH   9  10
ATOM     10  N   LIG    1        0.262   1.780   0.099  0.00  0.00    -0.470 N 
ATOM     11  C   LIG    1        1.111   2.924  -0.256  0.00  0.00    +0.170 C 
ATOM     12  C   LIG    1        2.144   2.490  -1.299  0.00  0.00    +0.020 C 
ATOM     13  C   LIG    1        1.418   1.964  -2.540  0.00  0.00    +0.010 C 
ATOM     14  C   LIG    1        0.504   0.805  -2.135  0.00  0.00    +0.030 C 
ATOM     15  C   LIG    1       -0.481   1.288  -1.068  0.00  0.00    +0.140 C 
ATOM     16  C   LIG    1       -1.384   0.127  -0.645  0.00  0.00    +0.030 C 
ENDBRANCH   9  10
ENDBRANCH   1   6
BRANCH   1  17
ATOM     17  C   LIG    1       -4.245   4.130   3.905  0.00  0.00    +0.310 C 
BRANCH  17  18
ATOM     18  C   LIG    1       -5.071   4.341   5.148  0.00  0.00    -0.100 A 
ATOM     19  C   LIG    1       -4.700   5.305   6.066  0.00  0.00    +0.050 A 
ATOM     20  C   LIG    1       -5.453   5.506   7.209  0.00  0.00    +0.030 A 
ATOM     21  C   LIG    1       -6.581   4.738   7.434  0.00  0.00    +0.090 A 
ATOM     22  O   LIG    1       -7.334   4.923   8.552  0.00  0.00    -0.300 OA
ATOM     23  C   LIG    1       -8.740   4.697   8.424  0.00  0.00    +0.300 C 
ATOM     24  C   LIG    1       -8.982   3.404   7.687  0.00  0.00    +0.490 C 
ATOM     25  N   LIG    1       -8.100   2.992   6.750  0.00  0.00    -0.660 N 
ATOM     26  H   LIG    1       -8.257   2.175   6.253  0.00  0.00    +0.420 HD
ATOM     27  O   LIG    1       -9.963   2.737   7.935  0.00  0.00    -0.500 OA
ATOM     28  C   LIG    1       -6.955   3.765   6.509  0.00  0.00    +0.090 A 
ATOM     29  C   LIG    1       -6.201   3.573   5.364  0.00  0.00    +0.040 A 
ENDBRANCH  17  18
ENDBRANCH   1  17
TORSDOF 4
