REMARK  Name = ZINCAx0000000iRC.0
REMARK                            x       y       z     vdW  Elec       q    Type
REMARK                         _______ _______ _______ _____ _____    ______ ____
ROOT
ATOM      1  N   LIG    1       -2.956   8.356   0.195  0.00  0.00    -0.400 N 
ATOM      2  C   LIG    1       -2.656   9.012   1.347  0.00  0.00    +0.470 A 
ATOM      3  N   LIG    1       -2.267  10.239   1.063  0.00  0.00    -0.510 NA
ATOM      4  C   LIG    1       -2.303  10.435  -0.256  0.00  0.00    +0.330 A 
ATOM      5  N   LIG    1       -2.008  11.516  -1.070  0.00  0.00    -0.510 N 
ATOM      6  C   LIG    1       -1.546  12.774  -0.478  0.00  0.00    +0.350 C 
ATOM      7  C   LIG    1       -2.145  11.412  -2.406  0.00  0.00    +0.710 A 
ATOM      8  O   LIG    1       -1.882  12.371  -3.106  0.00  0.00    -0.530 OA
ATOM      9  N   LIG    1       -2.566  10.274  -2.984  0.00  0.00    -0.550 N 
ATOM     10  C   LIG    1       -2.697  10.211  -4.442  0.00  0.00    +0.350 C 
ATOM     11  C   LIG    1       -2.868   9.188  -2.242  0.00  0.00    +0.590 A 
ATOM     12  O   LIG    1       -3.249   8.162  -2.779  0.00  0.00    -0.510 OA
ATOM     13  C   LIG    1       -2.739   9.252  -0.844  0.00  0.00    -0.150 A 
ENDROOT
BRANCH   2  14
ATOM     14  N   LIG    1       -2.743   8.478   2.612  0.00  0.00    -0.460 N 
ATOM     15  C   LIG    1       -1.467   7.873   3.016  0.00  0.00    +0.200 C 
ATOM     16  C   LIG    1       -1.641   7.164   4.361  0.00  0.00    +0.050 C 
ATOM     17  C   LIG    1       -2.101   8.178   5.411  0.00  0.00    -0.010 C 
ATOM     18  C   LIG    1       -3.406   8.829   4.944  0.00  0.00    +0.050 C 
ATOM     19  C   LIG    1       -3.182   9.489   3.582  0.00  0.00    +0.210 C 
BRANCH  17  20
ATOM     20  C   LIG    1       -2.335   7.463   6.744  0.00  0.00    +0.080 C 
BRANCH  20  21
ATOM     21  C   LIG    1       -1.026   6.929   7.264  0.00  0.00    -0.080 A 
ATOM     22  C   LIG    1       -0.615   5.654   6.923  0.00  0.00    +0.000 A 
ATOM     23  C   LIG    1        0.588   5.165   7.395  0.00  0.00    +0.000 A 
ATOM     24  C   LIG    1        1.377   5.948   8.218  0.00  0.00    -0.010 A 
ATOM     25  C   LIG    1        0.964   7.221   8.563  0.00  0.00    +0.000 A 
ATOM     26  C   LIG    1       -0.237   7.712   8.086  0.00  0.00    +0.000 A 
ENDBRANCH  20  21
ENDBRANCH  17  20
ENDBRANCH   2  14
BRANCH   1  27
ATOM     27  C   LIG    1       -3.424   6.973   0.072  0.00  0.00    +0.350 C 
BRANCH  27  28
ATOM     28  C   LIG    1       -2.233   6.056  -0.211  0.00  0.00    +0.080 C 
BRANCH  28  29
ATOM     29  S   LIG    1       -2.789   4.333  -0.226  0.00  0.00    +0.040 S 
BRANCH  29  35
ATOM     30  C   LIG    1       -0.091   0.057  -1.020  0.00  0.00    +0.150 C 
ATOM     31  C   LIG    1       -0.109   1.560  -0.913  0.00  0.00    +0.190 A 
ATOM     32  C   LIG    1        1.058   2.289  -1.079  0.00  0.00    -0.090 A 
ATOM     33  C   LIG    1        0.999   3.670  -0.973  0.00  0.00    +0.340 A 
ATOM     34  N   LIG    1       -0.163   4.248  -0.718  0.00  0.00    -0.530 NA
ATOM     35  C   LIG    1       -1.262   3.522  -0.564  0.00  0.00    +0.300 A 
ATOM     36  N   LIG    1       -1.240   2.200  -0.665  0.00  0.00    -0.500 NA
ENDBRANCH  29  35
ENDBRANCH  28  29
ENDBRANCH  27  28
ENDBRANCH   1  27
TORSDOF 7
