REMARK  Name = ZINCkj00000GeNSv.0
REMARK                            x       y       z     vdW  Elec       q    Type
REMARK                         _______ _______ _______ _____ _____    ______ ____
ROOT
ATOM      1  N   LIG    1       -3.107   1.028   1.359  0.00  0.00    -0.500 N 
ATOM      2  H   LIG    1       -3.288   1.989   1.612  0.00  0.00    +0.430 HD
ATOM      3  H   LIG    1       -2.471   0.619   2.027  0.00  0.00    +0.440 HD
ENDROOT
BRANCH   1   4
ATOM      4  C   LIG    1       -4.370   0.277   1.361  0.00  0.00    +0.170 C 
ATOM      5  C   LIG    1       -4.930   0.222   2.785  0.00  0.00    +0.070 C 
ATOM      6  C   LIG    1       -6.116  -0.749   2.826  0.00  0.00    +0.210 C 
ATOM      7  C   LIG    1       -7.041  -0.412   1.681  0.00  0.00    +0.270 A 
ATOM      8  N   LIG    1       -8.278  -0.786   1.515  0.00  0.00    -0.520 NA
ATOM      9  C   LIG    1       -8.753  -0.278   0.376  0.00  0.00    +0.450 A 
ATOM     10  N   LIG    1       -7.814   0.431  -0.199  0.00  0.00    -0.300 NA
ATOM     11  N   LIG    1       -6.692   0.356   0.631  0.00  0.00    -0.390 N 
ATOM     12  C   LIG    1       -5.379   0.972   0.440  0.00  0.00    +0.350 C 
ENDBRANCH   1   4
BRANCH   1  13
ATOM     13  C   LIG    1       -2.509   0.979   0.019  0.00  0.00    +0.340 C 
BRANCH  13  18
ATOM     14  C   LIG    1        1.187   1.792   0.000  0.00  0.00    -0.010 A 
ATOM     15  C   LIG    1        1.160   3.188   0.008  0.00  0.00    +0.150 A 
ATOM     16  C   LIG    1       -0.048   3.852   0.023  0.00  0.00    +0.020 A 
ATOM     17  C   LIG    1       -1.235   3.136   0.031  0.00  0.00    +0.140 A 
ATOM     18  C   LIG    1       -1.215   1.750   0.017  0.00  0.00    -0.200 A 
ATOM     19  F   LIG    1       -2.416   3.792   0.046  0.00  0.00    -0.130 F 
ATOM     20  C   LIG    1       -0.013   1.076   0.008  0.00  0.00    +0.150 A 
BRANCH  14  22
ATOM     21  N   LIG    1        3.432   0.546  -0.027  0.00  0.00    -0.370 NA
ATOM     22  C   LIG    1        2.439   1.097  -0.015  0.00  0.00    +0.230 C 
ENDBRANCH  14  22
ENDBRANCH  13  18
ENDBRANCH   1  13
TORSDOF 4
