REMARK  Name = ZINCpe000000Xa8m.2
REMARK                            x       y       z     vdW  Elec       q    Type
REMARK                         _______ _______ _______ _____ _____    ______ ____
ROOT
ATOM      1  C   LIG    1       -1.596  -1.423  -0.990  0.00  0.00    +0.070 C 
ATOM      2  C   LIG    1       -0.776  -0.744  -2.089  0.00  0.00    +0.130 C 
ENDROOT
BRANCH   2   3
ATOM      3  C   LIG    1       -1.010   0.744  -2.043  0.00  0.00    +0.520 C 
ATOM      4  N   LIG    1       -0.266   1.519  -1.230  0.00  0.00    -0.620 N 
ATOM      5  C   LIG    1        0.704   0.918  -0.304  0.00  0.00    +0.260 C 
ATOM      6  C   LIG    1        0.423   1.431   1.112  0.00  0.00    +0.020 C 
ATOM      7  C   LIG    1        0.423   2.962   1.103  0.00  0.00    +0.030 C 
ATOM      8  C   LIG    1       -0.680   3.472   0.173  0.00  0.00    -0.020 C 
ATOM      9  C   LIG    1       -0.408   2.981  -1.252  0.00  0.00    +0.310 C 
ATOM     10  O   LIG    1       -1.869   1.244  -2.738  0.00  0.00    -0.510 OA
BRANCH   8  11
ATOM     11  C   LIG    1       -0.696   4.979   0.191  0.00  0.00    +0.530 C 
ATOM     12  O   LIG    1       -0.509   5.600  -0.833  0.00  0.00    -0.540 OA
ATOM     13  N   LIG    1       -0.919   5.637   1.347  0.00  0.00    -0.850 N 
ATOM     14  H   LIG    1       -0.930   6.606   1.358  0.00  0.00    +0.400 HD
ATOM     15  H   LIG    1       -1.069   5.140   2.166  0.00  0.00    +0.400 HD
ENDBRANCH   8  11
ENDBRANCH   2   3
BRANCH   2  16
ATOM     16  N   LIG    1       -1.187  -1.264  -3.399  0.00  0.00    -0.510 NA
ATOM     17  C   LIG    1       -0.535  -0.547  -4.468  0.00  0.00    +0.170 C 
ATOM     18  C   LIG    1       -1.483  -0.299  -5.658  0.00  0.00    +0.050 C 
ATOM     19  C   LIG    1       -2.365  -1.526  -5.968  0.00  0.00    +0.020 C 
ATOM     20  C   LIG    1       -1.615  -2.827  -5.887  0.00  0.00    +0.110 C 
ATOM     21  C   LIG    1       -1.755  -3.397  -4.458  0.00  0.00    +0.080 C 
ATOM     22  C   LIG    1       -0.882  -2.706  -3.516  0.00  0.00    +0.200 C 
BRANCH  20  23
ATOM     23  C   LIG    1       -2.196  -3.821  -6.895  0.00  0.00    +0.420 C 
ATOM     24  F   LIG    1       -1.503  -5.033  -6.807  0.00  0.00    -0.180 F 
ATOM     25  F   LIG    1       -2.067  -3.303  -8.188  0.00  0.00    -0.180 F 
ATOM     26  F   LIG    1       -3.549  -4.035  -6.611  0.00  0.00    -0.180 F 
ENDBRANCH  20  23
BRANCH  20  27
ATOM     27  O   LIG    1       -0.234  -2.602  -6.179  0.00  0.00    -0.530 OA
ATOM     28  H   LIG    1       -0.072  -2.244  -7.063  0.00  0.00    +0.390 HD
ENDBRANCH  20  27
ENDBRANCH   2  16
TORSDOF 5
