REMARK  Name = ZINCvU0000000Gp0.0
REMARK                            x       y       z     vdW  Elec       q    Type
REMARK                         _______ _______ _______ _____ _____    ______ ____
ROOT
ATOM      1  N   LIG    1       -0.297   5.924  -1.592  0.00  0.00    -0.600 N 
ATOM      2  C   LIG    1       -1.527   5.970  -2.141  0.00  0.00    +0.530 C 
ATOM      3  O   LIG    1       -1.652   6.149  -3.334  0.00  0.00    -0.500 OA
ENDROOT
BRANCH   2   4
ATOM      4  C   LIG    1       -2.747   5.797  -1.274  0.00  0.00    +0.040 C 
ATOM      5  C   LIG    1       -3.842   5.000  -2.009  0.00  0.00    +0.120 C 
ATOM      6  C   LIG    1       -4.746   5.930  -2.779  0.00  0.00    -0.090 A 
ATOM      7  C   LIG    1       -5.573   5.596  -3.852  0.00  0.00    +0.030 A 
ATOM      8  C   LIG    1       -6.358   6.546  -4.467  0.00  0.00    +0.010 A 
ATOM      9  C   LIG    1       -6.345   7.858  -4.031  0.00  0.00    +0.020 A 
ATOM     10  C   LIG    1       -5.532   8.210  -2.972  0.00  0.00    +0.040 A 
ATOM     11  C   LIG    1       -4.738   7.253  -2.355  0.00  0.00    -0.100 A 
ATOM     12  S   LIG    1       -3.597   7.398  -1.004  0.00  0.00    -0.070 S 
ENDBRANCH   2   4
BRANCH   1  13
ATOM     13  C   LIG    1        0.883   6.211  -2.412  0.00  0.00    +0.280 C 
ATOM     14  C   LIG    1        2.148   5.979  -1.583  0.00  0.00    +0.050 C 
BRANCH  13  19
ATOM     15  C   LIG    1        1.089   9.281  -4.606  0.00  0.00    +0.140 A 
ATOM     16  C   LIG    1        0.756  10.284  -3.706  0.00  0.00    +0.010 A 
ATOM     17  C   LIG    1        0.466   9.964  -2.394  0.00  0.00    +0.020 A 
ATOM     18  C   LIG    1        0.508   8.647  -1.977  0.00  0.00    +0.010 A 
ATOM     19  C   LIG    1        0.839   7.645  -2.871  0.00  0.00    -0.080 A 
ATOM     20  C   LIG    1        1.134   7.959  -4.183  0.00  0.00    +0.000 A 
BRANCH  15  23
ATOM     21  C   LIG    1        2.225  11.157  -7.665  0.00  0.00    +0.110 C 
ATOM     22  C   LIG    1        2.011  10.758  -6.228  0.00  0.00    +0.510 C 
ATOM     23  N   LIG    1        1.383   9.601  -5.936  0.00  0.00    -0.680 N 
ATOM     24  H   LIG    1        1.135   8.991  -6.649  0.00  0.00    +0.410 HD
ATOM     25  O   LIG    1        2.405  11.476  -5.334  0.00  0.00    -0.530 OA
ENDBRANCH  15  23
ENDBRANCH  13  19
ENDBRANCH   1  13
BRANCH   1  26
ATOM     26  C   LIG    1       -0.140   5.588  -0.174  0.00  0.00    +0.330 C 
BRANCH  26  27
ATOM     27  C   LIG    1       -0.292   6.835   0.657  0.00  0.00    -0.110 A 
ATOM     28  C   LIG    1       -1.549   7.255   1.050  0.00  0.00    +0.010 A 
ATOM     29  C   LIG    1       -1.688   8.399   1.814  0.00  0.00    +0.010 A 
ATOM     30  C   LIG    1       -0.570   9.123   2.185  0.00  0.00    +0.010 A 
ATOM     31  C   LIG    1        0.686   8.706   1.787  0.00  0.00    +0.000 A 
ATOM     32  C   LIG    1        0.826   7.559   1.028  0.00  0.00    +0.020 A 
ENDBRANCH  26  27
ENDBRANCH   1  26
TORSDOF 6
