REMARK  Name = ZINCtV00000L6jjV.0
REMARK                            x       y       z     vdW  Elec       q    Type
REMARK                         _______ _______ _______ _____ _____    ______ ____
ROOT
ATOM      1  C   LIG    1       -2.759   5.955  -0.058  0.00  0.00    +0.160 A 
ATOM      2  N   LIG    1       -1.593   6.563  -0.054  0.00  0.00    -0.280 NA
ATOM      3  N   LIG    1       -1.756   7.830   0.087  0.00  0.00    -0.240 NA
ATOM      4  C   LIG    1       -3.034   8.111   0.192  0.00  0.00    +0.230 A 
ATOM      5  N   LIG    1       -3.718   6.918   0.102  0.00  0.00    -0.410 N 
ENDROOT
BRANCH   4   6
ATOM      6  C   LIG    1       -3.628   9.452   0.372  0.00  0.00    -0.020 A 
ATOM      7  C   LIG    1       -4.607   9.660   1.344  0.00  0.00    +0.050 A 
ATOM      8  C   LIG    1       -5.153  10.917   1.511  0.00  0.00    +0.030 A 
ATOM      9  C   LIG    1       -4.740  11.966   0.710  0.00  0.00    +0.050 A 
ATOM     10  C   LIG    1       -3.773  11.767  -0.260  0.00  0.00    +0.030 A 
ATOM     11  C   LIG    1       -3.215  10.516  -0.434  0.00  0.00    +0.000 A 
ATOM     12 CL   LIG    1       -2.002  10.267  -1.651  0.00  0.00    -0.040 Cl
ENDBRANCH   4   6
BRANCH   5  13
ATOM     13  C   LIG    1       -5.106   6.729   0.163  0.00  0.00    +0.100 A 
ATOM     14  C   LIG    1       -5.919   7.226  -0.847  0.00  0.00    +0.060 A 
ATOM     15  C   LIG    1       -7.286   7.035  -0.788  0.00  0.00    +0.060 A 
ATOM     16  C   LIG    1       -7.845   6.358   0.282  0.00  0.00    -0.020 A 
ATOM     17  C   LIG    1       -7.037   5.867   1.292  0.00  0.00    +0.060 A 
ATOM     18 CL   LIG    1       -9.564   6.125   0.357  0.00  0.00    -0.050 Cl
ATOM     19  C   LIG    1       -5.669   6.051   1.235  0.00  0.00    +0.050 A 
ENDBRANCH   5  13
BRANCH   1  20
ATOM     20  S   LIG    1       -3.033   4.223  -0.230  0.00  0.00    +0.070 S 
BRANCH  20  21
ATOM     21  C   LIG    1       -1.325   3.648  -0.392  0.00  0.00    +0.110 C 
BRANCH  21  23
ATOM     22  O   LIG    1       -2.356   1.532  -0.562  0.00  0.00    -0.430 OA
ATOM     23  C   LIG    1       -1.312   2.150  -0.555  0.00  0.00    +0.420 C 
BRANCH  23  24
ATOM     24  C   LIG    1       -0.034   1.437  -0.707  0.00  0.00    -0.170 A 
ATOM     25  C   LIG    1        1.171   2.147  -0.705  0.00  0.00    +0.070 A 
ATOM     26  C   LIG    1        2.365   1.473  -0.854  0.00  0.00    +0.000 A 
ATOM     27  C   LIG    1        2.372   0.097  -1.003  0.00  0.00    +0.050 A 
ATOM     28  C   LIG    1        1.184  -0.613  -1.006  0.00  0.00    +0.000 A 
ATOM     29  C   LIG    1       -0.018   0.047  -0.858  0.00  0.00    +0.080 A 
ENDBRANCH  23  24
ENDBRANCH  21  23
ENDBRANCH  20  21
ENDBRANCH   1  20
TORSDOF 6
