REMARK  Name = ZINCrg00000SjSuL.0
REMARK                            x       y       z     vdW  Elec       q    Type
REMARK                         _______ _______ _______ _____ _____    ______ ____
ROOT
ATOM      1  N   LIG    1       -0.018   1.461   0.010  0.00  0.00    -0.720 N 
ATOM      2  H   LIG    1       -0.864   1.934   0.017  0.00  0.00    +0.400 HD
ATOM      3  C   LIG    1        1.140   2.151   0.003  0.00  0.00    +0.560 C 
ATOM      4  O   LIG    1        2.201   1.557  -0.011  0.00  0.00    -0.520 OA
ENDROOT
BRANCH   3   5
ATOM      5  C   LIG    1        1.120   3.629   0.011  0.00  0.00    -0.160 A 
ATOM      6  C   LIG    1       -0.096   4.313   0.020  0.00  0.00    +0.100 A 
ATOM      7  C   LIG    1       -0.108   5.693   0.033  0.00  0.00    +0.000 A 
ATOM      8  C   LIG    1        1.083   6.398   0.026  0.00  0.00    +0.160 A 
ATOM      9  C   LIG    1        2.292   5.725   0.010  0.00  0.00    -0.690 A 
ATOM     10  C   LIG    1        2.318   4.346   0.003  0.00  0.00    +0.200 A 
BRANCH   9  11
ATOM     11  S   LIG    1        3.802   6.633   0.001  0.00  0.00    +2.690 S 
ATOM     12  O   LIG    1        4.795   5.765   0.532  0.00  0.00    -0.940 OA
ATOM     13  O   LIG    1        3.508   7.908   0.554  0.00  0.00    -0.950 OA
BRANCH  11  14
ATOM     14  N   LIG    1        4.208   6.893  -1.583  0.00  0.00    -1.000 NA
ATOM     15  C   LIG    1        5.040   5.921  -2.296  0.00  0.00    +0.300 C 
ATOM     16  C   LIG    1        3.734   8.096  -2.273  0.00  0.00    +0.300 C 
ENDBRANCH  11  14
ENDBRANCH   9  11
ENDBRANCH   3   5
BRANCH   1  18
ATOM     17  C   LIG    1        0.121  -0.505  -1.439  0.00  0.00    +0.040 C 
ATOM     18  C   LIG    1        0.002  -0.004   0.002  0.00  0.00    +0.290 C 
BRANCH  18  19
ATOM     19  C   LIG    1       -1.273  -0.527   0.612  0.00  0.00    -0.030 A 
ATOM     20  C   LIG    1       -2.476   0.096   0.338  0.00  0.00    -0.010 A 
ATOM     21  C   LIG    1       -3.646  -0.387   0.894  0.00  0.00    +0.140 A 
ATOM     22  C   LIG    1       -3.612  -1.486   1.731  0.00  0.00    -0.680 A 
ATOM     23  C   LIG    1       -2.408  -2.106   2.009  0.00  0.00    +0.140 A 
ATOM     24  C   LIG    1       -1.238  -1.626   1.449  0.00  0.00    +0.010 A 
BRANCH  22  25
ATOM     25  S   LIG    1       -5.103  -2.098   2.444  0.00  0.00    +2.700 S 
ATOM     26  O   LIG    1       -4.866  -3.463   2.760  0.00  0.00    -0.960 OA
ATOM     27  O   LIG    1       -6.159  -1.668   1.597  0.00  0.00    -0.960 OA
BRANCH  25  28
ATOM     28  N   LIG    1       -5.313  -1.314   3.888  0.00  0.00    -1.250 NA
ATOM     29  H   LIG    1       -6.085  -1.513   4.440  0.00  0.00    +0.420 HD
ATOM     30  H   LIG    1       -4.664  -0.656   4.182  0.00  0.00    +0.420 HD
ENDBRANCH  25  28
ENDBRANCH  22  25
ENDBRANCH  18  19
ENDBRANCH   1  18
TORSDOF 7
