REMARK  Name = ZINCrm000010ldpl.0
REMARK                            x       y       z     vdW  Elec       q    Type
REMARK                         _______ _______ _______ _____ _____    ______ ____
ROOT
ATOM      1  O   LIG    1       -0.477   7.043  -1.666  0.00  0.00    -0.890 OA
ATOM      2  S   LIG    1       -1.745   6.588  -2.117  0.00  0.00    +2.440 S 
ATOM      3  O   LIG    1       -1.932   6.310  -3.498  0.00  0.00    -0.890 OA
ENDROOT
BRANCH   2   4
ATOM      4  C   LIG    1       -2.201   5.112  -1.164  0.00  0.00    -0.350 C 
BRANCH   4   5
ATOM      5  C   LIG    1       -1.226   3.977  -1.484  0.00  0.00    +0.300 C 
BRANCH   5   6
ATOM      6  N   LIG    1       -1.595   2.783  -0.713  0.00  0.00    -0.380 N 
ATOM      7  C   LIG    1       -1.423   3.050   0.732  0.00  0.00    +0.250 C 
ATOM      8  C   LIG    1       -0.911   1.711   1.327  0.00  0.00    +0.080 C 
ATOM      9  C   LIG    1        0.009   1.196   0.188  0.00  0.00    +0.090 C 
ATOM     10  C   LIG    1       -0.720   1.661  -1.087  0.00  0.00    +0.050 C 
ATOM     11  C   LIG    1       -1.553   0.510  -1.651  0.00  0.00    +0.030 C 
ATOM     12  C   LIG    1       -0.617  -0.621  -2.088  0.00  0.00    +0.250 C 
ATOM     13  O   LIG    1        0.320  -0.118  -3.043  0.00  0.00    -0.360 OA
ATOM     14  C   LIG    1        1.164   0.921  -2.543  0.00  0.00    +0.250 C 
ATOM     15  C   LIG    1        0.305   2.118  -2.126  0.00  0.00    +0.020 C 
ATOM     16  H   LIG    1       -2.557   2.541  -0.901  0.00  0.00    +0.430 HD
ENDBRANCH   5   6
ENDBRANCH   4   5
ENDBRANCH   2   4
BRANCH   2  17
ATOM     17  C   LIG    1       -3.008   7.778  -1.590  0.00  0.00    -0.350 C 
BRANCH  17  18
ATOM     18  C   LIG    1       -2.781   9.112  -2.305  0.00  0.00    +0.300 C 
BRANCH  18  19
ATOM     19  N   LIG    1       -3.804  10.077  -1.879  0.00  0.00    -0.380 N 
ATOM     20  C   LIG    1       -3.619  10.399  -0.450  0.00  0.00    +0.250 C 
ATOM     21  C   LIG    1       -3.372  11.920  -0.354  0.00  0.00    +0.080 C 
ATOM     22  C   LIG    1       -3.993  12.461  -1.669  0.00  0.00    +0.090 C 
ATOM     23  C   LIG    1       -3.669  11.319  -2.658  0.00  0.00    +0.050 C 
ATOM     24  C   LIG    1       -4.663  11.337  -3.815  0.00  0.00    +0.030 C 
ATOM     25  C   LIG    1       -4.467  12.620  -4.628  0.00  0.00    +0.250 C 
ATOM     26  O   LIG    1       -3.112  12.695  -5.074  0.00  0.00    -0.360 OA
ATOM     27  C   LIG    1       -2.149  12.751  -4.019  0.00  0.00    +0.250 C 
ATOM     28  C   LIG    1       -2.244  11.473  -3.179  0.00  0.00    +0.020 C 
ATOM     29  H   LIG    1       -4.722   9.685  -2.022  0.00  0.00    +0.430 HD
ENDBRANCH  18  19
ENDBRANCH  17  18
ENDBRANCH   2  17
TORSDOF 6
