REMARK  Name = ZINCrm000010ldpl.1
REMARK                            x       y       z     vdW  Elec       q    Type
REMARK                         _______ _______ _______ _____ _____    ______ ____
ROOT
ATOM      1  O   LIG    1        0.138  -0.401   5.244  0.00  0.00    -0.890 OA
ATOM      2  S   LIG    1        0.779  -0.853   4.059  0.00  0.00    +2.440 S 
ATOM      3  O   LIG    1        0.336  -2.055   3.445  0.00  0.00    -0.890 OA
ENDROOT
BRANCH   2   4
ATOM      4  C   LIG    1        0.724   0.479   2.828  0.00  0.00    -0.350 C 
BRANCH   4   5
ATOM      5  C   LIG    1       -0.729   0.742   2.426  0.00  0.00    +0.300 C 
BRANCH   5   6
ATOM      6  N   LIG    1       -0.774   1.820   1.429  0.00  0.00    -0.380 N 
ATOM      7  C   LIG    1       -0.085   1.385   0.194  0.00  0.00    +0.250 C 
ATOM      8  C   LIG    1       -0.901   2.018  -0.960  0.00  0.00    +0.080 C 
ATOM      9  C   LIG    1       -2.352   1.903  -0.420  0.00  0.00    +0.090 C 
ATOM     10  C   LIG    1       -2.175   2.130   1.093  0.00  0.00    +0.050 C 
ATOM     11  C   LIG    1       -3.117   1.207   1.865  0.00  0.00    +0.020 C 
ATOM     12  C   LIG    1       -4.566   1.588   1.548  0.00  0.00    +0.250 C 
ATOM     13  O   LIG    1       -4.777   2.964   1.873  0.00  0.00    -0.360 OA
ATOM     14  C   LIG    1       -3.959   3.872   1.132  0.00  0.00    +0.250 C 
ATOM     15  C   LIG    1       -2.485   3.589   1.432  0.00  0.00    +0.030 C 
ATOM     16  H   LIG    1       -0.321   2.642   1.799  0.00  0.00    +0.430 HD
ENDBRANCH   5   6
ENDBRANCH   4   5
ENDBRANCH   2   4
BRANCH   2  17
ATOM     17  C   LIG    1        2.559  -0.991   4.382  0.00  0.00    -0.350 C 
BRANCH  17  18
ATOM     18  C   LIG    1        2.805  -2.088   5.419  0.00  0.00    +0.300 C 
BRANCH  18  19
ATOM     19  N   LIG    1        4.247  -2.200   5.681  0.00  0.00    -0.380 N 
ATOM     20  C   LIG    1        4.941  -2.656   4.457  0.00  0.00    +0.250 C 
ATOM     21  C   LIG    1        6.073  -3.583   4.967  0.00  0.00    +0.080 C 
ATOM     22  C   LIG    1        5.383  -4.292   6.163  0.00  0.00    +0.090 C 
ATOM     23  C   LIG    1        4.482  -3.187   6.746  0.00  0.00    +0.050 C 
ATOM     24  C   LIG    1        3.155  -3.795   7.202  0.00  0.00    +0.020 C 
ATOM     25  C   LIG    1        3.420  -4.774   8.350  0.00  0.00    +0.250 C 
ATOM     26  O   LIG    1        4.091  -4.092   9.411  0.00  0.00    -0.360 OA
ATOM     27  C   LIG    1        5.365  -3.556   9.049  0.00  0.00    +0.250 C 
ATOM     28  C   LIG    1        5.184  -2.525   7.931  0.00  0.00    +0.030 C 
ATOM     29  H   LIG    1        4.612  -1.302   5.963  0.00  0.00    +0.430 HD
ENDBRANCH  18  19
ENDBRANCH  17  18
ENDBRANCH   2  17
TORSDOF 6
