REMARK  Name = ZINCpe00000y9SDX.0
REMARK                            x       y       z     vdW  Elec       q    Type
REMARK                         _______ _______ _______ _____ _____    ______ ____
ROOT
ATOM      1  C   LIG    1       -2.721   0.280  -1.876  0.00  0.00    +0.510 C 
ATOM      2  N   LIG    1       -1.881   1.108  -1.224  0.00  0.00    -0.610 N 
ATOM      3  C   LIG    1       -1.497   2.395  -1.866  0.00  0.00    +0.270 C 
ATOM      4  C   LIG    1       -1.445   3.511  -0.793  0.00  0.00    +0.290 C 
ATOM      5  N   LIG    1       -2.506   3.399   0.168  0.00  0.00    -0.590 N 
ATOM      6  C   LIG    1       -2.306   2.612   1.407  0.00  0.00    +0.280 C 
ATOM      7  C   LIG    1       -2.411   1.173   1.122  0.00  0.00    +0.130 C 
ATOM      8  C   LIG    1       -3.686   4.011  -0.058  0.00  0.00    +0.610 C 
ATOM      9  O   LIG    1       -4.553   3.996   0.796  0.00  0.00    -0.510 OA
ATOM     10  C   LIG    1       -1.387   0.722   0.067  0.00  0.00    +0.320 C 
ATOM     11  O   LIG    1       -3.047  -0.773  -1.370  0.00  0.00    -0.530 OA
ENDROOT
BRANCH   8  12
ATOM     12  C   LIG    1       -3.924   4.695  -1.332  0.00  0.00    -0.100 A 
ATOM     13  C   LIG    1       -5.012   5.429  -1.648  0.00  0.00    +0.320 A 
ATOM     14  N   LIG    1       -4.841   5.891  -2.929  0.00  0.00    -0.640 N 
ATOM     15  H   LIG    1       -5.463   6.447  -3.424  0.00  0.00    +0.450 HD
ATOM     16  C   LIG    1       -3.655   5.435  -3.376  0.00  0.00    +0.610 A 
ATOM     17  O   LIG    1       -3.178   5.649  -4.474  0.00  0.00    -0.480 OA
ATOM     18  O   LIG    1       -3.087   4.707  -2.402  0.00  0.00    -0.230 OA
ENDBRANCH   8  12
BRANCH   7  19
ATOM     19  O   LIG    1       -2.188   0.441   2.329  0.00  0.00    -0.560 OA
ATOM     20  H   LIG    1       -2.796   0.670   3.045  0.00  0.00    +0.380 HD
ENDBRANCH   7  19
BRANCH   1  21
ATOM     21  C   LIG    1       -3.254   0.661  -3.232  0.00  0.00    +0.050 C 
BRANCH  21  22
ATOM     22  C   LIG    1       -4.178  -0.444  -3.747  0.00  0.00    +0.050 C 
BRANCH  22  23
ATOM     23  C   LIG    1       -4.719  -0.057  -5.125  0.00  0.00    -0.020 C 
BRANCH  23  25
ATOM     24  C   LIG    1       -2.839  -1.340  -6.153  0.00  0.00    +0.010 C 
ATOM     25  C   LIG    1       -3.565   0.006  -6.127  0.00  0.00    +0.010 C 
ENDBRANCH  23  25
BRANCH  23  26
ATOM     26  C   LIG    1       -5.738  -1.101  -5.585  0.00  0.00    +0.010 C 
ATOM     27  C   LIG    1       -6.380  -0.645  -6.897  0.00  0.00    +0.010 C 
ENDBRANCH  23  26
ENDBRANCH  22  23
ENDBRANCH  21  22
ENDBRANCH   1  21
TORSDOF 7
