REMARK  Name = ZINCqH0000008pF3.0
REMARK                            x       y       z     vdW  Elec       q    Type
REMARK                         _______ _______ _______ _____ _____    ______ ____
ROOT
ATOM      1  N   LIG    1       -2.917   0.282  -0.426  0.00  0.00    -0.730 N 
ATOM      2  H   LIG    1       -2.248  -0.412  -0.317  0.00  0.00    +0.390 HD
ATOM      3  C   LIG    1       -2.557   1.580  -0.381  0.00  0.00    +0.600 C 
ATOM      4  O   LIG    1       -3.396   2.449  -0.517  0.00  0.00    -0.520 OA
ENDROOT
BRANCH   3   5
ATOM      5  C   LIG    1       -1.147   1.945  -0.165  0.00  0.00    -0.280 A 
ATOM      6  C   LIG    1       -0.070   1.085  -0.104  0.00  0.00    +0.300 A 
ATOM      7  N   LIG    1        1.034   1.821   0.098  0.00  0.00    -0.460 N 
ATOM      8  H   LIG    1        1.934   1.467   0.177  0.00  0.00    +0.450 HD
ATOM      9  N   LIG    1        0.690   3.173   0.179  0.00  0.00    -0.270 NA
ATOM     10  C   LIG    1       -0.609   3.295   0.029  0.00  0.00    +0.170 A 
BRANCH  10  11
ATOM     11  C   LIG    1       -1.384   4.559   0.049  0.00  0.00    -0.010 A 
ATOM     12  C   LIG    1       -2.589   4.630   0.747  0.00  0.00    +0.080 A 
ATOM     13  C   LIG    1       -3.306   5.809   0.763  0.00  0.00    +0.030 A 
ATOM     14  C   LIG    1       -2.833   6.920   0.088  0.00  0.00    +0.040 A 
ATOM     15  C   LIG    1       -1.636   6.856  -0.606  0.00  0.00    -0.040 A 
ATOM     16 CL   LIG    1       -1.048   8.255  -1.449  0.00  0.00    -0.070 Cl
ATOM     17  C   LIG    1       -0.908   5.682  -0.625  0.00  0.00    +0.050 A 
ENDBRANCH  10  11
ENDBRANCH   3   5
BRANCH   1  19
ATOM     18  C   LIG    1       -5.059  -0.076   0.699  0.00  0.00    +0.030 C 
ATOM     19  C   LIG    1       -4.320  -0.082  -0.641  0.00  0.00    +0.220 C 
BRANCH  19  20
ATOM     20  C   LIG    1       -4.396  -1.480  -1.259  0.00  0.00    +0.270 C 
BRANCH  20  21
ATOM     21  C   LIG    1       -3.566  -1.519  -2.516  0.00  0.00    -0.130 A 
ATOM     22  C   LIG    1       -2.208  -1.764  -2.440  0.00  0.00    +0.030 A 
ATOM     23  C   LIG    1       -1.446  -1.805  -3.592  0.00  0.00    -0.010 A 
ATOM     24  C   LIG    1       -2.043  -1.590  -4.823  0.00  0.00    +0.100 A 
ATOM     25  C   LIG    1       -3.402  -1.339  -4.898  0.00  0.00    -0.010 A 
ATOM     26  F   LIG    1       -1.299  -1.625  -5.950  0.00  0.00    -0.140 F 
ATOM     27  C   LIG    1       -4.162  -1.303  -3.744  0.00  0.00    +0.060 A 
ENDBRANCH  20  21
BRANCH  20  28
ATOM     28  O   LIG    1       -3.894  -2.440  -0.327  0.00  0.00    -0.540 OA
ATOM     29  H   LIG    1       -2.975  -2.293  -0.067  0.00  0.00    +0.370 HD
ENDBRANCH  20  28
ENDBRANCH  19  20
ENDBRANCH   1  19
TORSDOF 6
