REMARK  Name = ZINCqH0000004BjH.0
REMARK                            x       y       z     vdW  Elec       q    Type
REMARK                         _______ _______ _______ _____ _____    ______ ____
ROOT
ATOM      1  C   LIG    1        2.057  -0.329   5.933  0.00  0.00    +0.220 A 
ATOM      2  N   LIG    1        3.032   0.279   6.558  0.00  0.00    -0.360 NA
ATOM      3  O   LIG    1        3.398  -0.385   7.504  0.00  0.00    +0.110 OA
ATOM      4  C   LIG    1        2.685  -1.513   7.576  0.00  0.00    +0.140 A 
ATOM      5  N   LIG    1        1.829  -1.491   6.585  0.00  0.00    -0.430 NA
ENDROOT
BRANCH   1   9
ATOM      6  C   LIG    1        0.000   1.080   2.488  0.00  0.00    -0.060 A 
ATOM      7  C   LIG    1       -0.350  -0.134   3.050  0.00  0.00    +0.010 A 
ATOM      8  C   LIG    1        0.319  -0.599   4.165  0.00  0.00    +0.070 A 
ATOM      9  C   LIG    1        1.339   0.163   4.731  0.00  0.00    -0.040 A 
ATOM     10  C   LIG    1        1.683   1.388   4.163  0.00  0.00    +0.050 A 
ATOM     11  C   LIG    1        1.012   1.840   3.045  0.00  0.00    +0.010 A 
BRANCH   6  13
ATOM     12  C   LIG    1       -0.013   1.086   0.008  0.00  0.00    +0.030 C 
ATOM     13  C   LIG    1       -0.729   1.579   1.267  0.00  0.00    +0.070 C 
ENDBRANCH   6  13
ENDBRANCH   1   9
BRANCH   4  14
ATOM     14  C   LIG    1        2.837  -2.605   8.603  0.00  0.00    +0.570 C 
BRANCH  14  15
ATOM     15  N   LIG    1        3.808  -3.593   8.126  0.00  0.00    -0.150 N 
ATOM     16  N   LIG    1        3.525  -4.638   7.430  0.00  0.00    -0.030 NA
ATOM     17  N   LIG    1        4.615  -5.282   7.181  0.00  0.00    -0.260 NA
ATOM     18  C   LIG    1        5.617  -4.607   7.760  0.00  0.00    +0.220 A 
ATOM     19  N   LIG    1        5.077  -3.555   8.343  0.00  0.00    -0.290 NA
BRANCH  18  20
ATOM     20  C   LIG    1        7.056  -4.973   7.748  0.00  0.00    -0.000 A 
ATOM     21  C   LIG    1        7.988  -4.164   8.394  0.00  0.00    +0.070 A 
ATOM     22  C   LIG    1        9.324  -4.510   8.383  0.00  0.00    +0.050 A 
ATOM     23  C   LIG    1        9.739  -5.654   7.724  0.00  0.00    -0.070 A 
ATOM     24  C   LIG    1        8.818  -6.458   7.077  0.00  0.00    +0.050 A 
ATOM     25 BR   LIG    1       11.572  -6.119   7.707  0.00  0.00    -0.040 Br
ATOM     26  C   LIG    1        7.479  -6.123   7.085  0.00  0.00    +0.080 A 
ENDBRANCH  18  20
ENDBRANCH  14  15
ENDBRANCH   4  14
TORSDOF 5
