REMARK  Name = ZINCrH000004pSAK.0
REMARK                            x       y       z     vdW  Elec       q    Type
REMARK                         _______ _______ _______ _____ _____    ______ ____
ROOT
ATOM      1  C   LIG    1        1.209  -0.683   0.008  0.00  0.00    -0.650 A 
ATOM      2  C   LIG    1        0.003  -0.004   0.014  0.00  0.00    +0.130 A 
ATOM      3  C   LIG    1       -0.016   1.375   0.014  0.00  0.00    +0.070 A 
ATOM      4  C   LIG    1        1.185   2.086   0.008  0.00  0.00    -0.080 A 
ATOM      5  C   LIG    1        2.398   1.396   0.003  0.00  0.00    +0.030 A 
ATOM      6  C   LIG    1        2.403   0.016   0.003  0.00  0.00    +0.130 A 
ENDROOT
BRANCH   4   7
ATOM      7  C   LIG    1        1.172   3.564   0.007  0.00  0.00    +0.560 C 
ATOM      8  N   LIG    1        2.333   4.248   0.002  0.00  0.00    -0.670 N 
ATOM      9  H   LIG    1        3.176   3.773   0.067  0.00  0.00    +0.410 HD
ATOM     10  O   LIG    1        0.114   4.163   0.012  0.00  0.00    -0.500 OA
BRANCH   8  11
ATOM     11  C   LIG    1        2.323   5.643  -0.096  0.00  0.00    +0.170 A 
ATOM     12  C   LIG    1        3.329   6.299  -0.794  0.00  0.00    -0.020 A 
ATOM     13  C   LIG    1        3.314   7.677  -0.894  0.00  0.00    +0.070 A 
ATOM     14  C   LIG    1        2.306   8.405  -0.292  0.00  0.00    -0.030 A 
ATOM     15  C   LIG    1        1.303   7.755   0.409  0.00  0.00    +0.120 A 
ATOM     16  F   LIG    1        0.318   8.469   0.996  0.00  0.00    -0.130 F 
ATOM     17  C   LIG    1        1.310   6.376   0.508  0.00  0.00    -0.010 A 
ENDBRANCH   8  11
ENDBRANCH   4   7
BRANCH   1  18
ATOM     18  S   LIG    1        1.224  -2.445   0.009  0.00  0.00    +2.690 S 
ATOM     19  O   LIG    1       -0.020  -2.856   0.560  0.00  0.00    -0.950 OA
ATOM     20  O   LIG    1        2.479  -2.835   0.548  0.00  0.00    -0.950 OA
BRANCH  18  26
ATOM     21  C   LIG    1       -0.040  -0.857  -3.233  0.00  0.00    +0.020 C 
ATOM     22  C   LIG    1       -0.045  -2.348  -3.575  0.00  0.00    -0.030 C 
ATOM     23  C   LIG    1        1.204  -2.690  -4.390  0.00  0.00    +0.030 C 
ATOM     24  C   LIG    1        2.455  -2.326  -3.587  0.00  0.00    -0.030 C 
ATOM     25  C   LIG    1        2.483  -3.147  -2.293  0.00  0.00    +0.290 C 
ATOM     26  N   LIG    1        1.220  -2.936  -1.572  0.00  0.00    -0.990 NA
ATOM     27  C   LIG    1        3.703  -2.638  -4.416  0.00  0.00    +0.030 C 
ATOM     28  C   LIG    1       -0.045  -3.174  -2.279  0.00  0.00    +0.290 C 
ENDBRANCH  18  26
ENDBRANCH   1  18
TORSDOF 4
