REMARK  Name = ZINCBu0000000aau.0
REMARK                            x       y       z     vdW  Elec       q    Type
REMARK                         _______ _______ _______ _____ _____    ______ ____
ROOT
ATOM      1  C   LIG    1       -1.508   5.263   6.228  0.00  0.00    +0.430 A 
ATOM      2  N   LIG    1       -0.998   4.705   5.140  0.00  0.00    -0.550 NA
ATOM      3  C   LIG    1       -1.035   3.389   4.952  0.00  0.00    +0.500 A 
ATOM      4  N   LIG    1       -1.567   2.558   5.828  0.00  0.00    -0.540 NA
ATOM      5  C   LIG    1       -2.106   3.023   6.965  0.00  0.00    +0.160 A 
ATOM      6  C   LIG    1       -2.680   2.168   7.918  0.00  0.00    +0.100 A 
ATOM      7  C   LIG    1       -3.215   2.694   9.059  0.00  0.00    +0.050 A 
ATOM      8  C   LIG    1       -3.200   4.065   9.291  0.00  0.00    +0.050 A 
ATOM      9  C   LIG    1       -2.650   4.924   8.384  0.00  0.00    +0.100 A 
ATOM     10  F   LIG    1       -2.703   0.833   7.708  0.00  0.00    -0.120 F 
ATOM     11  C   LIG    1       -2.093   4.418   7.204  0.00  0.00    -0.140 A 
ENDROOT
BRANCH   1  15
ATOM     12  N   LIG    1       -0.831   9.309   5.688  0.00  0.00    -0.540 NA
ATOM     13  C   LIG    1       -0.077   8.616   6.742  0.00  0.00    +0.200 C 
ATOM     14  C   LIG    1       -0.080   7.111   6.463  0.00  0.00    +0.230 C 
ATOM     15  N   LIG    1       -1.467   6.629   6.407  0.00  0.00    -0.490 N 
ATOM     16  C   LIG    1       -2.221   7.322   5.353  0.00  0.00    +0.210 C 
ATOM     17  C   LIG    1       -2.218   8.826   5.633  0.00  0.00    +0.200 C 
BRANCH  12  18
ATOM     18  C   LIG    1       -0.787  10.765   5.879  0.00  0.00    +0.330 C 
BRANCH  18  21
ATOM     19  C   LIG    1       -3.449  12.568   3.307  0.00  0.00    +0.190 C 
ATOM     20  C   LIG    1       -2.498  11.924   4.226  0.00  0.00    -0.170 C 
ATOM     21  C   LIG    1       -1.739  11.409   4.960  0.00  0.00    -0.200 C 
ENDBRANCH  18  21
ENDBRANCH  12  18
ENDBRANCH   1  15
BRANCH   3  22
ATOM     22  N   LIG    1       -0.489   2.869   3.792  0.00  0.00    -0.460 N 
ATOM     23  C   LIG    1       -0.615   1.406   3.761  0.00  0.00    +0.250 C 
ATOM     24  C   LIG    1        0.126   0.855   2.540  0.00  0.00    +0.060 C 
ATOM     25  C   LIG    1       -0.471   1.465   1.269  0.00  0.00    +0.160 C 
ATOM     26  C   LIG    1       -0.371   2.991   1.349  0.00  0.00    +0.060 C 
ATOM     27  C   LIG    1       -1.097   3.480   2.604  0.00  0.00    +0.240 C 
BRANCH  25  28
ATOM     28  N   LIG    1        0.273   0.985   0.097  0.00  0.00    -0.500 N 
ATOM     29  H   LIG    1        1.221   1.327   0.138  0.00  0.00    +0.430 HD
ATOM     30  H   LIG    1        0.281  -0.025   0.094  0.00  0.00    +0.430 HD
BRANCH  28  31
ATOM     31  C   LIG    1       -0.373   1.474  -1.128  0.00  0.00    +0.160 C 
ATOM     32  C   LIG    1       -1.767   0.854  -1.252  0.00  0.00    +0.030 C 
ATOM     33  C   LIG    1       -2.451   1.394  -2.512  0.00  0.00    +0.300 C 
ATOM     34  N   LIG    1       -1.576   1.147  -3.667  0.00  0.00    -0.630 N 
ATOM     35  C   LIG    1       -0.187   1.621  -3.615  0.00  0.00    +0.300 C 
ATOM     36  C   LIG    1       -2.040   0.498  -4.753  0.00  0.00    +0.520 C 
ATOM     37  O   LIG    1       -1.309   0.301  -5.700  0.00  0.00    -0.520 OA
ATOM     38  C   LIG    1       -3.468   0.018  -4.791  0.00  0.00    +0.100 C 
ATOM     39  C   LIG    1        0.472   1.080  -2.342  0.00  0.00    +0.040 C 
ENDBRANCH  28  31
ENDBRANCH  25  28
ENDBRANCH   3  22
TORSDOF 6
