REMARK  Name = ZINCrH00000tj13f.0
REMARK                            x       y       z     vdW  Elec       q    Type
REMARK                         _______ _______ _______ _____ _____    ______ ____
ROOT
ATOM      1  C   LIG    1       -5.152  -2.584   1.287  0.00  0.00    +0.000 C 
ATOM      2  C   LIG    1       -5.802  -2.217  -0.071  0.00  0.00    +0.030 C 
ATOM      3  C   LIG    1       -7.050  -3.134  -0.111  0.00  0.00    +0.020 C 
ATOM      4  C   LIG    1       -6.567  -4.458   0.518  0.00  0.00    +0.020 C 
ATOM      5  C   LIG    1       -5.361  -4.108   1.407  0.00  0.00    +0.240 C 
ENDROOT
BRANCH   5   6
ATOM      6  N   LIG    1       -4.168  -4.816   0.936  0.00  0.00    -0.700 N 
ATOM      7  H   LIG    1       -3.571  -4.392   0.300  0.00  0.00    +0.410 HD
BRANCH   6   8
ATOM      8  C   LIG    1       -3.892  -6.091   1.400  0.00  0.00    +0.250 A 
ATOM      9  C   LIG    1       -2.767  -6.766   0.960  0.00  0.00    -0.230 A 
ATOM     10  C   LIG    1       -2.513  -8.056   1.448  0.00  0.00    +0.530 A 
ATOM     11  N   LIG    1       -3.365  -8.613   2.331  0.00  0.00    -0.410 N 
ATOM     12  N   LIG    1       -4.497  -7.915   2.764  0.00  0.00    -0.180 NA
ATOM     13  O   LIG    1       -1.526  -8.671   1.074  0.00  0.00    -0.520 OA
ATOM     14 CL   LIG    1       -1.685  -6.026  -0.178  0.00  0.00    -0.020 Cl
ATOM     15  C   LIG    1       -4.752  -6.713   2.330  0.00  0.00    +0.250 A 
BRANCH  11  16
ATOM     16  C   LIG    1       -3.103  -9.961   2.842  0.00  0.00    +0.180 C 
ATOM     17  C   LIG    1       -3.073 -10.951   1.677  0.00  0.00    +0.050 C 
ATOM     18  C   LIG    1       -4.209 -10.359   3.822  0.00  0.00    +0.070 C 
ATOM     19  C   LIG    1       -1.753  -9.980   3.562  0.00  0.00    +0.050 C 
ENDBRANCH  11  16
ENDBRANCH   6   8
ENDBRANCH   5   6
BRANCH   1  20
ATOM     20  C   LIG    1       -3.660  -2.247   1.274  0.00  0.00    +0.290 C 
BRANCH  20  22
ATOM     21  C   LIG    1       -2.249  -0.260   1.272  0.00  0.00    +0.650 C 
ATOM     22  N   LIG    1       -3.488  -0.792   1.280  0.00  0.00    -0.710 N 
ATOM     23  H   LIG    1       -4.265  -0.212   1.291  0.00  0.00    +0.410 HD
ATOM     24  O   LIG    1       -1.276  -0.987   1.258  0.00  0.00    -0.560 OA
BRANCH  21  25
ATOM     25  O   LIG    1       -2.091   1.077   1.277  0.00  0.00    -0.360 OA
BRANCH  25  27
ATOM     26  C   LIG    1       -0.013   1.086   0.008  0.00  0.00    +0.040 C 
ATOM     27  C   LIG    1       -0.729   1.579   1.267  0.00  0.00    +0.140 C 
ATOM     28  C   LIG    1       -0.750   3.109   1.275  0.00  0.00    +0.080 C 
ATOM     29  C   LIG    1        0.011   1.072   2.506  0.00  0.00    +0.040 C 
ENDBRANCH  25  27
ENDBRANCH  21  25
ENDBRANCH  20  22
ENDBRANCH   1  20
TORSDOF 7
