REMARK  Name = ZINCpk000000nxuL.0
REMARK                            x       y       z     vdW  Elec       q    Type
REMARK                         _______ _______ _______ _____ _____    ______ ____
ROOT
ATOM      1  C   LIG    1       -1.362   3.162  -0.231  0.00  0.00    +0.270 C 
ATOM      2  C   LIG    1       -1.157   1.677  -0.352  0.00  0.00    +0.520 C 
ATOM      3  N   LIG    1        0.045   1.118  -0.495  0.00  0.00    -0.720 N 
ATOM      4  H   LIG    1        0.084   0.158  -0.626  0.00  0.00    +0.400 HD
ATOM      5  C   LIG    1        1.305   1.849  -0.473  0.00  0.00    +0.260 C 
ATOM      6  C   LIG    1        1.080   3.327  -0.800  0.00  0.00    +0.280 C 
ATOM      7  O   LIG    1       -2.130   0.954  -0.314  0.00  0.00    -0.540 OA
ATOM      8  N   LIG    1       -0.060   3.806  -0.002  0.00  0.00    -0.600 N 
ATOM      9  C   LIG    1        0.084   4.795   0.903  0.00  0.00    +0.570 C 
ATOM     10  O   LIG    1       -0.891   5.238   1.478  0.00  0.00    -0.510 OA
ENDROOT
BRANCH   9  11
ATOM     11  C   LIG    1        1.429   5.341   1.196  0.00  0.00    -0.050 A 
ATOM     12  C   LIG    1        2.563   4.522   1.149  0.00  0.00    -0.040 A 
ATOM     13  C   LIG    1        3.799   5.069   1.428  0.00  0.00    +0.310 A 
ATOM     14  N   LIG    1        3.924   6.345   1.736  0.00  0.00    -0.460 NA
ATOM     15  C   LIG    1        2.881   7.157   1.791  0.00  0.00    +0.370 A 
ATOM     16  C   LIG    1        1.601   6.688   1.519  0.00  0.00    +0.000 A 
BRANCH  15  17
ATOM     17  N   LIG    1        3.068   8.498   2.121  0.00  0.00    -0.660 N 
ATOM     18  H   LIG    1        2.301   9.081   2.239  0.00  0.00    +0.420 HD
ATOM     19  C   LIG    1        4.315   8.986   2.277  0.00  0.00    +0.540 C 
ATOM     20  O   LIG    1        5.269   8.240   2.220  0.00  0.00    -0.470 OA
BRANCH  19  21
ATOM     21  C   LIG    1        4.523  10.458   2.523  0.00  0.00    -0.070 C 
ATOM     22  C   LIG    1        5.185  11.274   1.410  0.00  0.00    +0.060 C 
ATOM     23  C   LIG    1        5.962  10.951   2.689  0.00  0.00    +0.080 C 
ENDBRANCH  19  21
ENDBRANCH  15  17
ENDBRANCH   9  11
BRANCH   1  24
ATOM     24  C   LIG    1       -1.977   3.697  -1.526  0.00  0.00    +0.040 C 
BRANCH  24  26
ATOM     25  C   LIG    1       -2.785   5.750  -2.699  0.00  0.00    +0.020 C 
ATOM     26  C   LIG    1       -2.287   5.187  -1.366  0.00  0.00    -0.020 C 
ATOM     27  C   LIG    1       -3.366   5.372  -0.298  0.00  0.00    +0.020 C 
ENDBRANCH  24  26
ENDBRANCH   1  24
TORSDOF 5
