REMARK  Name = ZINCvU0000000GWt.0
REMARK                            x       y       z     vdW  Elec       q    Type
REMARK                         _______ _______ _______ _____ _____    ______ ____
ROOT
ATOM      1  N   LIG    1        6.738   2.591   1.560  0.00  0.00    -0.560 N 
ATOM      2  C   LIG    1        7.393   3.769   1.569  0.00  0.00    +0.570 C 
ATOM      3  O   LIG    1        6.798   4.797   1.313  0.00  0.00    -0.510 OA
ENDROOT
BRANCH   1   8
ATOM      4  C   LIG    1        9.573  -2.238   2.465  0.00  0.00    +0.090 C 
ATOM      5  C   LIG    1        8.820  -0.955   2.224  0.00  0.00    -0.070 A 
ATOM      6  C   LIG    1        8.573  -0.532   0.931  0.00  0.00    +0.010 A 
ATOM      7  C   LIG    1        7.883   0.643   0.708  0.00  0.00    +0.020 A 
ATOM      8  C   LIG    1        7.437   1.401   1.783  0.00  0.00    +0.110 A 
ATOM      9  C   LIG    1        7.691   0.976   3.081  0.00  0.00    -0.060 A 
ATOM     10  C   LIG    1        7.214   1.797   4.251  0.00  0.00    +0.080 C 
ATOM     11  C   LIG    1        8.378  -0.203   3.298  0.00  0.00    +0.020 A 
ENDBRANCH   1   8
BRANCH   2  12
ATOM     12  C   LIG    1        8.835   3.810   1.892  0.00  0.00    -0.120 A 
ATOM     13  C   LIG    1        9.703   2.865   1.343  0.00  0.00    +0.070 A 
ATOM     14  C   LIG    1       11.049   2.912   1.643  0.00  0.00    +0.020 A 
ATOM     15  C   LIG    1       11.537   3.886   2.495  0.00  0.00    +0.070 A 
ATOM     16  C   LIG    1       10.681   4.824   3.048  0.00  0.00    -0.100 A 
ATOM     17 BR   LIG    1       11.359   6.152   4.210  0.00  0.00    -0.040 Br
ATOM     18  C   LIG    1        9.333   4.791   2.751  0.00  0.00    +0.100 A 
ENDBRANCH   2  12
BRANCH   1  19
ATOM     19  C   LIG    1        5.294   2.558   1.316  0.00  0.00    +0.300 C 
BRANCH  19  20
ATOM     20  C   LIG    1        5.033   2.423  -0.185  0.00  0.00    +0.300 C 
BRANCH  20  21
ATOM     21  N   LIG    1        3.589   2.390  -0.429  0.00  0.00    -0.570 N 
ATOM     22  C   LIG    1        2.847   1.268  -0.457  0.00  0.00    +0.570 C 
ATOM     23  C   LIG    1        1.442   1.639  -0.729  0.00  0.00    -0.140 A 
ATOM     24  C   LIG    1        0.263   0.925  -0.868  0.00  0.00    +0.100 A 
ATOM     25  C   LIG    1       -0.920   1.598  -1.133  0.00  0.00    +0.050 A 
ATOM     26  C   LIG    1       -0.932   2.975  -1.249  0.00  0.00    +0.050 A 
ATOM     27  C   LIG    1        0.240   3.702  -1.113  0.00  0.00    +0.100 A 
ATOM     28  C   LIG    1        1.431   3.043  -0.854  0.00  0.00    -0.140 A 
ATOM     29  O   LIG    1        3.262   0.139  -0.287  0.00  0.00    -0.460 OA
ATOM     30  C   LIG    1        2.829   3.478  -0.653  0.00  0.00    +0.570 C 
ATOM     31  O   LIG    1        3.227   4.625  -0.687  0.00  0.00    -0.450 OA
ENDBRANCH  20  21
ENDBRANCH  19  20
ENDBRANCH   1  19
TORSDOF 5
