REMARK  Name = ZINCrD000000C4Tl.0
REMARK                            x       y       z     vdW  Elec       q    Type
REMARK                         _______ _______ _______ _____ _____    ______ ____
ROOT
ATOM      1  N   LIG    1       -1.238   2.069   0.019  0.00  0.00    -0.660 N 
ATOM      2  H   LIG    1       -1.253   3.036   0.092  0.00  0.00    +0.420 HD
ATOM      3  C   LIG    1       -2.395   1.383  -0.081  0.00  0.00    +0.560 C 
ATOM      4  O   LIG    1       -2.382   0.168  -0.088  0.00  0.00    -0.500 OA
ENDROOT
BRANCH   1  11
ATOM      5  O   LIG    1        3.700  -2.863   1.137  0.00  0.00    -0.480 OA
ATOM      6  C   LIG    1        3.014  -1.903   0.841  0.00  0.00    +0.640 A 
ATOM      7  N   LIG    1        1.708  -1.759   1.137  0.00  0.00    -0.650 N 
ATOM      8  H   LIG    1        1.155  -2.395   1.618  0.00  0.00    +0.450 HD
ATOM      9  C   LIG    1        1.295  -0.529   0.625  0.00  0.00    +0.090 A 
ATOM     10  C   LIG    1        0.083   0.141   0.625  0.00  0.00    +0.050 A 
ATOM     11  C   LIG    1       -0.017   1.385   0.017  0.00  0.00    +0.160 A 
ATOM     12  C   LIG    1        1.097   1.955  -0.588  0.00  0.00    +0.020 A 
ATOM     13  C   LIG    1        2.306   1.288  -0.588  0.00  0.00    +0.090 A 
ATOM     14  C   LIG    1        2.412   0.045   0.017  0.00  0.00    +0.020 A 
ATOM     15  O   LIG    1        3.443  -0.823   0.169  0.00  0.00    -0.230 OA
ENDBRANCH   1  11
BRANCH   3  16
ATOM     16  C   LIG    1       -3.681   2.111  -0.182  0.00  0.00    -0.060 A 
ATOM     17  C   LIG    1       -3.718   3.510  -0.170  0.00  0.00    -0.040 A 
ATOM     18  C   LIG    1       -4.936   4.150  -0.271  0.00  0.00    +0.320 A 
ATOM     19  N   LIG    1       -6.058   3.464  -0.369  0.00  0.00    -0.520 NA
ATOM     20  C   LIG    1       -6.071   2.142  -0.379  0.00  0.00    +0.330 A 
ATOM     21  C   LIG    1       -4.889   1.419  -0.287  0.00  0.00    +0.030 A 
BRANCH  20  22
ATOM     22  O   LIG    1       -7.253   1.484  -0.481  0.00  0.00    -0.300 OA
BRANCH  22  23
ATOM     23  C   LIG    1       -8.435   2.283  -0.573  0.00  0.00    +0.270 C 
BRANCH  23  24
ATOM     24  C   LIG    1       -9.641   1.386  -0.679  0.00  0.00    -0.100 A 
ATOM     25  C   LIG    1      -10.099   0.987  -1.920  0.00  0.00    +0.030 A 
ATOM     26  C   LIG    1      -11.203   0.160  -2.017  0.00  0.00    +0.010 A 
ATOM     27  C   LIG    1      -11.854  -0.260  -0.872  0.00  0.00    +0.020 A 
ATOM     28  C   LIG    1      -11.399   0.143   0.369  0.00  0.00    +0.010 A 
ATOM     29  C   LIG    1      -10.293   0.966   0.466  0.00  0.00    +0.030 A 
ENDBRANCH  23  24
ENDBRANCH  22  23
ENDBRANCH  20  22
ENDBRANCH   3  16
TORSDOF 5
