REMARK  Name = ZINCnE000004RfUP.0
REMARK                            x       y       z     vdW  Elec       q    Type
REMARK                         _______ _______ _______ _____ _____    ______ ____
ROOT
ATOM      1  N   LIG    1        3.542   3.399   0.478  0.00  0.00    -0.380 N 
ATOM      2  N   LIG    1        2.325   4.082   0.469  0.00  0.00    -0.180 NA
ATOM      3  C   LIG    1        1.223   3.548   0.009  0.00  0.00    +0.120 A 
ATOM      4  C   LIG    1        1.240   2.178  -0.524  0.00  0.00    -0.040 A 
ATOM      5  C   LIG    1        0.090   1.569  -1.024  0.00  0.00    +0.030 A 
ATOM      6  C   LIG    1        0.159   0.283  -1.513  0.00  0.00    +0.040 A 
ATOM      7  C   LIG    1        1.360  -0.413  -1.512  0.00  0.00    +0.010 A 
ATOM      8  C   LIG    1        2.509   0.168  -1.022  0.00  0.00    +0.090 A 
ATOM      9  C   LIG    1        2.462   1.469  -0.523  0.00  0.00    -0.120 A 
ATOM     10  C   LIG    1        3.655   2.139   0.011  0.00  0.00    +0.530 A 
ATOM     11  O   LIG    1        4.729   1.565   0.031  0.00  0.00    -0.520 OA
ENDROOT
BRANCH   3  12
ATOM     12  C   LIG    1       -0.040   4.322   0.025  0.00  0.00    +0.010 A 
ATOM     13  C   LIG    1       -0.911   4.264  -1.063  0.00  0.00    +0.060 A 
ATOM     14  C   LIG    1       -2.088   4.983  -1.041  0.00  0.00    +0.050 A 
ATOM     15  C   LIG    1       -2.401   5.770   0.053  0.00  0.00    -0.030 A 
ATOM     16  C   LIG    1       -1.538   5.837   1.135  0.00  0.00    -0.030 A 
ATOM     17 CL   LIG    1       -1.937   6.827   2.504  0.00  0.00    -0.050 Cl
ATOM     18 CL   LIG    1       -3.881   6.678   0.071  0.00  0.00    -0.050 Cl
ATOM     19  C   LIG    1       -0.360   5.117   1.126  0.00  0.00    +0.080 A 
ENDBRANCH   3  12
BRANCH   1  20
ATOM     20  C   LIG    1        4.730   4.069   1.012  0.00  0.00    +0.240 C 
BRANCH  20  22
ATOM     21  O   LIG    1        4.983   4.774  -1.232  0.00  0.00    -0.680 OA
ATOM     22  C   LIG    1        5.433   4.806  -0.099  0.00  0.00    +0.490 C 
ATOM     23  O   LIG    1        6.451   5.434   0.135  0.00  0.00    -0.690 OA
ENDBRANCH  20  22
ENDBRANCH   1  20
TORSDOF 3
