REMARK  Name = ZINCpe00000gMikT.0
REMARK                            x       y       z     vdW  Elec       q    Type
REMARK                         _______ _______ _______ _____ _____    ______ ____
ROOT
ATOM      1  C   LIG    1       -1.290   1.681   0.017  0.00  0.00    +0.320 C 
ENDROOT
BRANCH   1   4
ATOM      2  N   LIG    1       -3.698   1.118   0.026  0.00  0.00    -0.710 N 
ATOM      3  H   LIG    1       -3.889   2.069   0.032  0.00  0.00    +0.410 HD
ATOM      4  C   LIG    1       -2.422   0.686   0.017  0.00  0.00    +0.520 C 
ATOM      5  O   LIG    1       -2.184  -0.503   0.010  0.00  0.00    -0.520 OA
BRANCH   2   6
ATOM      6  C   LIG    1       -4.799   0.151   0.026  0.00  0.00    +0.280 C 
BRANCH   6   7
ATOM      7  C   LIG    1       -6.023   0.784   0.635  0.00  0.00    +0.460 C 
ATOM      8  O   LIG    1       -5.981   1.925   1.030  0.00  0.00    -0.500 OA
BRANCH   7  10
ATOM      9  C   LIG    1       -8.300   0.752   1.338  0.00  0.00    +0.280 C 
ATOM     10  O   LIG    1       -7.161   0.079   0.741  0.00  0.00    -0.350 OA
ENDBRANCH   7  10
ENDBRANCH   6   7
BRANCH   6  11
ATOM     11  C   LIG    1       -5.106  -0.272  -1.412  0.00  0.00    +0.040 C 
BRANCH  11  12
ATOM     12  C   LIG    1       -3.905  -1.025  -1.990  0.00  0.00    -0.010 C 
ATOM     13  C   LIG    1       -4.162  -1.339  -3.465  0.00  0.00    +0.010 C 
ATOM     14  C   LIG    1       -3.703  -2.330  -1.218  0.00  0.00    +0.030 C 
ENDBRANCH  11  12
ENDBRANCH   6  11
ENDBRANCH   2   6
ENDBRANCH   1   4
BRANCH   1  15
ATOM     15  N   LIG    1       -0.011   0.966   0.007  0.00  0.00    -0.710 N 
ATOM     16  H   LIG    1        0.002  -0.004   0.002  0.00  0.00    +0.410 HD
ATOM     17  C   LIG    1        1.147   1.655   0.000  0.00  0.00    +0.570 C 
ATOM     18  O   LIG    1        1.130   2.871   0.007  0.00  0.00    -0.530 OA
BRANCH  17  19
ATOM     19  C   LIG    1        2.435   0.935  -0.016  0.00  0.00    -0.130 A 
ATOM     20  C   LIG    1        2.456  -0.462  -0.024  0.00  0.00    +0.070 A 
ATOM     21  C   LIG    1        3.659  -1.133  -0.040  0.00  0.00    +0.040 A 
ATOM     22  C   LIG    1        4.854  -0.425  -0.048  0.00  0.00    +0.060 A 
ATOM     23  O   LIG    1        6.151  -0.847  -0.063  0.00  0.00    -0.300 OA
ATOM     24  C   LIG    1        6.931   0.291   0.349  0.00  0.00    +0.440 C 
ATOM     25  O   LIG    1        6.129   1.419  -0.050  0.00  0.00    -0.300 OA
ATOM     26  C   LIG    1        4.840   0.971  -0.039  0.00  0.00    +0.020 A 
ATOM     27  C   LIG    1        3.637   1.649  -0.030  0.00  0.00    +0.110 A 
ENDBRANCH  17  19
ENDBRANCH   1  15
TORSDOF 8
