REMARK  Name = ZINCkj000005lGuA.1
REMARK                            x       y       z     vdW  Elec       q    Type
REMARK                         _______ _______ _______ _____ _____    ______ ____
ROOT
ATOM      1  O   LIG    1        0.699   1.969  -3.292  0.00  0.00    -0.530 OA
ATOM      2  C   LIG    1        0.177   1.228  -2.486  0.00  0.00    +0.510 C 
ATOM      3  N   LIG    1        0.173  -0.103  -2.698  0.00  0.00    -0.690 N 
ATOM      4  H   LIG    1       -0.179  -0.701  -2.021  0.00  0.00    +0.410 HD
ENDROOT
BRANCH   2   5
ATOM      5  C   LIG    1       -0.465   1.796  -1.246  0.00  0.00    +0.170 C 
ATOM      6  C   LIG    1        0.230   1.215  -0.014  0.00  0.00    +0.070 C 
ATOM      7  C   LIG    1       -0.425   1.817   1.235  0.00  0.00    +0.060 C 
ATOM      8  C   LIG    1       -0.246   3.334   1.187  0.00  0.00    +0.060 C 
ATOM      9  C   LIG    1       -0.887   3.912  -0.077  0.00  0.00    +0.180 C 
ATOM     10  C   LIG    1       -0.356   5.364  -0.224  0.00  0.00    +0.070 C 
ATOM     11  C   LIG    1        0.915   5.232  -1.090  0.00  0.00    +0.070 C 
ATOM     12  C   LIG    1        1.018   3.725  -1.426  0.00  0.00    +0.260 C 
ATOM     13  N   LIG    1       -0.369   3.239  -1.283  0.00  0.00    -0.370 N 
ATOM     14  H   LIG    1       -0.903   3.573  -2.072  0.00  0.00    +0.430 HD
ENDBRANCH   2   5
BRANCH   3  15
ATOM     15  C   LIG    1        0.698  -0.646  -3.954  0.00  0.00    +0.180 C 
ATOM     16  C   LIG    1        0.535  -2.163  -3.952  0.00  0.00    +0.070 C 
ATOM     17  C   LIG    1        1.079  -2.746  -2.646  0.00  0.00    +0.110 C 
ATOM     18  S   LIG    1        2.861  -2.402  -2.547  0.00  0.00    -0.240 S 
ATOM     19  C   LIG    1        2.920  -0.604  -2.802  0.00  0.00    +0.100 C 
ATOM     20  C   LIG    1        2.168  -0.262  -4.091  0.00  0.00    +0.060 C 
BRANCH  15  21
ATOM     21  C   LIG    1       -0.089  -0.056  -5.126  0.00  0.00    +0.200 C 
BRANCH  21  22
ATOM     22  O   LIG    1       -1.484  -0.292  -4.930  0.00  0.00    -0.570 OA
ATOM     23  H   LIG    1       -2.045   0.056  -5.637  0.00  0.00    +0.390 HD
ENDBRANCH  21  22
ENDBRANCH  15  21
ENDBRANCH   3  15
TORSDOF 4
