REMARK  Name = ZINCkj000005lGuA.0
REMARK                            x       y       z     vdW  Elec       q    Type
REMARK                         _______ _______ _______ _____ _____    ______ ____
ROOT
ATOM      1  O   LIG    1       -1.951  -1.135   1.217  0.00  0.00    -0.520 OA
ATOM      2  C   LIG    1       -1.520  -0.477   0.294  0.00  0.00    +0.510 C 
ATOM      3  N   LIG    1       -2.302  -0.218  -0.773  0.00  0.00    -0.690 N 
ATOM      4  H   LIG    1       -1.984   0.368  -1.477  0.00  0.00    +0.410 HD
ENDROOT
BRANCH   2   5
ATOM      5  C   LIG    1       -0.109   0.051   0.339  0.00  0.00    +0.170 C 
ATOM      6  C   LIG    1       -0.125   1.586   0.261  0.00  0.00    +0.060 C 
ATOM      7  C   LIG    1        1.292   2.148   0.372  0.00  0.00    +0.050 C 
ATOM      8  C   LIG    1        1.993   1.602   1.610  0.00  0.00    +0.070 C 
ATOM      9  C   LIG    1        1.948   0.081   1.546  0.00  0.00    +0.170 C 
ATOM     10  C   LIG    1        2.530  -0.618   2.787  0.00  0.00    +0.080 C 
ATOM     11  C   LIG    1        1.811  -1.995   2.747  0.00  0.00    +0.070 C 
ATOM     12  C   LIG    1        0.550  -1.757   1.895  0.00  0.00    +0.260 C 
ATOM     13  N   LIG    1        0.519  -0.325   1.597  0.00  0.00    -0.370 N 
ATOM     14  H   LIG    1        0.064   0.162   2.355  0.00  0.00    +0.420 HD
ENDBRANCH   2   5
BRANCH   3  15
ATOM     15  C   LIG    1       -3.634  -0.821  -0.868  0.00  0.00    +0.180 C 
ATOM     16  C   LIG    1       -4.283  -0.400  -2.183  0.00  0.00    +0.070 C 
ATOM     17  C   LIG    1       -4.179   1.117  -2.356  0.00  0.00    +0.110 C 
ATOM     18  S   LIG    1       -5.111   1.923  -1.020  0.00  0.00    -0.240 S 
ATOM     19  C   LIG    1       -4.399   1.155   0.465  0.00  0.00    +0.100 C 
ATOM     20  C   LIG    1       -4.477  -0.367   0.320  0.00  0.00    +0.060 C 
BRANCH  15  21
ATOM     21  C   LIG    1       -3.499  -2.345  -0.838  0.00  0.00    +0.200 C 
BRANCH  21  22
ATOM     22  O   LIG    1       -2.596  -2.764  -1.863  0.00  0.00    -0.570 OA
ATOM     23  H   LIG    1       -2.463  -3.721  -1.903  0.00  0.00    +0.390 HD
ENDBRANCH  21  22
ENDBRANCH  15  21
ENDBRANCH   3  15
TORSDOF 4
