REMARK  Name = ZINCvU00000006T8.0
REMARK                            x       y       z     vdW  Elec       q    Type
REMARK                         _______ _______ _______ _____ _____    ______ ____
ROOT
ATOM      1  C   LIG    1       -0.779   9.313   1.483  0.00  0.00    +0.430 C 
ATOM      2  O   LIG    1       -1.276   9.168   2.580  0.00  0.00    -0.450 OA
ENDROOT
BRANCH   1   6
ATOM      3  C   LIG    1        0.968   6.351  -2.278  0.00  0.00    +0.150 C 
ATOM      4  C   LIG    1        0.373   6.847  -0.985  0.00  0.00    +0.020 A 
ATOM      5  C   LIG    1        0.205   8.137  -0.649  0.00  0.00    +0.000 A 
ATOM      6  C   LIG    1       -0.403   8.141   0.689  0.00  0.00    -0.260 A 
ATOM      7  C   LIG    1       -0.553   6.813   1.042  0.00  0.00    +0.130 A 
ATOM      8  C   LIG    1       -1.141   6.302   2.332  0.00  0.00    +0.150 C 
ATOM      9  N   LIG    1       -0.080   6.055   0.034  0.00  0.00    -0.400 N 
BRANCH   9  10
ATOM     10  C   LIG    1       -0.061   4.654   0.027  0.00  0.00    +0.120 A 
ATOM     11  C   LIG    1        1.150   3.975   0.012  0.00  0.00    +0.040 A 
ATOM     12  C   LIG    1        1.166   2.594   0.005  0.00  0.00    +0.070 A 
ATOM     13  C   LIG    1       -0.024   1.887   0.012  0.00  0.00    -0.080 A 
ATOM     14  C   LIG    1       -1.232   2.561   0.022  0.00  0.00    +0.070 A 
ATOM     15 BR   LIG    1        0.002  -0.004   0.002  0.00  0.00    -0.030 Br
ATOM     16  C   LIG    1       -1.253   3.942   0.034  0.00  0.00    +0.040 A 
ENDBRANCH   9  10
ENDBRANCH   1   6
BRANCH   1  17
ATOM     17  C   LIG    1       -0.547  10.698   0.938  0.00  0.00    +0.230 C 
BRANCH  17  18
ATOM     18  O   LIG    1       -0.993  11.666   1.891  0.00  0.00    -0.330 OA
BRANCH  18  19
ATOM     19  C   LIG    1       -0.855  12.965   1.554  0.00  0.00    +0.500 C 
ATOM     20  O   LIG    1       -0.370  13.267   0.481  0.00  0.00    -0.500 OA
BRANCH  19  21
ATOM     21  C   LIG    1       -1.289  14.010   2.481  0.00  0.00    -0.010 C 
ATOM     22  C   LIG    1       -1.152  15.309   2.144  0.00  0.00    +0.130 C 
BRANCH  22  23
ATOM     23  C   LIG    1       -1.589  16.361   3.076  0.00  0.00    -0.020 A 
ATOM     24  C   LIG    1       -2.152  16.017   4.309  0.00  0.00    +0.060 A 
ATOM     25  C   LIG    1       -2.554  17.008   5.180  0.00  0.00    +0.110 A 
ATOM     26  C   LIG    1       -2.411  18.340   4.831  0.00  0.00    -0.040 A 
ATOM     27  C   LIG    1       -1.860  18.688   3.610  0.00  0.00    +0.110 A 
ATOM     28  C   LIG    1       -1.448  17.709   2.732  0.00  0.00    +0.070 A 
BRANCH  26  29
ATOM     29  N   LIG    1       -2.851  19.398   5.769  0.00  0.00    +0.020 N 
ATOM     30  O   LIG    1       -3.336  19.095   6.844  0.00  0.00    -0.150 OA
ATOM     31  O   LIG    1       -2.727  20.571   5.465  0.00  0.00    -0.150 OA
ENDBRANCH  26  29
ENDBRANCH  22  23
ENDBRANCH  19  21
ENDBRANCH  18  19
ENDBRANCH  17  18
ENDBRANCH   1  17
TORSDOF 8
