REMARK  Name = ZINCvU00000006Bt.0
REMARK                            x       y       z     vdW  Elec       q    Type
REMARK                         _______ _______ _______ _____ _____    ______ ____
ROOT
ATOM      1  N   LIG    1       -2.749   3.312   2.517  0.00  0.00    -0.600 N 
ATOM      2  C   LIG    1       -2.315   3.501   1.255  0.00  0.00    +0.540 C 
ATOM      3  O   LIG    1       -1.378   2.852   0.831  0.00  0.00    -0.510 OA
ENDROOT
BRANCH   2   4
ATOM      4  C   LIG    1       -2.975   4.492   0.391  0.00  0.00    -0.060 C 
ATOM      5  C   LIG    1       -2.496   4.737  -0.826  0.00  0.00    +0.110 C 
ENDBRANCH   2   4
BRANCH   1   6
ATOM      6  C   LIG    1       -3.918   4.047   3.007  0.00  0.00    +0.340 C 
BRANCH   6  12
ATOM      7  C   LIG    1       -3.103   6.408   3.225  0.00  0.00    +0.140 A 
ATOM      8  C   LIG    1       -2.690   7.486   3.995  0.00  0.00    -0.080 A 
ATOM      9  C   LIG    1       -2.626   7.367   5.370  0.00  0.00    +0.060 A 
ATOM     10  C   LIG    1       -2.979   6.177   5.979  0.00  0.00    -0.030 A 
ATOM     11  C   LIG    1       -3.397   5.103   5.215  0.00  0.00    +0.060 A 
ATOM     12  C   LIG    1       -3.462   5.217   3.840  0.00  0.00    -0.140 A 
BRANCH   7  13
ATOM     13  O   LIG    1       -3.162   6.521   1.872  0.00  0.00    -0.300 OA
BRANCH  13  14
ATOM     14  C   LIG    1       -2.699   7.748   1.303  0.00  0.00    +0.350 C 
BRANCH  14  16
ATOM     15  C   LIG    1       -3.180   7.749  -1.299  0.00  0.00    +0.060 C 
ATOM     16  C   LIG    1       -2.967   7.748  -0.144  0.00  0.00    -0.200 C 
ENDBRANCH  14  16
ENDBRANCH  13  14
ENDBRANCH   7  13
ENDBRANCH   6  12
ENDBRANCH   1   6
BRANCH   1  17
ATOM     17  C   LIG    1       -2.052   2.372   3.398  0.00  0.00    +0.330 C 
BRANCH  17  18
ATOM     18  C   LIG    1       -2.761   1.042   3.376  0.00  0.00    -0.130 A 
ATOM     19  C   LIG    1       -3.712   0.750   4.333  0.00  0.00    +0.020 A 
ATOM     20  C   LIG    1       -4.358  -0.473   4.317  0.00  0.00    -0.010 A 
ATOM     21  C   LIG    1       -4.058  -1.403   3.339  0.00  0.00    +0.020 A 
ATOM     22  C   LIG    1       -3.112  -1.112   2.375  0.00  0.00    -0.010 A 
ATOM     23  C   LIG    1       -2.462   0.113   2.389  0.00  0.00    +0.120 A 
BRANCH  23  24
ATOM     24  O   LIG    1       -1.531   0.401   1.442  0.00  0.00    -0.300 OA
BRANCH  24  25
ATOM     25  C   LIG    1       -0.170   0.101   1.758  0.00  0.00    +0.160 C 
ATOM     26  C   LIG    1        0.113  -1.370   1.446  0.00  0.00    -0.020 C 
ATOM     27  C   LIG    1       -0.135  -1.633  -0.041  0.00  0.00    +0.020 C 
ATOM     28  C   LIG    1        0.790  -0.746  -0.877  0.00  0.00    -0.030 C 
ATOM     29  C   LIG    1        0.507   0.724  -0.564  0.00  0.00    +0.030 C 
ATOM     30  C   LIG    1        0.542  -1.009  -2.364  0.00  0.00    +0.000 C 
ATOM     31  C   LIG    1        0.755   0.987   0.922  0.00  0.00    +0.040 C 
ENDBRANCH  24  25
ENDBRANCH  23  24
ENDBRANCH  17  18
ENDBRANCH   1  17
TORSDOF 10
