REMARK  Name = ZINCpe000000YPZ7.0
REMARK                            x       y       z     vdW  Elec       q    Type
REMARK                         _______ _______ _______ _____ _____    ______ ____
ROOT
ATOM      1  C   LIG    1       -1.949   1.530   3.850  0.00  0.00    -0.020 C 
ATOM      2  C   LIG    1       -0.421   1.464   3.914  0.00  0.00    +0.050 C 
ATOM      3  C   LIG    1        0.107   0.760   2.663  0.00  0.00    +0.190 C 
ATOM      4  N   LIG    1       -0.319   1.498   1.467  0.00  0.00    -0.520 NA
ATOM      5  C   LIG    1       -1.783   1.534   1.359  0.00  0.00    +0.170 C 
ATOM      6  C   LIG    1       -2.368   2.262   2.571  0.00  0.00    +0.040 C 
ENDROOT
BRANCH   1   8
ATOM      7  O   LIG    1       -1.722   2.961   5.713  0.00  0.00    -0.530 OA
ATOM      8  C   LIG    1       -2.472   2.275   5.051  0.00  0.00    +0.520 C 
ATOM      9  N   LIG    1       -3.773   2.179   5.390  0.00  0.00    -0.620 N 
ATOM     10  C   LIG    1       -4.729   1.463   4.530  0.00  0.00    +0.250 C 
ATOM     11  C   LIG    1       -5.507   0.467   5.404  0.00  0.00    +0.220 C 
ATOM     12  O   LIG    1       -6.059   1.159   6.527  0.00  0.00    -0.380 OA
ATOM     13  C   LIG    1       -5.082   1.735   7.397  0.00  0.00    +0.220 C 
ATOM     14  C   LIG    1       -4.281   2.792   6.628  0.00  0.00    +0.260 C 
ENDBRANCH   1   8
BRANCH   4  15
ATOM     15  C   LIG    1        0.285   0.929   0.255  0.00  0.00    +0.320 C 
BRANCH  15  16
ATOM     16  C   LIG    1       -0.328  -0.419  -0.027  0.00  0.00    +0.180 A 
ATOM     17  C   LIG    1       -1.109  -0.611  -1.146  0.00  0.00    -0.140 A 
ATOM     18  C   LIG    1       -1.665  -1.869  -1.385  0.00  0.00    +0.530 A 
ATOM     19  N   LIG    1       -1.428  -2.890  -0.511  0.00  0.00    -0.470 N 
ATOM     20  C   LIG    1       -1.896  -4.178  -0.598  0.00  0.00    +0.240 A 
ATOM     21  C   LIG    1       -1.568  -5.045   0.343  0.00  0.00    +0.010 A 
ATOM     22  S   LIG    1       -0.548  -4.145   1.480  0.00  0.00    +0.180 S 
ATOM     23  C   LIG    1       -0.646  -2.626   0.573  0.00  0.00    +0.310 A 
ATOM     24  O   LIG    1       -2.360  -2.055  -2.371  0.00  0.00    -0.520 OA
ATOM     25  N   LIG    1       -0.117  -1.438   0.797  0.00  0.00    -0.500 NA
ENDBRANCH  15  16
ENDBRANCH   4  15
TORSDOF 3
