REMARK  Name = ZINCrD000000fRwc.0
REMARK                            x       y       z     vdW  Elec       q    Type
REMARK                         _______ _______ _______ _____ _____    ______ ____
ROOT
ATOM      1  C   LIG    1        3.729   6.200   0.316  0.00  0.00    +0.300 C 
ENDROOT
BRANCH   1   2
ATOM      2  N   LIG    1        3.706   7.660   0.433  0.00  0.00    -1.120 NA
ATOM      3  H   LIG    1        2.895   8.151   0.228  0.00  0.00    +0.420 HD
BRANCH   2   4
ATOM      4  S   LIG    1        5.066   8.472   0.918  0.00  0.00    +2.700 S 
ATOM      5  O   LIG    1        5.542   7.803   2.077  0.00  0.00    -0.950 OA
ATOM      6  O   LIG    1        4.735   9.854   0.898  0.00  0.00    -0.950 OA
BRANCH   4  11
ATOM      7  C   LIG    1        7.348   8.934  -2.370  0.00  0.00    -0.190 A 
ATOM      8  C   LIG    1        8.219   7.843  -2.285  0.00  0.00    +0.130 A 
ATOM      9  C   LIG    1        8.115   6.963  -1.228  0.00  0.00    -0.010 A 
ATOM     10  C   LIG    1        7.156   7.161  -0.250  0.00  0.00    +0.160 A 
ATOM     11  C   LIG    1        6.287   8.236  -0.330  0.00  0.00    -0.690 A 
ATOM     12  C   LIG    1        6.378   9.124  -1.381  0.00  0.00    +0.190 A 
BRANCH   7  14
ATOM     13  C   LIG    1        8.498   9.669  -4.559  0.00  0.00    +0.080 C 
ATOM     14  C   LIG    1        7.452   9.877  -3.495  0.00  0.00    +0.390 C 
ATOM     15  O   LIG    1        6.695  10.822  -3.566  0.00  0.00    -0.450 OA
ENDBRANCH   7  14
ENDBRANCH   4  11
ENDBRANCH   2   4
ENDBRANCH   1   2
BRANCH   1  16
ATOM     16  C   LIG    1        2.295   5.673   0.225  0.00  0.00    +0.070 C 
BRANCH  16  17
ATOM     17  C   LIG    1        2.318   4.171   0.104  0.00  0.00    +0.520 C 
ATOM     18  N   LIG    1        1.162   3.485   0.009  0.00  0.00    -0.670 N 
ATOM     19  H   LIG    1        0.319   3.961  -0.058  0.00  0.00    +0.410 HD
ATOM     20  O   LIG    1        3.377   3.580   0.091  0.00  0.00    -0.510 OA
BRANCH  18  21
ATOM     21  C   LIG    1        1.177   2.086   0.008  0.00  0.00    +0.140 A 
ATOM     22  C   LIG    1        0.235   1.381  -0.730  0.00  0.00    -0.030 A 
ATOM     23  C   LIG    1        0.253  -0.000  -0.730  0.00  0.00    +0.030 A 
ATOM     24  C   LIG    1        1.207  -0.681   0.005  0.00  0.00    -0.010 A 
ATOM     25  C   LIG    1        2.146   0.019   0.742  0.00  0.00    -0.060 A 
ATOM     26  C   LIG    1        2.134   1.399   0.745  0.00  0.00    +0.010 A 
BRANCH  25  27
ATOM     27  C   LIG    1        3.183  -0.727   1.541  0.00  0.00    +0.020 C 
ATOM     28  C   LIG    1        4.021  -1.597   0.602  0.00  0.00    +0.040 C 
ATOM     29  C   LIG    1        2.489  -1.615   2.575  0.00  0.00    +0.040 C 
ENDBRANCH  25  27
ENDBRANCH  18  21
ENDBRANCH  16  17
ENDBRANCH   1  16
TORSDOF 8
