REMARK  Name = ZINCvU0000000GV7.0
REMARK                            x       y       z     vdW  Elec       q    Type
REMARK                         _______ _______ _______ _____ _____    ______ ____
ROOT
ATOM      1  C   LIG    1        5.656   6.940   1.927  0.00  0.00    +0.170 A 
ATOM      2  N   LIG    1        5.957   7.770   0.958  0.00  0.00    -0.470 NA
ATOM      3  C   LIG    1        7.188   8.277   1.186  0.00  0.00    +0.060 A 
ATOM      4  C   LIG    1        7.652   7.711   2.354  0.00  0.00    +0.010 A 
ATOM      5  O   LIG    1        6.678   6.881   2.797  0.00  0.00    -0.170 OA
ENDROOT
BRANCH   4   6
ATOM      6  C   LIG    1        8.955   7.961   2.997  0.00  0.00    -0.020 A 
ATOM      7  C   LIG    1        9.021   8.237   4.366  0.00  0.00    +0.040 A 
ATOM      8  C   LIG    1       10.244   8.464   4.961  0.00  0.00    +0.010 A 
ATOM      9  C   LIG    1       11.403   8.430   4.205  0.00  0.00    +0.030 A 
ATOM     10  C   LIG    1       11.344   8.164   2.848  0.00  0.00    +0.010 A 
ATOM     11  C   LIG    1       10.129   7.929   2.240  0.00  0.00    +0.050 A 
ENDBRANCH   4   6
BRANCH   3  12
ATOM     12  C   LIG    1        7.908   9.254   0.336  0.00  0.00    -0.020 A 
ATOM     13  C   LIG    1        8.615  10.305   0.922  0.00  0.00    +0.030 A 
ATOM     14  C   LIG    1        9.287  11.208   0.125  0.00  0.00    +0.010 A 
ATOM     15  C   LIG    1        9.252  11.081  -1.252  0.00  0.00    +0.020 A 
ATOM     16  C   LIG    1        8.548  10.045  -1.839  0.00  0.00    +0.010 A 
ATOM     17  C   LIG    1        7.876   9.132  -1.053  0.00  0.00    +0.040 A 
ENDBRANCH   3  12
BRANCH   1  18
ATOM     18  S   LIG    1        4.149   6.037   2.064  0.00  0.00    +0.090 S 
BRANCH  18  19
ATOM     19  C   LIG    1        3.299   6.619   0.576  0.00  0.00    +0.180 C 
BRANCH  19  27
ATOM     20  C   LIG    1       -2.954   4.877   0.523  0.00  0.00    +0.160 C 
ATOM     21  C   LIG    1       -1.689   4.122   0.205  0.00  0.00    +0.140 A 
ATOM     22  C   LIG    1       -1.762   2.828  -0.181  0.00  0.00    -0.020 A 
ATOM     23  C   LIG    1       -0.592   2.113  -0.473  0.00  0.00    +0.140 A 
ATOM     24  C   LIG    1        0.617   2.735  -0.378  0.00  0.00    +0.020 A 
ATOM     25  C   LIG    1        0.672   4.083   0.018  0.00  0.00    +0.400 A 
ATOM     26  N   LIG    1        1.853   4.692   0.112  0.00  0.00    -0.540 NA
ATOM     27  C   LIG    1        1.947   5.960   0.480  0.00  0.00    +0.220 A 
ATOM     28  C   LIG    1        0.806   6.680   0.779  0.00  0.00    -0.150 A 
ATOM     29  C   LIG    1       -0.438   6.047   0.683  0.00  0.00    +0.510 A 
ATOM     30  O   LIG    1       -1.465   6.655   0.941  0.00  0.00    -0.520 OA
ATOM     31  N   LIG    1       -0.485   4.752   0.302  0.00  0.00    -0.430 N 
ENDBRANCH  19  27
ENDBRANCH  18  19
ENDBRANCH   1  18
TORSDOF 5
