REMARK  Name = ZINCpe00000MJJ0k.0
REMARK                            x       y       z     vdW  Elec       q    Type
REMARK                         _______ _______ _______ _____ _____    ______ ____
ROOT
ATOM      1  N   LIG    1       -0.456   4.744  -3.206  0.00  0.00    -0.510 NA
ATOM      2  C   LIG    1        1.008   4.622  -3.238  0.00  0.00    +0.160 C 
ATOM      3  C   LIG    1        1.614   5.940  -3.727  0.00  0.00    +0.230 C 
ATOM      4  O   LIG    1        1.069   6.263  -5.009  0.00  0.00    -0.380 OA
ATOM      5  C   LIG    1       -0.355   6.391  -5.014  0.00  0.00    +0.220 C 
ATOM      6  C   LIG    1       -0.981   5.077  -4.538  0.00  0.00    +0.140 C 
ENDROOT
BRANCH   6   7
ATOM      7  C   LIG    1       -2.501   5.233  -4.465  0.00  0.00    +0.000 C 
ATOM      8  C   LIG    1       -2.851   6.374  -3.508  0.00  0.00    +0.040 C 
ATOM      9  C   LIG    1       -4.372   6.530  -3.434  0.00  0.00    +0.010 C 
ATOM     10  C   LIG    1       -4.920   6.846  -4.827  0.00  0.00    +0.000 C 
ATOM     11  C   LIG    1       -4.570   5.704  -5.784  0.00  0.00    -0.020 C 
ATOM     12  C   LIG    1       -3.050   5.549  -5.857  0.00  0.00    +0.170 C 
BRANCH  12  13
ATOM     13  O   LIG    1       -2.723   4.482  -6.751  0.00  0.00    -0.560 OA
ATOM     14  H   LIG    1       -3.040   4.616  -7.655  0.00  0.00    +0.380 HD
ENDBRANCH  12  13
ENDBRANCH   6   7
BRANCH   1  15
ATOM     15  C   LIG    1       -1.076   3.518  -2.687  0.00  0.00    +0.250 C 
BRANCH  15  17
ATOM     16  N   LIG    1       -1.060   1.102  -3.219  0.00  0.00    -0.610 N 
ATOM     17  C   LIG    1       -0.692   2.352  -3.562  0.00  0.00    +0.480 C 
ATOM     18  O   LIG    1       -0.051   2.540  -4.575  0.00  0.00    -0.510 OA
BRANCH  16  19
ATOM     19  C   LIG    1       -0.686  -0.031  -4.070  0.00  0.00    +0.310 C 
BRANCH  19  20
ATOM     20  C   LIG    1        0.669  -0.581  -3.621  0.00  0.00    +0.180 C 
BRANCH  20  22
ATOM     21  N   LIG    1        1.334  -2.598  -5.135  0.00  0.00    -0.420 NA
ATOM     22  C   LIG    1        1.044  -1.719  -4.476  0.00  0.00    +0.200 C 
ENDBRANCH  20  22
ENDBRANCH  19  20
ENDBRANCH  16  19
BRANCH  16  23
ATOM     23  C   LIG    1       -1.833   0.875  -1.996  0.00  0.00    +0.300 C 
BRANCH  23  24
ATOM     24  C   LIG    1       -0.877   0.641  -0.825  0.00  0.00    +0.180 C 
BRANCH  24  25
ATOM     25  C   LIG    1       -1.654   0.413   0.405  0.00  0.00    +0.200 C 
ATOM     26  N   LIG    1       -2.253   0.237   1.354  0.00  0.00    -0.420 NA
ENDBRANCH  24  25
ENDBRANCH  23  24
ENDBRANCH  16  23
ENDBRANCH  15  17
ENDBRANCH   1  15
TORSDOF 10
