REMARK  Name = ZINCqH0000034DFn.0
REMARK                            x       y       z     vdW  Elec       q    Type
REMARK                         _______ _______ _______ _____ _____    ______ ____
ROOT
ATOM      1  C   LIG    1       -3.593   1.629   2.289  0.00  0.00    +0.280 C 
ATOM      2  N   LIG    1       -2.810   0.789   1.380  0.00  0.00    -0.620 N 
ATOM      3  C   LIG    1       -2.356  -0.411   1.794  0.00  0.00    +0.510 C 
ATOM      4  O   LIG    1       -1.708  -1.107   1.042  0.00  0.00    -0.490 OA
ENDROOT
BRANCH   3   5
ATOM      5  C   LIG    1       -2.655  -0.888   3.192  0.00  0.00    +0.220 C 
BRANCH   5   6
ATOM      6  O   LIG    1       -2.072  -2.177   3.391  0.00  0.00    -0.280 OA
BRANCH   6   7
ATOM      7  C   LIG    1       -2.249  -2.754   4.609  0.00  0.00    +0.110 A 
ATOM      8  C   LIG    1       -2.964  -2.090   5.590  0.00  0.00    -0.040 A 
ATOM      9  C   LIG    1       -3.152  -2.671   6.830  0.00  0.00    +0.020 A 
ATOM     10  C   LIG    1       -2.613  -3.917   7.095  0.00  0.00    +0.020 A 
ATOM     11  C   LIG    1       -1.893  -4.579   6.123  0.00  0.00    -0.140 A 
ATOM     12  C   LIG    1       -1.180  -5.917   6.119  0.00  0.00    +0.100 C 
ATOM     13  C   LIG    1       -0.281  -5.798   4.866  0.00  0.00    +0.100 C 
ATOM     14  C   LIG    1       -0.173  -7.144   4.147  0.00  0.00    +0.080 C 
ATOM     15  C   LIG    1        1.106  -5.273   5.241  0.00  0.00    +0.050 C 
ATOM     16  O   LIG    1       -0.987  -4.840   4.059  0.00  0.00    -0.280 OA
ATOM     17  C   LIG    1       -1.705  -4.014   4.870  0.00  0.00    +0.090 A 
ENDBRANCH   6   7
ENDBRANCH   5   6
ENDBRANCH   3   5
BRANCH   2  18
ATOM     18  C   LIG    1       -2.519   1.252   0.021  0.00  0.00    +0.360 C 
BRANCH  18  19
ATOM     19  C   LIG    1       -1.225   2.023   0.019  0.00  0.00    -0.160 A 
ATOM     20  C   LIG    1       -1.244   3.405   0.032  0.00  0.00    +0.090 A 
ATOM     21  C   LIG    1       -0.057   4.114   0.025  0.00  0.00    -0.030 A 
ATOM     22  C   LIG    1        1.152   3.439   0.010  0.00  0.00    +0.140 A 
ATOM     23  C   LIG    1        1.173   2.055   0.002  0.00  0.00    -0.050 A 
ATOM     24  F   LIG    1        2.312   4.132   0.003  0.00  0.00    -0.130 F 
ATOM     25  C   LIG    1       -0.016   1.347   0.009  0.00  0.00    +0.150 A 
ATOM     26  F   LIG    1        0.002  -0.004   0.002  0.00  0.00    -0.100 F 
ENDBRANCH  18  19
ENDBRANCH   2  18
TORSDOF 5
