REMARK  Name = ZINCrg000000tOKX.0
REMARK                            x       y       z     vdW  Elec       q    Type
REMARK                         _______ _______ _______ _____ _____    ______ ____
ROOT
ATOM      1  O   LIG    1       -2.520   2.301  -0.437  0.00  0.00    -0.460 OA
ATOM      2  C   LIG    1       -3.021   1.676   0.477  0.00  0.00    +0.610 C 
ATOM      3  N   LIG    1       -2.282   1.351   1.557  0.00  0.00    -0.600 N 
ENDROOT
BRANCH   3   4
ATOM      4  C   LIG    1       -2.695   0.243   2.421  0.00  0.00    +0.280 C 
ATOM      5  C   LIG    1       -3.959   0.631   3.208  0.00  0.00    +0.050 C 
ATOM      6  C   LIG    1       -4.561  -0.641   3.836  0.00  0.00    -0.290 C 
ATOM      7  S   LIG    1       -4.058  -2.005   2.725  0.00  0.00    +2.380 S 
ATOM      8  O   LIG    1       -5.203  -2.512   2.053  0.00  0.00    -0.910 OA
ATOM      9  O   LIG    1       -3.196  -2.890   3.426  0.00  0.00    -0.920 OA
ATOM     10  C   LIG    1       -3.069  -0.991   1.560  0.00  0.00    -0.340 C 
ENDBRANCH   3   4
BRANCH   2  11
ATOM     11  C   LIG    1       -4.441   1.272   0.406  0.00  0.00    -0.060 A 
ATOM     12  N   LIG    1       -5.361   1.805  -0.377  0.00  0.00    -0.160 NA
ATOM     13  N   LIG    1       -6.486   1.209  -0.182  0.00  0.00    -0.150 N 
ATOM     14  N   LIG    1       -6.311   0.222   0.797  0.00  0.00    -0.250 NA
ATOM     15  C   LIG    1       -5.051   0.257   1.163  0.00  0.00    +0.210 A 
BRANCH  13  16
ATOM     16  C   LIG    1       -7.688   1.503  -0.838  0.00  0.00    +0.140 A 
ATOM     17  C   LIG    1       -7.761   2.585  -1.705  0.00  0.00    +0.030 A 
ATOM     18  C   LIG    1       -8.947   2.869  -2.355  0.00  0.00    +0.040 A 
ATOM     19  C   LIG    1      -10.063   2.083  -2.134  0.00  0.00    +0.020 A 
ATOM     20  C   LIG    1       -9.995   1.008  -1.267  0.00  0.00    +0.040 A 
ATOM     21  C   LIG    1       -8.811   0.716  -0.619  0.00  0.00    +0.040 A 
ENDBRANCH  13  16
ENDBRANCH   2  11
BRANCH   3  22
ATOM     22  C   LIG    1       -1.065   2.107   1.865  0.00  0.00    +0.330 C 
BRANCH  22  23
ATOM     23  C   LIG    1        0.131   1.454   1.169  0.00  0.00    +0.120 C 
ATOM     24  C   LIG    1        1.438   2.183   1.550  0.00  0.00    +0.010 C 
ATOM     25  C   LIG    1        2.271   2.164   0.248  0.00  0.00    +0.010 C 
ATOM     26  C   LIG    1        1.368   1.426  -0.765  0.00  0.00    +0.190 C 
ATOM     27  O   LIG    1        0.026   1.608  -0.264  0.00  0.00    -0.340 OA
ENDBRANCH  22  23
ENDBRANCH   3  22
TORSDOF 5
