REMARK  Name = ZINCqH0000008qDw.0
REMARK                            x       y       z     vdW  Elec       q    Type
REMARK                         _______ _______ _______ _____ _____    ______ ____
ROOT
ATOM      1  N   LIG    1       -0.847   1.170  -0.816  0.00  0.00    -0.710 N 
ATOM      2  H   LIG    1       -0.124   1.811  -0.908  0.00  0.00    +0.400 HD
ATOM      3  C   LIG    1       -0.571  -0.129  -0.587  0.00  0.00    +0.540 C 
ATOM      4  O   LIG    1       -1.476  -0.931  -0.471  0.00  0.00    -0.490 OA
ENDROOT
BRANCH   3   5
ATOM      5  C   LIG    1        0.833  -0.578  -0.475  0.00  0.00    -0.030 A 
ATOM      6  C   LIG    1        1.876   0.312  -0.737  0.00  0.00    +0.040 A 
ATOM      7  C   LIG    1        3.185  -0.114  -0.631  0.00  0.00    +0.090 A 
ATOM      8  C   LIG    1        3.464  -1.418  -0.265  0.00  0.00    +0.040 A 
ATOM      9  C   LIG    1        2.434  -2.305  -0.004  0.00  0.00    +0.150 A 
ATOM     10  C   LIG    1        1.122  -1.891  -0.101  0.00  0.00    -0.620 A 
BRANCH  10  11
ATOM     11  S   LIG    1       -0.188  -3.020   0.239  0.00  0.00    +2.500 S 
ATOM     12  O   LIG    1        0.470  -4.257   0.480  0.00  0.00    -0.880 OA
ATOM     13  O   LIG    1       -1.078  -2.865  -0.857  0.00  0.00    -0.820 OA
BRANCH  11  14
ATOM     14  C   LIG    1       -0.942  -2.392   1.765  0.00  0.00    -0.010 C 
ATOM     15  F   LIG    1       -0.035  -2.526   2.822  0.00  0.00    -0.170 F 
ATOM     16  F   LIG    1       -2.100  -3.124   2.048  0.00  0.00    -0.160 F 
ATOM     17  F   LIG    1       -1.271  -1.042   1.601  0.00  0.00    -0.150 F 
ENDBRANCH  11  14
ENDBRANCH  10  11
ENDBRANCH   3   5
BRANCH   1  19
ATOM     18  C   LIG    1       -2.720   1.409  -2.371  0.00  0.00    +0.050 C 
ATOM     19  C   LIG    1       -2.238   1.614  -0.933  0.00  0.00    +0.300 C 
BRANCH  19  20
ATOM     20  C   LIG    1       -2.331   3.075  -0.576  0.00  0.00    -0.140 A 
ATOM     21  C   LIG    1       -1.223   3.890  -0.708  0.00  0.00    +0.080 A 
ATOM     22  C   LIG    1       -1.308   5.231  -0.385  0.00  0.00    -0.010 A 
ATOM     23  C   LIG    1       -2.501   5.758   0.082  0.00  0.00    +0.130 A 
ATOM     24  C   LIG    1       -3.610   4.941   0.219  0.00  0.00    -0.030 A 
ATOM     25  F   LIG    1       -2.583   7.067   0.402  0.00  0.00    -0.130 F 
ATOM     26  C   LIG    1       -3.525   3.599  -0.109  0.00  0.00    +0.150 A 
ATOM     27  F   LIG    1       -4.607   2.801   0.024  0.00  0.00    -0.120 F 
ENDBRANCH  19  20
ENDBRANCH   1  19
TORSDOF 5
