REMARK  Name = ZINCrD0000072uLR.0
REMARK                            x       y       z     vdW  Elec       q    Type
REMARK                         _______ _______ _______ _____ _____    ______ ____
ROOT
ATOM      1  N   LIG    1       -6.251   6.648   0.635  0.00  0.00    -0.680 N 
ATOM      2  H   LIG    1       -7.185   6.388   0.609  0.00  0.00    +0.410 HD
ATOM      3  C   LIG    1       -5.330   5.916  -0.021  0.00  0.00    +0.520 C 
ATOM      4  O   LIG    1       -4.172   6.276  -0.043  0.00  0.00    -0.500 OA
ENDROOT
BRANCH   1   8
ATOM      5  C   LIG    1       -5.087  10.024   2.779  0.00  0.00    -0.150 A 
ATOM      6  C   LIG    1       -6.287  10.029   2.063  0.00  0.00    +0.100 A 
ATOM      7  C   LIG    1       -6.669   8.911   1.355  0.00  0.00    -0.020 A 
ATOM      8  C   LIG    1       -5.862   7.778   1.353  0.00  0.00    +0.170 A 
ATOM      9  C   LIG    1       -4.669   7.768   2.070  0.00  0.00    +0.010 A 
ATOM     10  C   LIG    1       -4.279   8.884   2.775  0.00  0.00    +0.060 A 
BRANCH   5  13
ATOM     11  C   LIG    1       -2.931  12.744   4.296  0.00  0.00    +0.300 C 
ATOM     12  N   LIG    1       -3.371  11.438   3.798  0.00  0.00    -0.620 N 
ATOM     13  C   LIG    1       -4.676  11.220   3.540  0.00  0.00    +0.560 C 
ATOM     14  O   LIG    1       -5.513  12.009   3.933  0.00  0.00    -0.530 OA
ATOM     15  C   LIG    1       -2.393  10.369   3.582  0.00  0.00    +0.300 C 
ENDBRANCH   5  13
ENDBRANCH   1   8
BRANCH   3  16
ATOM     16  C   LIG    1       -5.738   4.649  -0.729  0.00  0.00    +0.140 C 
BRANCH  16  17
ATOM     17  C   LIG    1       -4.530   4.026  -1.379  0.00  0.00    -0.050 A 
ATOM     18  C   LIG    1       -4.192   4.367  -2.675  0.00  0.00    +0.050 A 
ATOM     19  C   LIG    1       -3.084   3.797  -3.279  0.00  0.00    -0.030 A 
ATOM     20  C   LIG    1       -2.314   2.883  -2.579  0.00  0.00    +0.080 A 
ATOM     21  O   LIG    1       -1.220   2.312  -3.162  0.00  0.00    -0.310 OA
ATOM     22  C   LIG    1        0.046   2.693  -2.619  0.00  0.00    +0.230 C 
ATOM     23  C   LIG    1        0.389   1.844  -1.405  0.00  0.00    -0.010 C 
ATOM     24  C   LIG    1       -0.575   2.070  -0.252  0.00  0.00    +0.230 C 
ATOM     25  O   LIG    1       -1.891   1.638  -0.596  0.00  0.00    -0.310 OA
ATOM     26  C   LIG    1       -2.654   2.541  -1.278  0.00  0.00    +0.080 A 
ATOM     27 CL   LIG    1       -2.660   4.227  -4.907  0.00  0.00    -0.040 Cl
ATOM     28  C   LIG    1       -3.763   3.112  -0.677  0.00  0.00    +0.040 A 
ENDBRANCH  16  17
ENDBRANCH   3  16
TORSDOF 4
