REMARK  Name = ZINCvU0000000EIZ.0
REMARK                            x       y       z     vdW  Elec       q    Type
REMARK                         _______ _______ _______ _____ _____    ______ ____
ROOT
ATOM      1  C   LIG    1        1.988  -4.139  -0.039  0.00  0.00    -0.090 A 
ATOM      2  C   LIG    1        2.369  -2.827  -0.041  0.00  0.00    +0.190 A 
ATOM      3  N   LIG    1        1.237  -2.081  -0.021  0.00  0.00    -0.230 N 
ATOM      4  N   LIG    1        0.189  -2.821  -0.015  0.00  0.00    -0.250 NA
ATOM      5  C   LIG    1        0.520  -4.097  -0.025  0.00  0.00    +0.000 A 
ENDROOT
BRANCH   1   9
ATOM      6  C   LIG    1        4.492  -7.582  -0.080  0.00  0.00    +0.110 A 
ATOM      7  C   LIG    1        3.469  -7.480   0.850  0.00  0.00    -0.030 A 
ATOM      8  C   LIG    1        2.659  -6.362   0.868  0.00  0.00    +0.070 A 
ATOM      9  C   LIG    1        2.862  -5.338  -0.055  0.00  0.00    -0.010 A 
ATOM     10  C   LIG    1        3.891  -5.440  -0.990  0.00  0.00    -0.030 A 
ATOM     11  C   LIG    1        4.703  -6.559  -1.001  0.00  0.00    +0.090 A 
BRANCH   6  13
ATOM     12  C   LIG    1        5.019  -9.692   0.883  0.00  0.00    +0.240 C 
ATOM     13  O   LIG    1        5.292  -8.682  -0.091  0.00  0.00    -0.310 OA
ENDBRANCH   6  13
BRANCH  11  14
ATOM     14  O   LIG    1        5.707  -6.662  -1.913  0.00  0.00    -0.310 OA
ATOM     15  C   LIG    1        5.866  -5.576  -2.828  0.00  0.00    +0.230 C 
ENDBRANCH  11  14
ENDBRANCH   1   9
BRANCH   3  16
ATOM     16  C   LIG    1        1.215  -0.680  -0.013  0.00  0.00    +0.130 A 
ATOM     17  C   LIG    1        0.002  -0.004   0.002  0.00  0.00    +0.030 A 
ATOM     18  C   LIG    1       -0.017   1.377   0.010  0.00  0.00    +0.040 A 
ATOM     19  C   LIG    1        1.171   2.086   0.002  0.00  0.00    +0.010 A 
ATOM     20  C   LIG    1        2.380   1.415  -0.013  0.00  0.00    +0.050 A 
ATOM     21  C   LIG    1        2.405   0.035  -0.021  0.00  0.00    +0.000 A 
ENDBRANCH   3  16
BRANCH   5  22
ATOM     22  C   LIG    1       -0.399  -5.251  -0.022  0.00  0.00    +0.600 C 
ATOM     23  N   LIG    1       -1.732  -5.051  -0.009  0.00  0.00    -0.720 N 
ATOM     24  H   LIG    1       -2.086  -4.148  -0.001  0.00  0.00    +0.400 HD
ATOM     25  O   LIG    1        0.046  -6.383  -0.032  0.00  0.00    -0.510 OA
BRANCH  23  26
ATOM     26  C   LIG    1       -2.645  -6.196  -0.006  0.00  0.00    +0.240 C 
ATOM     27  C   LIG    1       -2.842  -6.681  -1.457  0.00  0.00    +0.020 C 
ATOM     28  C   LIG    1       -3.329  -8.105  -1.423  0.00  0.00    +0.000 C 
ATOM     29  C   LIG    1       -4.866  -8.202  -1.486  0.00  0.00    +0.000 C 
ATOM     30  C   LIG    1       -5.567  -7.146  -0.611  0.00  0.00    +0.000 C 
ATOM     31  C   LIG    1       -4.898  -6.968   0.725  0.00  0.00    +0.030 C 
ATOM     32  C   LIG    1       -3.897  -5.799   0.620  0.00  0.00    +0.010 C 
ENDBRANCH  23  26
ENDBRANCH   5  22
TORSDOF 6
