REMARK  Name = ZINCpe000000ZvIr.0
REMARK                            x       y       z     vdW  Elec       q    Type
REMARK                         _______ _______ _______ _____ _____    ______ ____
ROOT
ATOM      1  O   LIG    1        3.829  -5.951  -4.531  0.00  0.00    -0.530 OA
ATOM      2  C   LIG    1        3.970  -4.748  -4.428  0.00  0.00    +0.570 C 
ATOM      3  N   LIG    1        3.171  -4.044  -3.603  0.00  0.00    -0.590 N 
ATOM      4  C   LIG    1        2.296  -4.731  -2.643  0.00  0.00    +0.290 C 
ATOM      5  C   LIG    1        0.854  -4.261  -2.869  0.00  0.00    +0.280 C 
ATOM      6  N   LIG    1        0.841  -2.792  -2.914  0.00  0.00    -0.610 N 
ATOM      7  C   LIG    1        1.712  -2.105  -3.878  0.00  0.00    +0.260 C 
ATOM      8  C   LIG    1        0.040  -2.087  -2.089  0.00  0.00    +0.520 C 
ATOM      9  O   LIG    1       -0.601  -2.659  -1.233  0.00  0.00    -0.530 OA
ATOM     10  C   LIG    1        3.158  -2.575  -3.647  0.00  0.00    +0.290 C 
ENDROOT
BRANCH   8  11
ATOM     11  C   LIG    1       -0.057  -0.590  -2.231  0.00  0.00    +0.000 C 
ATOM     12  C   LIG    1       -1.472  -0.136  -1.867  0.00  0.00    +0.060 C 
ATOM     13  C   LIG    1       -1.670   1.327  -2.284  0.00  0.00    +0.140 C 
ATOM     14  C   LIG    1       -0.517   2.134  -1.736  0.00  0.00    +0.080 A 
ATOM     15  N   LIG    1       -0.432   3.424  -1.594  0.00  0.00    -0.290 NA
ATOM     16  N   LIG    1        0.824   3.720  -1.042  0.00  0.00    -0.480 N 
ATOM     17  H   LIG    1        1.158   4.605  -0.828  0.00  0.00    +0.440 HD
ATOM     18  C   LIG    1        1.486   2.556  -0.862  0.00  0.00    +0.250 A 
ATOM     19  C   LIG    1        0.683   1.561  -1.283  0.00  0.00    -0.240 A 
ATOM     20  C   LIG    1        0.958   0.078  -1.295  0.00  0.00    +0.120 C 
ENDBRANCH   8  11
BRANCH   2  21
ATOM     21  C   LIG    1        5.022  -4.056  -5.209  0.00  0.00    +0.080 A 
ATOM     22  C   LIG    1        5.738  -4.758  -6.176  0.00  0.00    +0.040 A 
ATOM     23  C   LIG    1        6.716  -4.096  -6.902  0.00  0.00    +0.070 A 
ATOM     24  C   LIG    1        6.950  -2.757  -6.629  0.00  0.00    -0.010 A 
ATOM     25  C   LIG    1        6.202  -2.123  -5.649  0.00  0.00    +0.260 A 
ATOM     26  N   LIG    1        5.277  -2.774  -4.978  0.00  0.00    -0.450 NA
ENDBRANCH   2  21
TORSDOF 2
