REMARK  Name = ZINCtV00000L6kzT.0
REMARK                            x       y       z     vdW  Elec       q    Type
REMARK                         _______ _______ _______ _____ _____    ______ ____
ROOT
ATOM      1  C   LIG    1       -3.085   1.448   0.313  0.00  0.00    +0.380 C 
ENDROOT
BRANCH   1   2
ATOM      2  C   LIG    1       -1.994   1.668   1.328  0.00  0.00    -0.180 A 
ATOM      3  C   LIG    1       -2.118   2.284   2.515  0.00  0.00    +0.110 A 
ATOM      4  N   LIG    1       -0.915   2.290   3.166  0.00  0.00    -0.590 N 
ATOM      5  H   LIG    1       -0.758   2.676   4.042  0.00  0.00    +0.410 HD
ATOM      6  C   LIG    1        0.039   1.667   2.393  0.00  0.00    +0.090 A 
ATOM      7  C   LIG    1        1.393   1.404   2.571  0.00  0.00    -0.010 A 
ATOM      8  C   LIG    1        2.097   0.744   1.587  0.00  0.00    +0.020 A 
ATOM      9  C   LIG    1        1.468   0.338   0.418  0.00  0.00    -0.020 A 
ATOM     10  C   LIG    1        0.138   0.586   0.223  0.00  0.00    +0.040 A 
ATOM     11  C   LIG    1       -3.396   2.875   3.052  0.00  0.00    +0.140 C 
ATOM     12  C   LIG    1       -0.594   1.253   1.206  0.00  0.00    -0.080 A 
ENDBRANCH   1   2
BRANCH   1  13
ATOM     13  C   LIG    1       -2.924   2.430  -0.818  0.00  0.00    -0.050 A 
ATOM     14  C   LIG    1       -2.013   2.179  -1.827  0.00  0.00    +0.020 A 
ATOM     15  C   LIG    1       -1.869   3.078  -2.868  0.00  0.00    +0.080 A 
ATOM     16  C   LIG    1       -2.629   4.232  -2.894  0.00  0.00    -0.180 A 
ATOM     17  C   LIG    1       -3.537   4.486  -1.883  0.00  0.00    +0.080 A 
ATOM     18  C   LIG    1       -3.684   3.584  -0.845  0.00  0.00    +0.030 A 
BRANCH  16  19
ATOM     19  C   LIG    1       -2.468   5.214  -4.026  0.00  0.00    +0.510 C 
ATOM     20  F   LIG    1       -3.682   5.874  -4.247  0.00  0.00    -0.180 F 
ATOM     21  F   LIG    1       -2.091   4.530  -5.187  0.00  0.00    -0.180 F 
ATOM     22  F   LIG    1       -1.482   6.150  -3.695  0.00  0.00    -0.180 F 
ENDBRANCH  16  19
ENDBRANCH   1  13
BRANCH   1  23
ATOM     23  N   LIG    1       -2.998   0.082  -0.209  0.00  0.00    -0.710 N 
ATOM     24  H   LIG    1       -2.516  -0.092  -1.033  0.00  0.00    +0.400 HD
BRANCH  23  31
ATOM     25  C   LIG    1       -2.782  -2.532  -1.313  0.00  0.00    +0.100 C 
ATOM     26  C   LIG    1       -3.524  -2.258  -0.030  0.00  0.00    -0.200 A 
ATOM     27  C   LIG    1       -4.129  -3.290   0.663  0.00  0.00    +0.090 A 
ATOM     28  C   LIG    1       -4.808  -2.991   1.837  0.00  0.00    -0.100 A 
ATOM     29  C   LIG    1       -4.854  -1.684   2.277  0.00  0.00    +0.290 A 
ATOM     30  N   LIG    1       -4.263  -0.720   1.598  0.00  0.00    -0.530 NA
ATOM     31  C   LIG    1       -3.606  -0.964   0.474  0.00  0.00    +0.410 A 
ENDBRANCH  23  31
ENDBRANCH   1  23
TORSDOF 5
