REMARK  Name = ZINCkj000005hUly.0
REMARK                            x       y       z     vdW  Elec       q    Type
REMARK                         _______ _______ _______ _____ _____    ______ ____
ROOT
ATOM      1  O   LIG    1        1.376   1.645  -2.415  0.00  0.00    -0.300 OA
ENDROOT
BRANCH   1   5
ATOM      2  C   LIG    1        3.030   0.746  -6.089  0.00  0.00    -0.160 A 
ATOM      3  C   LIG    1        1.872   1.525  -6.013  0.00  0.00    +0.140 A 
ATOM      4  C   LIG    1        1.324   1.822  -4.786  0.00  0.00    +0.000 A 
ATOM      5  C   LIG    1        1.920   1.349  -3.623  0.00  0.00    +0.160 A 
ATOM      6  C   LIG    1        3.075   0.579  -3.693  0.00  0.00    -0.090 A 
ATOM      7  C   LIG    1        3.627   0.272  -4.916  0.00  0.00    +0.130 A 
BRANCH   2   8
ATOM      8  C   LIG    1        3.622   0.425  -7.401  0.00  0.00    +0.510 C 
ATOM      9  O   LIG    1        3.102   0.837  -8.419  0.00  0.00    -0.500 OA
BRANCH   8  11
ATOM     10  C   LIG    1        5.265  -0.603  -8.796  0.00  0.00    +0.290 C 
ATOM     11  O   LIG    1        4.738  -0.326  -7.471  0.00  0.00    -0.360 OA
ENDBRANCH   8  11
ENDBRANCH   2   8
ENDBRANCH   1   5
BRANCH   1  12
ATOM     12  C   LIG    1        2.040   1.127  -1.261  0.00  0.00    +0.200 C 
BRANCH  12  13
ATOM     13  C   LIG    1        1.286   1.562  -0.002  0.00  0.00    +0.220 C 
BRANCH  13  14
ATOM     14  O   LIG    1       -0.011   0.963   0.007  0.00  0.00    -0.540 OA
ATOM     15  H   LIG    1        0.002  -0.004   0.002  0.00  0.00    +0.390 HD
ENDBRANCH  13  14
BRANCH  13  16
ATOM     16  C   LIG    1        2.064   1.114   1.238  0.00  0.00    +0.240 C 
BRANCH  16  17
ATOM     17  N   LIG    1        1.340   1.531   2.446  0.00  0.00    -0.390 N 
ATOM     18  C   LIG    1       -0.024   0.943   2.455  0.00  0.00    +0.280 C 
ATOM     19  C   LIG    1       -0.417   0.983   3.953  0.00  0.00    +0.070 C 
ATOM     20  C   LIG    1        0.913   0.652   4.669  0.00  0.00    +0.050 C 
ATOM     21  C   LIG    1        2.015   1.003   3.652  0.00  0.00    +0.250 C 
ATOM     22  H   LIG    1        1.287   2.538   2.490  0.00  0.00    +0.430 HD
ENDBRANCH  16  17
ENDBRANCH  13  16
ENDBRANCH  12  13
ENDBRANCH   1  12
TORSDOF 8
