REMARK  Name = ZINCrg000000oTIe.0
REMARK                            x       y       z     vdW  Elec       q    Type
REMARK                         _______ _______ _______ _____ _____    ______ ____
ROOT
ATOM      1  N   LIG    1        1.098   3.994   1.397  0.00  0.00    -0.530 NA
ATOM      2  C   LIG    1        2.100   3.281   2.199  0.00  0.00    +0.170 C 
ATOM      3  C   LIG    1        1.978   3.704   3.665  0.00  0.00    +0.040 C 
ATOM      4  C   LIG    1        2.192   5.216   3.774  0.00  0.00    -0.010 C 
ATOM      5  C   LIG    1        1.167   5.934   2.892  0.00  0.00    +0.070 C 
ATOM      6  C   LIG    1        1.313   5.446   1.449  0.00  0.00    +0.190 C 
ENDROOT
BRANCH   4   7
ATOM      7  C   LIG    1        2.014   5.648   5.207  0.00  0.00    +0.520 C 
ATOM      8  N   LIG    1        2.812   5.142   6.168  0.00  0.00    -0.730 N 
ATOM      9  H   LIG    1        3.502   4.500   5.937  0.00  0.00    +0.400 HD
ATOM     10  O   LIG    1        1.152   6.450   5.496  0.00  0.00    -0.530 OA
BRANCH   8  11
ATOM     11  C   LIG    1        2.639   5.561   7.561  0.00  0.00    +0.320 C 
BRANCH  11  12
ATOM     12  C   LIG    1        3.649   4.854   8.428  0.00  0.00    -0.110 A 
ATOM     13  C   LIG    1        3.334   3.638   9.003  0.00  0.00    +0.020 A 
ATOM     14  C   LIG    1        4.262   2.987   9.794  0.00  0.00    +0.000 A 
ATOM     15  C   LIG    1        5.501   3.558  10.019  0.00  0.00    +0.010 A 
ATOM     16  C   LIG    1        5.814   4.777   9.448  0.00  0.00    +0.000 A 
ATOM     17  C   LIG    1        4.888   5.425   8.652  0.00  0.00    +0.020 A 
ENDBRANCH  11  12
ENDBRANCH   8  11
ENDBRANCH   4   7
BRANCH   1  18
ATOM     18  C   LIG    1        1.093   3.512   0.010  0.00  0.00    +0.300 C 
BRANCH  18  21
ATOM     19  C   LIG    1        0.002  -0.004   0.002  0.00  0.00    +0.630 A 
ATOM     20  N   LIG    1       -0.016   1.327   0.009  0.00  0.00    -0.620 NA
ATOM     21  C   LIG    1        1.119   2.005   0.002  0.00  0.00    +0.430 A 
ATOM     22  N   LIG    1        2.275   1.365  -0.012  0.00  0.00    -0.640 NA
ATOM     23  C   LIG    1        2.301   0.034  -0.020  0.00  0.00    +0.630 A 
ATOM     24  N   LIG    1        1.163  -0.651  -0.013  0.00  0.00    -0.650 NA
BRANCH  19  26
ATOM     25  C   LIG    1       -2.462   0.003   0.025  0.00  0.00    +0.320 C 
ATOM     26  N   LIG    1       -1.183  -0.711   0.009  0.00  0.00    -0.580 N 
ATOM     27  C   LIG    1       -1.162  -2.176   0.001  0.00  0.00    +0.310 C 
ENDBRANCH  19  26
BRANCH  23  28
ATOM     28  N   LIG    1        3.509  -0.633  -0.035  0.00  0.00    -0.810 N 
ATOM     29  H   LIG    1        4.339  -0.132  -0.041  0.00  0.00    +0.420 HD
ATOM     30  H   LIG    1        3.527  -1.603  -0.041  0.00  0.00    +0.420 HD
ENDBRANCH  23  28
ENDBRANCH  18  21
ENDBRANCH   1  18
TORSDOF 7
