REMARK  Name = ZINCvU0000000Bp4.1
REMARK                            x       y       z     vdW  Elec       q    Type
REMARK                         _______ _______ _______ _____ _____    ______ ____
ROOT
ATOM      1  C   LIG    1        1.388   1.624   0.016  0.00  0.00    -0.210 C 
ATOM      2  C   LIG    1        1.524   2.331  -1.131  0.00  0.00    +0.100 C 
ATOM      3  C   LIG    1        0.247   2.302  -1.873  0.00  0.00    +0.520 C 
ATOM      4  N   LIG    1       -0.665   1.586  -1.191  0.00  0.00    -0.500 N 
ATOM      5  O   LIG    1        0.049   2.845  -2.942  0.00  0.00    -0.480 OA
ATOM      6  C   LIG    1       -0.030   1.105   0.042  0.00  0.00    +0.360 C 
ENDROOT
BRANCH   6   7
ATOM      7  C   LIG    1       -0.758   1.644   1.246  0.00  0.00    -0.100 A 
ATOM      8  C   LIG    1       -1.161   2.966   1.275  0.00  0.00    +0.020 A 
ATOM      9  C   LIG    1       -1.833   3.461   2.377  0.00  0.00    +0.010 A 
ATOM     10  C   LIG    1       -2.093   2.635   3.455  0.00  0.00    -0.050 A 
ATOM     11  C   LIG    1       -1.686   1.315   3.429  0.00  0.00    +0.020 A 
ATOM     12  C   LIG    1       -1.018   0.819   2.324  0.00  0.00    +0.040 A 
BRANCH  10  13
ATOM     13  C   LIG    1       -2.821   3.175   4.660  0.00  0.00    -0.030 C 
ATOM     14  C   LIG    1       -4.114   2.385   4.871  0.00  0.00    +0.040 C 
ATOM     15  C   LIG    1       -3.156   4.651   4.433  0.00  0.00    +0.030 C 
ATOM     16  C   LIG    1       -1.931   3.038   5.896  0.00  0.00    +0.040 C 
ENDBRANCH  10  13
ENDBRANCH   6   7
BRANCH   4  17
ATOM     17  C   LIG    1       -1.974   1.345  -1.583  0.00  0.00    +0.270 A 
ATOM     18  N   LIG    1       -2.834   0.645  -0.911  0.00  0.00    -0.490 NA
ATOM     19  C   LIG    1       -4.040   0.520  -1.432  0.00  0.00    +0.250 A 
ATOM     20  C   LIG    1       -4.204   1.135  -2.605  0.00  0.00    -0.110 A 
ATOM     21  S   LIG    1       -2.685   1.920  -3.028  0.00  0.00    +0.210 S 
ENDBRANCH   4  17
BRANCH   1  22
ATOM     22  C   LIG    1        2.418   1.406   1.036  0.00  0.00    +0.470 C 
ATOM     23  O   LIG    1        2.841   2.345   1.684  0.00  0.00    -0.420 OA
BRANCH  22  28
ATOM     24  C   LIG    1        4.460  -3.892   1.975  0.00  0.00    +0.100 C 
ATOM     25  C   LIG    1        3.925  -2.504   1.729  0.00  0.00    -0.050 A 
ATOM     26  C   LIG    1        4.321  -1.459   2.545  0.00  0.00    +0.000 A 
ATOM     27  C   LIG    1        3.836  -0.187   2.325  0.00  0.00    +0.090 A 
ATOM     28  C   LIG    1        2.943   0.045   1.277  0.00  0.00    -0.170 A 
ATOM     29  C   LIG    1        2.544  -1.015   0.461  0.00  0.00    +0.060 A 
ATOM     30  C   LIG    1        3.041  -2.282   0.688  0.00  0.00    +0.000 A 
ENDBRANCH  22  28
ENDBRANCH   1  22
BRANCH   2  31
ATOM     31  O   LIG    1        2.651   2.963  -1.534  0.00  0.00    -0.420 OA
ATOM     32  H   LIG    1        2.564   3.419  -2.382  0.00  0.00    +0.420 HD
ENDBRANCH   2  31
TORSDOF 6
