REMARK  Name = ZINCpe000027pHk0.0
REMARK                            x       y       z     vdW  Elec       q    Type
REMARK                         _______ _______ _______ _____ _____    ______ ____
ROOT
ATOM      1  N   LIG    1       -0.024   5.886  -1.137  0.00  0.00    -0.990 NA
ENDROOT
BRANCH   1   2
ATOM      2  S   LIG    1       -1.377   6.600  -1.772  0.00  0.00    +2.680 S 
ATOM      3  O   LIG    1       -2.482   5.815  -1.346  0.00  0.00    -0.950 OA
ATOM      4  O   LIG    1       -1.089   6.859  -3.139  0.00  0.00    -0.960 OA
BRANCH   2   6
ATOM      5  C   LIG    1       -2.644   8.454  -0.328  0.00  0.00    +0.240 C 
ATOM      6  C   LIG    1       -1.552   8.171  -0.994  0.00  0.00    -0.590 C 
ENDBRANCH   2   6
ENDBRANCH   1   2
BRANCH   1   7
ATOM      7  C   LIG    1       -0.133   5.040   0.054  0.00  0.00    +0.370 C 
BRANCH   7   8
ATOM      8  C   LIG    1        0.599   5.690   1.200  0.00  0.00    -0.060 A 
ATOM      9  C   LIG    1        1.855   5.293   1.516  0.00  0.00    +0.080 A 
ATOM     10  C   LIG    1        2.564   5.877   2.566  0.00  0.00    +0.050 A 
ATOM     11  C   LIG    1        2.025   6.860   3.326  0.00  0.00    +0.080 A 
ATOM     12  C   LIG    1        0.714   7.326   3.053  0.00  0.00    +0.080 A 
ATOM     13  N   LIG    1       -0.015   8.262   3.639  0.00  0.00    -0.590 NA
ATOM     14  S   LIG    1       -1.394   8.365   2.928  0.00  0.00    +0.790 S 
ATOM     15  N   LIG    1       -1.224   7.270   1.836  0.00  0.00    -0.590 NA
ATOM     16  C   LIG    1       -0.026   6.719   1.949  0.00  0.00    +0.090 A 
ENDBRANCH   7   8
ENDBRANCH   1   7
BRANCH   1  17
ATOM     17  C   LIG    1        1.282   6.100  -1.767  0.00  0.00    +0.280 C 
BRANCH  17  18
ATOM     18  C   LIG    1        1.592   4.933  -2.706  0.00  0.00    +0.270 C 
BRANCH  18  19
ATOM     19  N   LIG    1        2.844   5.201  -3.420  0.00  0.00    -0.600 N 
ATOM     20  C   LIG    1        2.780   5.830  -4.737  0.00  0.00    +0.240 C 
ATOM     21  C   LIG    1        4.144   6.429  -5.093  0.00  0.00    +0.230 C 
ATOM     22  O   LIG    1        5.151   5.434  -4.868  0.00  0.00    -0.370 OA
ATOM     23  C   LIG    1        5.333   5.128  -3.483  0.00  0.00    +0.270 C 
ATOM     24  C   LIG    1        4.000   4.854  -2.842  0.00  0.00    +0.490 C 
ATOM     25  O   LIG    1        3.973   4.300  -1.764  0.00  0.00    -0.540 OA
ENDBRANCH  18  19
ENDBRANCH  17  18
ENDBRANCH   1  17
TORSDOF 7
