REMARK  Name = ZINCvU0000000FT3.0
REMARK                            x       y       z     vdW  Elec       q    Type
REMARK                         _______ _______ _______ _____ _____    ______ ____
ROOT
ATOM      1  C   LIG    1       -4.167  -0.496  -5.220  0.00  0.00    +0.280 A 
ATOM      2  C   LIG    1       -3.813  -0.045  -3.944  0.00  0.00    -0.030 A 
ATOM      3  C   LIG    1       -3.191  -0.920  -3.062  0.00  0.00    -0.000 A 
ATOM      4  C   LIG    1       -2.954  -2.244  -3.498  0.00  0.00    -0.190 A 
ATOM      5  C   LIG    1       -2.368  -3.378  -2.897  0.00  0.00    +0.290 A 
ATOM      6  N   LIG    1       -2.398  -4.362  -3.751  0.00  0.00    -0.230 NA
ATOM      7  N   LIG    1       -2.996  -3.937  -4.942  0.00  0.00    -0.380 N 
ATOM      8  C   LIG    1       -3.347  -2.619  -4.798  0.00  0.00    +0.320 A 
ATOM      9  N   LIG    1       -3.931  -1.741  -5.600  0.00  0.00    -0.490 NA
ENDROOT
BRANCH   1  13
ATOM     10  C   LIG    1       -6.264   3.680  -7.286  0.00  0.00    +0.170 C 
ATOM     11  C   LIG    1       -5.743   2.285  -7.054  0.00  0.00    -0.010 A 
ATOM     12  C   LIG    1       -5.165   1.846  -5.924  0.00  0.00    -0.030 A 
ATOM     13  C   LIG    1       -4.825   0.438  -6.163  0.00  0.00    -0.170 A 
ATOM     14  C   LIG    1       -5.233   0.171  -7.432  0.00  0.00    +0.060 A 
ATOM     15  C   LIG    1       -5.095  -1.151  -8.142  0.00  0.00    +0.190 C 
ATOM     16  O   LIG    1       -5.782   1.281  -7.943  0.00  0.00    -0.180 OA
ENDBRANCH   1  13
BRANCH   3  17
ATOM     17  C   LIG    1       -2.796  -0.481  -1.706  0.00  0.00    +0.560 C 
ATOM     18  N   LIG    1       -3.032   0.785  -1.311  0.00  0.00    -0.710 N 
ATOM     19  H   LIG    1       -3.461   1.410  -1.917  0.00  0.00    +0.400 HD
ATOM     20  O   LIG    1       -2.257  -1.264  -0.947  0.00  0.00    -0.520 OA
BRANCH  18  21
ATOM     21  C   LIG    1       -2.640   1.220   0.032  0.00  0.00    +0.280 C 
ATOM     22  C   LIG    1       -3.513   2.409   0.486  0.00  0.00    +0.050 C 
ATOM     23  C   LIG    1       -2.671   3.625   0.045  0.00  0.00    +0.070 C 
ATOM     24  C   LIG    1       -1.240   3.132   0.029  0.00  0.00    -0.090 A 
ATOM     25  C   LIG    1       -0.048   3.836   0.022  0.00  0.00    +0.010 A 
ATOM     26  C   LIG    1        1.158   3.163   0.008  0.00  0.00    +0.010 A 
ATOM     27  C   LIG    1        1.176   1.780   0.000  0.00  0.00    +0.000 A 
ATOM     28  C   LIG    1       -0.013   1.076   0.008  0.00  0.00    +0.040 A 
ATOM     29  C   LIG    1       -1.222   1.749   0.017  0.00  0.00    -0.120 A 
ENDBRANCH  18  21
ENDBRANCH   3  17
BRANCH   7  30
ATOM     30  C   LIG    1       -3.211  -4.757  -6.137  0.00  0.00    +0.270 C 
ATOM     31  C   LIG    1       -4.099  -5.952  -5.782  0.00  0.00    +0.050 C 
ATOM     32  C   LIG    1       -1.864  -5.261  -6.659  0.00  0.00    +0.050 C 
ENDBRANCH   7  30
TORSDOF 4
