REMARK  Name = ZINCrH00000tj11D.1
REMARK                            x       y       z     vdW  Elec       q    Type
REMARK                         _______ _______ _______ _____ _____    ______ ____
ROOT
ATOM      1  S   LIG    1       -2.353  -1.732   0.539  0.00  0.00    +0.100 S 
ENDROOT
BRANCH   1   2
ATOM      2  C   LIG    1       -1.769  -1.312  -1.070  0.00  0.00    +0.380 A 
ATOM      3  N   LIG    1       -2.399  -1.780  -2.128  0.00  0.00    -0.600 NA
ATOM      4  C   LIG    1       -1.988  -1.485  -3.365  0.00  0.00    +0.390 A 
ATOM      5  C   LIG    1       -0.882  -0.672  -3.547  0.00  0.00    -0.180 A 
ATOM      6  C   LIG    1       -0.220  -0.173  -2.420  0.00  0.00    +0.540 A 
ATOM      7  O   LIG    1        0.756   0.550  -2.542  0.00  0.00    -0.520 OA
ATOM      8  N   LIG    1       -0.676  -0.509  -1.195  0.00  0.00    -0.500 N 
BRANCH   8   9
ATOM      9  C   LIG    1        0.002  -0.004   0.002  0.00  0.00    +0.230 C 
ATOM     10  C   LIG    1       -0.019   1.534   0.011  0.00  0.00    +0.030 C 
ATOM     11  C   LIG    1        1.453   1.995  -0.001  0.00  0.00    +0.030 C 
ATOM     12  C   LIG    1        2.232   0.792   0.586  0.00  0.00    +0.020 C 
ATOM     13  C   LIG    1        1.486  -0.425  -0.014  0.00  0.00    +0.030 C 
ENDBRANCH   8   9
BRANCH   4  14
ATOM     14  O   LIG    1       -2.652  -1.978  -4.436  0.00  0.00    -0.440 OA
ATOM     15  H   LIG    1       -3.410  -2.534  -4.207  0.00  0.00    +0.410 HD
ENDBRANCH   4  14
ENDBRANCH   1   2
BRANCH   1  16
ATOM     16  C   LIG    1       -3.766  -2.773   0.098  0.00  0.00    +0.100 C 
BRANCH  16  19
ATOM     17  N   LIG    1       -5.524  -4.059   1.270  0.00  0.00    -0.710 N 
ATOM     18  H   LIG    1       -5.870  -4.318   0.402  0.00  0.00    +0.400 HD
ATOM     19  C   LIG    1       -4.440  -3.262   1.354  0.00  0.00    +0.540 C 
ATOM     20  O   LIG    1       -4.008  -2.938   2.440  0.00  0.00    -0.510 OA
BRANCH  17  21
ATOM     21  C   LIG    1       -6.180  -4.534   2.491  0.00  0.00    +0.340 C 
BRANCH  21  22
ATOM     22  C   LIG    1       -6.912  -5.819   2.201  0.00  0.00    -0.200 A 
ATOM     23  C   LIG    1       -6.959  -6.877   3.012  0.00  0.00    +0.020 A 
ATOM     24  C   LIG    1       -7.697  -7.946   2.533  0.00  0.00    +0.010 A 
ATOM     25  C   LIG    1       -8.241  -7.759   1.330  0.00  0.00    -0.040 A 
ATOM     26  S   LIG    1       -7.827  -6.156   0.737  0.00  0.00    +0.110 S 
ENDBRANCH  21  22
BRANCH  21  28
ATOM     27  C   LIG    1       -6.432  -2.175   3.274  0.00  0.00    +0.030 C 
ATOM     28  C   LIG    1       -7.175  -3.479   2.979  0.00  0.00    -0.020 C 
ATOM     29  C   LIG    1       -8.228  -3.233   1.897  0.00  0.00    +0.010 C 
ENDBRANCH  21  28
ENDBRANCH  17  21
ENDBRANCH  16  19
ENDBRANCH   1  16
TORSDOF 8
