REMARK  Name = ZINCrH00000tj11d.0
REMARK                            x       y       z     vdW  Elec       q    Type
REMARK                         _______ _______ _______ _____ _____    ______ ____
ROOT
ATOM      1  C   LIG    1        0.573   7.799  -0.019  0.00  0.00    +0.160 A 
ATOM      2  C   LIG    1        1.949   7.976  -0.106  0.00  0.00    +0.000 A 
ATOM      3  C   LIG    1        2.794   6.887  -0.011  0.00  0.00    +0.060 A 
ATOM      4  C   LIG    1        2.276   5.620   0.175  0.00  0.00    -0.020 A 
ATOM      5  C   LIG    1        0.901   5.436   0.258  0.00  0.00    +0.160 A 
ATOM      6  C   LIG    1        0.049   6.526   0.163  0.00  0.00    +0.020 A 
ENDROOT
BRANCH   5   7
ATOM      7  N   LIG    1        0.378   4.152   0.442  0.00  0.00    -0.660 N 
ATOM      8  H   LIG    1        0.852   3.509   0.991  0.00  0.00    +0.420 HD
ATOM      9  C   LIG    1       -0.787   3.809  -0.144  0.00  0.00    +0.610 C 
ATOM     10  O   LIG    1       -1.425   4.641  -0.762  0.00  0.00    -0.500 OA
BRANCH   9  11
ATOM     11  C   LIG    1       -1.285   2.434  -0.036  0.00  0.00    -0.090 A 
ATOM     12  C   LIG    1       -2.443   1.955  -0.579  0.00  0.00    +0.050 A 
ATOM     13  C   LIG    1       -2.521   0.598  -0.230  0.00  0.00    -0.070 A 
ATOM     14  C   LIG    1       -1.422   0.312   0.502  0.00  0.00    +0.210 A 
ATOM     15  O   LIG    1       -0.679   1.421   0.616  0.00  0.00    -0.170 OA
ENDBRANCH   9  11
ENDBRANCH   5   7
BRANCH   1  16
ATOM     16  N   LIG    1       -0.281   8.900  -0.114  0.00  0.00    -1.060 N 
ATOM     17  H   LIG    1       -1.072   8.853  -0.673  0.00  0.00    +0.430 HD
BRANCH  16  18
ATOM     18  S   LIG    1        0.057  10.285   0.729  0.00  0.00    +2.700 S 
ATOM     19  O   LIG    1       -1.025  11.174   0.489  0.00  0.00    -0.950 OA
ATOM     20  O   LIG    1        1.409  10.611   0.440  0.00  0.00    -0.950 OA
BRANCH  18  24
ATOM     21  C   LIG    1       -0.094   9.245   5.134  0.00  0.00    +0.190 A 
ATOM     22  C   LIG    1        1.118   9.238   4.459  0.00  0.00    -0.030 A 
ATOM     23  C   LIG    1        1.162   9.555   3.116  0.00  0.00    +0.170 A 
ATOM     24  C   LIG    1       -0.002   9.880   2.443  0.00  0.00    -0.720 A 
ATOM     25  C   LIG    1       -1.210   9.893   3.114  0.00  0.00    +0.170 A 
ATOM     26  C   LIG    1       -1.260   9.571   4.457  0.00  0.00    -0.090 A 
BRANCH  21  27
ATOM     27  O   LIG    1       -0.139   8.934   6.456  0.00  0.00    -0.310 OA
BRANCH  27  29
ATOM     28  C   LIG    1       -1.273   8.586   8.562  0.00  0.00    +0.070 C 
ATOM     29  C   LIG    1       -1.422   8.962   7.086  0.00  0.00    +0.190 C 
ENDBRANCH  27  29
ENDBRANCH  21  27
ENDBRANCH  18  24
ENDBRANCH  16  18
ENDBRANCH   1  16
TORSDOF 7
