REMARK  Name = ZINCrg00000SjSwh.0
REMARK                            x       y       z     vdW  Elec       q    Type
REMARK                         _______ _______ _______ _____ _____    ______ ____
ROOT
ATOM      1  C   LIG    1        1.268   2.020   0.001  0.00  0.00    +0.250 C 
ENDROOT
BRANCH   1   2
ATOM      2  C   LIG    1        1.146   3.339   0.720  0.00  0.00    +0.530 C 
ATOM      3  N   LIG    1        2.220   4.144   0.837  0.00  0.00    -0.680 N 
ATOM      4  H   LIG    1        3.072   3.875   0.459  0.00  0.00    +0.410 HD
ATOM      5  C   LIG    1        2.111   5.324   1.480  0.00  0.00    +0.690 C 
ATOM      6  N   LIG    1        3.185   6.129   1.597  0.00  0.00    -0.740 N 
ATOM      7  H   LIG    1        4.037   5.860   1.218  0.00  0.00    +0.400 HD
ATOM      8  C   LIG    1        3.066   7.412   2.295  0.00  0.00    +0.300 C 
ATOM      9  O   LIG    1        1.044   5.661   1.953  0.00  0.00    -0.520 OA
ATOM     10  O   LIG    1        0.082   3.675   1.192  0.00  0.00    -0.430 OA
ENDBRANCH   1   2
BRANCH   1  11
ATOM     11  C   LIG    1        1.699   2.261  -1.423  0.00  0.00    -0.130 A 
ATOM     12  C   LIG    1        0.769   2.646  -2.371  0.00  0.00    +0.040 A 
ATOM     13  C   LIG    1        1.165   2.872  -3.676  0.00  0.00    +0.010 A 
ATOM     14  C   LIG    1        2.490   2.705  -4.035  0.00  0.00    +0.030 A 
ATOM     15  C   LIG    1        3.419   2.315  -3.088  0.00  0.00    +0.010 A 
ATOM     16  C   LIG    1        3.023   2.093  -1.782  0.00  0.00    +0.030 A 
ENDBRANCH   1  11
BRANCH   1  17
ATOM     17  O   LIG    1       -0.016   1.343   0.009  0.00  0.00    -0.300 OA
BRANCH  17  18
ATOM     18  C   LIG    1        0.002  -0.004   0.002  0.00  0.00    +0.550 C 
ATOM     19  O   LIG    1        1.062  -0.597  -0.011  0.00  0.00    -0.480 OA
BRANCH  18  22
ATOM     20  N   LIG    1       -3.542  -0.728   0.033  0.00  0.00    -0.330 N 
ATOM     21  N   LIG    1       -2.413  -0.117   0.030  0.00  0.00    -0.130 NA
ATOM     22  C   LIG    1       -1.267  -0.760   0.010  0.00  0.00    +0.020 A 
ATOM     23  C   LIG    1       -1.246  -2.176   0.002  0.00  0.00    +0.140 A 
ATOM     24  C   LIG    1       -2.437  -2.840   0.011  0.00  0.00    +0.000 A 
ATOM     25  C   LIG    1       -3.622  -2.071   0.026  0.00  0.00    +0.480 A 
ATOM     26  O   LIG    1       -4.710  -2.622   0.034  0.00  0.00    -0.510 OA
BRANCH  20  27
ATOM     27  C   LIG    1       -4.778   0.059   0.049  0.00  0.00    +0.320 C 
BRANCH  27  29
ATOM     28  C   LIG    1       -6.485   1.147   1.514  0.00  0.00    +0.030 C 
ATOM     29  C   LIG    1       -5.195   0.325   1.497  0.00  0.00    +0.000 C 
ENDBRANCH  27  29
ENDBRANCH  20  27
ENDBRANCH  18  22
ENDBRANCH  17  18
ENDBRANCH   1  17
TORSDOF 7
