REMARK  Name = ZINCtV00000L6jgn.0
REMARK                            x       y       z     vdW  Elec       q    Type
REMARK                         _______ _______ _______ _____ _____    ______ ____
ROOT
ATOM      1  C   LIG    1       -2.078   3.477  -1.643  0.00  0.00    +0.240 C 
ATOM      2  N   LIG    1       -2.767   2.382  -1.779  0.00  0.00    -0.220 NA
ATOM      3  N   LIG    1       -2.361   1.406  -0.862  0.00  0.00    -0.470 N 
ATOM      4  C   LIG    1       -1.277   2.005  -0.067  0.00  0.00    +0.510 C 
ATOM      5  N   LIG    1       -1.131   3.362  -0.620  0.00  0.00    -0.580 N 
ENDROOT
BRANCH   4   6
ATOM      6  C   LIG    1        0.000   1.224  -0.243  0.00  0.00    -0.130 A 
ATOM      7  C   LIG    1        0.495   0.986  -1.512  0.00  0.00    +0.050 A 
ATOM      8  C   LIG    1        1.663   0.265  -1.674  0.00  0.00    +0.030 A 
ATOM      9  C   LIG    1        2.337  -0.219  -0.567  0.00  0.00    -0.020 A 
ATOM     10  C   LIG    1        1.841   0.020   0.703  0.00  0.00    +0.030 A 
ATOM     11 CL   LIG    1        3.804  -1.125  -0.770  0.00  0.00    -0.060 Cl
ATOM     12  C   LIG    1        0.673   0.741   0.864  0.00  0.00    +0.060 A 
ENDBRANCH   4   6
BRANCH   3  13
ATOM     13  C   LIG    1       -2.883   0.119  -0.727  0.00  0.00    +0.240 A 
ATOM     14  C   LIG    1       -2.463  -0.697   0.317  0.00  0.00    -0.030 A 
ATOM     15  C   LIG    1       -2.985  -1.968   0.451  0.00  0.00    +0.070 A 
ATOM     16  C   LIG    1       -3.917  -2.435  -0.460  0.00  0.00    -0.070 A 
ATOM     17  C   LIG    1       -4.333  -1.627  -1.504  0.00  0.00    +0.070 A 
ATOM     18 CL   LIG    1       -4.565  -4.036  -0.292  0.00  0.00    -0.070 Cl
ATOM     19  C   LIG    1       -3.819  -0.352  -1.640  0.00  0.00    +0.000 A 
ENDBRANCH   3  13
BRANCH   5  20
ATOM     20  C   LIG    1       -0.226   4.341  -0.204  0.00  0.00    +0.180 A 
ATOM     21  C   LIG    1        0.829   4.709  -1.029  0.00  0.00    +0.050 A 
ATOM     22  C   LIG    1        1.719   5.682  -0.618  0.00  0.00    +0.040 A 
ATOM     23  C   LIG    1        1.567   6.282   0.620  0.00  0.00    -0.030 A 
ATOM     24  C   LIG    1        0.520   5.913   1.446  0.00  0.00    +0.040 A 
ATOM     25 CL   LIG    1        2.691   7.500   1.136  0.00  0.00    -0.060 Cl
ATOM     26  C   LIG    1       -0.376   4.946   1.038  0.00  0.00    +0.030 A 
ENDBRANCH   5  20
BRANCH   1  28
ATOM     27  C   LIG    1       -3.370   4.688  -3.452  0.00  0.00    +0.100 C 
ATOM     28  C   LIG    1       -2.263   4.638  -2.432  0.00  0.00    +0.420 C 
ATOM     29  O   LIG    1       -1.528   5.595  -2.285  0.00  0.00    -0.430 OA
ENDBRANCH   1  28
TORSDOF 4
