REMARK  Name = ZINCvU00000007Pq.0
REMARK                            x       y       z     vdW  Elec       q    Type
REMARK                         _______ _______ _______ _____ _____    ______ ____
ROOT
ATOM      1  O   LIG    1        1.065  -1.828   0.008  0.00  0.00    -0.490 OA
ATOM      2  C   LIG    1        1.193  -0.618   0.010  0.00  0.00    +0.570 C 
ATOM      3  C   LIG    1       -0.002   0.234  -0.050  0.00  0.00    -0.160 A 
ATOM      4  C   LIG    1       -1.283  -0.314  -0.109  0.00  0.00    +0.110 A 
ATOM      5  C   LIG    1       -2.380   0.520  -0.164  0.00  0.00    -0.020 A 
ATOM      6  C   LIG    1       -2.223   1.898  -0.161  0.00  0.00    +0.070 A 
ATOM      7  C   LIG    1       -0.964   2.460  -0.097  0.00  0.00    -0.010 A 
ATOM      8  C   LIG    1        0.154   1.636  -0.046  0.00  0.00    +0.050 A 
ATOM      9  C   LIG    1        1.524   2.186   0.018  0.00  0.00    -0.310 C 
ATOM     10  C   LIG    1        2.644   1.240   0.074  0.00  0.00    +0.580 C 
ATOM     11  O   LIG    1        3.786   1.661   0.128  0.00  0.00    -0.520 OA
ATOM     12  C   LIG    1        1.743   3.546   0.024  0.00  0.00    +0.440 C 
ATOM     13  N   LIG    1        2.424  -0.085   0.068  0.00  0.00    -0.510 N 
ENDROOT
BRANCH  13  14
ATOM     14  C   LIG    1        3.526  -0.948   0.123  0.00  0.00    +0.120 A 
ATOM     15  C   LIG    1        3.720  -1.757   1.234  0.00  0.00    +0.080 A 
ATOM     16  C   LIG    1        4.808  -2.607   1.286  0.00  0.00    +0.040 A 
ATOM     17  C   LIG    1        5.703  -2.652   0.233  0.00  0.00    +0.090 A 
ATOM     18  C   LIG    1        5.512  -1.847  -0.875  0.00  0.00    -0.180 A 
ATOM     19  C   LIG    1        4.423  -0.999  -0.935  0.00  0.00    +0.100 A 
BRANCH  18  20
ATOM     20  C   LIG    1        6.490  -1.899  -2.021  0.00  0.00    +0.510 C 
ATOM     21  F   LIG    1        7.061  -0.635  -2.205  0.00  0.00    -0.170 F 
ATOM     22  F   LIG    1        5.820  -2.282  -3.188  0.00  0.00    -0.170 F 
ATOM     23  F   LIG    1        7.496  -2.828  -1.734  0.00  0.00    -0.170 F 
ENDBRANCH  18  20
ENDBRANCH  13  14
BRANCH  12  24
ATOM     24  N   LIG    1        3.010   4.031  -0.069  0.00  0.00    -0.610 N 
ATOM     25  H   LIG    1        3.751   3.425  -0.224  0.00  0.00    +0.430 HD
BRANCH  24  26
ATOM     26  C   LIG    1        3.244   5.403   0.060  0.00  0.00    +0.160 A 
ATOM     27  C   LIG    1        2.182   6.272   0.277  0.00  0.00    -0.050 A 
ATOM     28  C   LIG    1        2.414   7.628   0.409  0.00  0.00    +0.080 A 
ATOM     29  C   LIG    1        3.701   8.123   0.315  0.00  0.00    -0.030 A 
ATOM     30  C   LIG    1        4.765   7.260   0.093  0.00  0.00    +0.150 A 
ATOM     31  C   LIG    1        4.537   5.899  -0.035  0.00  0.00    -0.040 A 
BRANCH  30  32
ATOM     32  O   LIG    1        6.029   7.749   0.001  0.00  0.00    -0.500 OA
ATOM     33  H   LIG    1        6.294   7.990  -0.898  0.00  0.00    +0.400 HD
ENDBRANCH  30  32
ENDBRANCH  24  26
ENDBRANCH  12  24
TORSDOF 5
