REMARK  Name = ZINCpe000000TtlG.0
REMARK                            x       y       z     vdW  Elec       q    Type
REMARK                         _______ _______ _______ _____ _____    ______ ____
ROOT
ATOM      1  N   LIG    1        9.399   1.271  -1.396  0.00  0.00    -1.010 NA
ATOM      2  C   LIG    1        9.452   0.361  -0.241  0.00  0.00    +0.310 C 
ATOM      3  C   LIG    1        8.291  -0.633  -0.351  0.00  0.00    +0.180 C 
ATOM      4  N   LIG    1        7.030   0.105  -0.503  0.00  0.00    -0.520 NA
ATOM      5  C   LIG    1        7.018   0.887  -1.747  0.00  0.00    +0.180 C 
ATOM      6  C   LIG    1        8.126   1.944  -1.694  0.00  0.00    +0.300 C 
ENDROOT
BRANCH   1   7
ATOM      7  S   LIG    1       10.738   1.530  -2.335  0.00  0.00    +2.780 S 
ATOM      8  O   LIG    1       11.856   1.112  -1.564  0.00  0.00    -0.970 OA
ATOM      9  O   LIG    1       10.607   2.841  -2.867  0.00  0.00    -0.970 OA
BRANCH   7  10
ATOM     10  N   LIG    1       10.643   0.492  -3.621  0.00  0.00    -1.010 NA
BRANCH  10  12
ATOM     11  C   LIG    1       10.752   1.494  -5.850  0.00  0.00    +0.020 C 
ATOM     12  C   LIG    1        9.847   0.853  -4.797  0.00  0.00    +0.270 C 
ENDBRANCH  10  12
BRANCH  10  13
ATOM     13  C   LIG    1       11.356  -0.787  -3.584  0.00  0.00    +0.280 C 
ATOM     14  C   LIG    1       10.383  -1.903  -3.196  0.00  0.00    +0.020 C 
ENDBRANCH  10  13
ENDBRANCH   7  10
ENDBRANCH   1   7
BRANCH   4  15
ATOM     15  C   LIG    1        5.878  -0.803  -0.440  0.00  0.00    +0.220 C 
BRANCH  15  16
ATOM     16  C   LIG    1        4.607   0.004  -0.352  0.00  0.00    +0.520 C 
ATOM     17  N   LIG    1        3.416  -0.622  -0.283  0.00  0.00    -0.670 N 
ATOM     18  H   LIG    1        3.378  -1.590  -0.233  0.00  0.00    +0.420 HD
ATOM     19  O   LIG    1        4.658   1.216  -0.343  0.00  0.00    -0.500 OA
BRANCH  17  20
ATOM     20  C   LIG    1        2.232   0.126  -0.284  0.00  0.00    +0.120 A 
ATOM     21  C   LIG    1        2.186   1.377   0.322  0.00  0.00    +0.090 A 
ATOM     22  C   LIG    1        0.991   2.079   0.295  0.00  0.00    +0.000 A 
ATOM     23  C   LIG    1       -0.108   1.518  -0.327  0.00  0.00    +0.270 A 
ATOM     24  N   LIG    1       -0.033   0.329  -0.893  0.00  0.00    -0.460 NA
ATOM     25  C   LIG    1        1.084  -0.372  -0.891  0.00  0.00    +0.150 A 
ATOM     26 CL   LIG    1        1.121  -1.932  -1.652  0.00  0.00    -0.030 Cl
ENDBRANCH  17  20
ENDBRANCH  15  16
ENDBRANCH   4  15
TORSDOF 7
