REMARK  Name = ZINCqH0000002yt8.0
REMARK                            x       y       z     vdW  Elec       q    Type
REMARK                         _______ _______ _______ _____ _____    ______ ____
ROOT
ATOM      1  C   LIG    1        3.665   5.431  -0.004  0.00  0.00    -0.130 A 
ATOM      2  C   LIG    1        3.079   6.697   0.003  0.00  0.00    +0.050 A 
ATOM      3  C   LIG    1        3.877   7.823   0.006  0.00  0.00    +0.020 A 
ATOM      4  C   LIG    1        5.255   7.698  -0.008  0.00  0.00    +0.060 A 
ATOM      5  C   LIG    1        5.842   6.445  -0.021  0.00  0.00    -0.120 A 
ATOM      6  C   LIG    1        5.056   5.312  -0.019  0.00  0.00    +0.120 A 
ENDROOT
BRANCH   1   9
ATOM      7  N   LIG    1        1.474   4.339   0.011  0.00  0.00    -0.650 N 
ATOM      8  H   LIG    1        1.064   5.218   0.020  0.00  0.00    +0.410 HD
ATOM      9  C   LIG    1        2.816   4.221  -0.003  0.00  0.00    +0.570 C 
ATOM     10  O   LIG    1        3.329   3.118  -0.014  0.00  0.00    -0.490 OA
BRANCH   7  15
ATOM     11  N   LIG    1       -0.684   3.169   0.026  0.00  0.00    -0.390 N 
ATOM     12  N   LIG    1       -1.084   1.826   0.017  0.00  0.00    -0.290 NA
ATOM     13  C   LIG    1       -0.013   1.076   0.008  0.00  0.00    +0.250 A 
ATOM     14  C   LIG    1        1.110   1.908   0.002  0.00  0.00    -0.100 A 
ATOM     15  C   LIG    1        0.673   3.198   0.013  0.00  0.00    +0.300 A 
BRANCH  11  16
ATOM     16  C   LIG    1       -1.572   4.334   0.040  0.00  0.00    +0.310 C 
BRANCH  16  17
ATOM     17  C   LIG    1       -1.895   4.746  -1.398  0.00  0.00    -0.000 C 
BRANCH  17  19
ATOM     18  C   LIG    1       -3.146   6.375  -2.821  0.00  0.00    +0.020 C 
ATOM     19  C   LIG    1       -2.823   5.963  -1.383  0.00  0.00    +0.010 C 
ENDBRANCH  17  19
ENDBRANCH  16  17
ENDBRANCH  11  16
ENDBRANCH   7  15
ENDBRANCH   1   9
BRANCH   5  20
ATOM     20  C   LIG    1        7.343   6.319  -0.036  0.00  0.00    +0.380 C 
BRANCH  20  21
ATOM     21  N   LIG    1        7.817   6.284  -1.422  0.00  0.00    -0.370 N 
ATOM     22  N   LIG    1        7.994   5.136  -2.204  0.00  0.00    -0.290 NA
ATOM     23  C   LIG    1        8.425   5.507  -3.383  0.00  0.00    +0.080 A 
ATOM     24  C   LIG    1        8.545   6.900  -3.385  0.00  0.00    -0.120 A 
ATOM     25  C   LIG    1        8.743   4.590  -4.536  0.00  0.00    +0.160 C 
ATOM     26  C   LIG    1        8.165   7.353  -2.168  0.00  0.00    +0.080 A 
ATOM     27  C   LIG    1        8.135   8.794  -1.726  0.00  0.00    +0.140 C 
ENDBRANCH  20  21
ENDBRANCH   5  20
TORSDOF 7
