REMARK  Name = ZINCpe000000YZr5.1
REMARK                            x       y       z     vdW  Elec       q    Type
REMARK                         _______ _______ _______ _____ _____    ______ ____
ROOT
ATOM      1  O   LIG    1        5.658   7.685  -2.922  0.00  0.00    -0.500 OA
ATOM      2  C   LIG    1        5.870   8.146  -1.821  0.00  0.00    +0.510 C 
ATOM      3  N   LIG    1        5.559   7.434  -0.720  0.00  0.00    -0.610 N 
ATOM      4  C   LIG    1        5.810   7.980   0.621  0.00  0.00    +0.270 C 
ATOM      5  C   LIG    1        6.643   6.970   1.416  0.00  0.00    +0.030 C 
ATOM      6  C   LIG    1        5.935   5.614   1.413  0.00  0.00    +0.040 C 
ATOM      7  C   LIG    1        5.807   5.107  -0.026  0.00  0.00    +0.110 C 
ATOM      8  C   LIG    1        4.964   6.096  -0.838  0.00  0.00    +0.290 C 
ENDROOT
BRANCH   7   9
ATOM      9  C   LIG    1        5.138   3.757  -0.026  0.00  0.00    +0.190 A 
ATOM     10  N   LIG    1        5.738   2.597  -0.038  0.00  0.00    -0.280 NA
ATOM     11  N   LIG    1        4.869   1.651  -0.035  0.00  0.00    -0.270 NA
ATOM     12  C   LIG    1        3.657   2.161  -0.021  0.00  0.00    +0.230 A 
ATOM     13  N   LIG    1        3.797   3.522  -0.021  0.00  0.00    -0.580 N 
ATOM     14  H   LIG    1        3.088   4.184  -0.016  0.00  0.00    +0.430 HD
BRANCH  12  15
ATOM     15  C   LIG    1        2.385   1.407  -0.013  0.00  0.00    -0.020 A 
ATOM     16  C   LIG    1        1.167   2.088   0.002  0.00  0.00    +0.010 A 
ATOM     17  C   LIG    1       -0.017   1.379   0.010  0.00  0.00    +0.010 A 
ATOM     18  C   LIG    1        0.002  -0.004   0.002  0.00  0.00    +0.030 A 
ATOM     19  C   LIG    1        1.206  -0.685  -0.013  0.00  0.00    +0.010 A 
ATOM     20  C   LIG    1        2.397   0.012  -0.020  0.00  0.00    +0.070 A 
ENDBRANCH  12  15
ENDBRANCH   7   9
BRANCH   2  21
ATOM     21  C   LIG    1        6.481   9.517  -1.683  0.00  0.00    +0.390 C 
BRANCH  21  22
ATOM     22  N   LIG    1        6.724  10.079  -3.014  0.00  0.00    -0.310 N 
ATOM     23  C   LIG    1        6.272  11.259  -3.478  0.00  0.00    +0.400 A 
ATOM     24  N   LIG    1        6.718  11.377  -4.705  0.00  0.00    -0.300 NA
ATOM     25  N   LIG    1        7.400  10.320  -4.983  0.00  0.00    -0.070 NA
ATOM     26  N   LIG    1        7.406   9.534  -3.964  0.00  0.00    -0.060 NA
ENDBRANCH  21  22
ENDBRANCH   2  21
TORSDOF 4
