REMARK  Name = ZINCpe000000Yzr5.0
REMARK                            x       y       z     vdW  Elec       q    Type
REMARK                         _______ _______ _______ _____ _____    ______ ____
ROOT
ATOM      1  C   LIG    1       -1.530   5.915  -1.919  0.00  0.00    +0.510 C 
ATOM      2  N   LIG    1       -0.802   4.807  -1.681  0.00  0.00    -0.740 N 
ATOM      3  H   LIG    1       -0.815   4.072  -2.315  0.00  0.00    +0.400 HD
ATOM      4  O   LIG    1       -1.514   6.833  -1.126  0.00  0.00    -0.510 OA
ENDROOT
BRANCH   1   5
ATOM      5  C   LIG    1       -2.366   6.014  -3.169  0.00  0.00    +0.220 C 
BRANCH   5   6
ATOM      6  N   LIG    1       -3.059   7.310  -3.193  0.00  0.00    -0.500 NA
BRANCH   6   7
ATOM      7  C   LIG    1       -4.043   7.401  -2.107  0.00  0.00    +0.160 C 
ATOM      8  C   LIG    1       -5.470   7.247  -2.672  0.00  0.00    -0.030 C 
ATOM      9  C   LIG    1       -6.321   8.230  -1.829  0.00  0.00    +0.000 C 
ATOM     10  C   LIG    1       -5.366   9.435  -1.641  0.00  0.00    -0.010 C 
ATOM     11  C   LIG    1       -3.977   8.791  -1.451  0.00  0.00    +0.050 C 
ENDBRANCH   6   7
BRANCH   6  12
ATOM     12  C   LIG    1       -3.692   7.544  -4.498  0.00  0.00    +0.200 C 
BRANCH  12  16
ATOM     13  N   LIG    1       -4.853   9.401  -5.647  0.00  0.00    -0.860 N 
ATOM     14  H   LIG    1       -5.120  10.331  -5.715  0.00  0.00    +0.400 HD
ATOM     15  H   LIG    1       -5.126   8.767  -6.329  0.00  0.00    +0.400 HD
ATOM     16  C   LIG    1       -4.105   8.989  -4.604  0.00  0.00    +0.510 C 
ATOM     17  O   LIG    1       -3.764   9.781  -3.752  0.00  0.00    -0.500 OA
ENDBRANCH  12  16
ENDBRANCH   6  12
ENDBRANCH   5   6
ENDBRANCH   1   5
BRANCH   2  18
ATOM     18  C   LIG    1        0.010   4.710  -0.466  0.00  0.00    +0.270 C 
BRANCH  18  19
ATOM     19  C   LIG    1        0.732   3.361  -0.440  0.00  0.00    +0.190 C 
BRANCH  19  20
ATOM     20  N   LIG    1        1.546   3.264   0.778  0.00  0.00    -0.490 N 
ATOM     21  C   LIG    1        2.068   1.892   0.960  0.00  0.00    +0.230 C 
ATOM     22  C   LIG    1        3.470   1.975   0.313  0.00  0.00    +0.060 C 
ATOM     23  C   LIG    1        3.814   3.446   0.443  0.00  0.00    -0.140 A 
ATOM     24  C   LIG    1        5.012   4.118   0.334  0.00  0.00    +0.030 A 
ATOM     25  C   LIG    1        5.056   5.490   0.508  0.00  0.00    +0.000 A 
ATOM     26  C   LIG    1        3.895   6.186   0.791  0.00  0.00    +0.030 A 
ATOM     27  C   LIG    1        2.693   5.518   0.898  0.00  0.00    +0.020 A 
ATOM     28  C   LIG    1        2.640   4.137   0.722  0.00  0.00    +0.080 A 
ENDBRANCH  19  20
ENDBRANCH  18  19
ENDBRANCH   2  18
TORSDOF 8
