REMARK  Name = ZINCnE000001TDLv.2
REMARK                            x       y       z     vdW  Elec       q    Type
REMARK                         _______ _______ _______ _____ _____    ______ ____
ROOT
ATOM      1  N   LIG    1        1.328   1.684  -0.006  0.00  0.00    -0.510 NA
ENDROOT
BRANCH   1   2
ATOM      2  C   LIG    1       -0.043   1.155  -0.022  0.00  0.00    +0.120 C 
ATOM      3  C   LIG    1       -1.053   2.040   0.727  0.00  0.00    +0.030 C 
ATOM      4  C   LIG    1       -2.044   1.732  -0.412  0.00  0.00    +0.010 C 
ATOM      5  C   LIG    1       -0.817   1.491  -1.308  0.00  0.00    +0.010 C 
ENDBRANCH   1   2
BRANCH   1   6
ATOM      6  C   LIG    1        2.003   1.435  -1.286  0.00  0.00    +0.230 C 
BRANCH   6  11
ATOM      7  C   LIG    1        5.696   2.203  -0.985  0.00  0.00    -0.180 A 
ATOM      8  C   LIG    1        5.676   3.546  -1.369  0.00  0.00    +0.290 A 
ATOM      9  N   LIG    1        4.544   4.132  -1.695  0.00  0.00    -0.500 NA
ATOM     10  C   LIG    1        3.394   3.485  -1.679  0.00  0.00    +0.250 A 
ATOM     11  C   LIG    1        3.327   2.155  -1.305  0.00  0.00    -0.160 A 
ATOM     12  C   LIG    1        4.489   1.491  -0.953  0.00  0.00    +0.090 A 
BRANCH   7  14
ATOM     13  O   LIG    1        6.969   0.369  -0.285  0.00  0.00    -0.680 OA
ATOM     14  C   LIG    1        6.965   1.545  -0.620  0.00  0.00    +0.520 C 
ATOM     15  O   LIG    1        8.012   2.176  -0.651  0.00  0.00    -0.680 OA
ENDBRANCH   7  14
ENDBRANCH   6  11
ENDBRANCH   1   6
BRANCH   1  16
ATOM     16  C   LIG    1        2.096   1.122   1.113  0.00  0.00    +0.230 C 
BRANCH  16  17
ATOM     17  C   LIG    1        1.511   1.603   2.416  0.00  0.00    -0.040 A 
ATOM     18  C   LIG    1        1.975   2.770   2.993  0.00  0.00    +0.030 A 
ATOM     19  C   LIG    1        1.436   3.215   4.185  0.00  0.00    +0.040 A 
ATOM     20  C   LIG    1        0.439   2.488   4.807  0.00  0.00    -0.030 A 
ATOM     21  C   LIG    1       -0.023   1.315   4.233  0.00  0.00    +0.090 A 
ATOM     22  F   LIG    1       -0.998   0.604   4.840  0.00  0.00    -0.140 F 
ATOM     23  C   LIG    1        0.514   0.874   3.036  0.00  0.00    -0.010 A 
ENDBRANCH  16  17
ENDBRANCH   1  16
TORSDOF 6
