REMARK  Name = ZINCnE000001TDLV.0
REMARK                            x       y       z     vdW  Elec       q    Type
REMARK                         _______ _______ _______ _____ _____    ______ ____
ROOT
ATOM      1  C   LIG    1       -0.799   1.616  -1.205  0.00  0.00    +0.190 C 
ATOM      2  C   LIG    1       -0.013   1.086   0.008  0.00  0.00    +0.030 C 
ATOM      3  C   LIG    1       -0.778   1.605   1.246  0.00  0.00    +0.020 C 
ATOM      4  C   LIG    1       -1.565   2.817   0.682  0.00  0.00    +0.170 C 
ATOM      5  N   LIG    1       -1.960   2.365  -0.676  0.00  0.00    -0.500 NA
ENDROOT
BRANCH   1  10
ATOM      6  C   LIG    1       -1.083  -0.948  -3.973  0.00  0.00    -0.180 A 
ATOM      7  C   LIG    1       -2.210  -1.639  -3.522  0.00  0.00    +0.280 A 
ATOM      8  N   LIG    1       -2.811  -1.283  -2.406  0.00  0.00    -0.500 NA
ATOM      9  C   LIG    1       -2.379  -0.275  -1.672  0.00  0.00    +0.260 A 
ATOM     10  C   LIG    1       -1.273   0.464  -2.053  0.00  0.00    -0.150 A 
ATOM     11  C   LIG    1       -0.604   0.132  -3.217  0.00  0.00    +0.090 A 
BRANCH   6  13
ATOM     12  O   LIG    1        0.577  -0.733  -5.608  0.00  0.00    -0.690 OA
ATOM     13  C   LIG    1       -0.409  -1.346  -5.223  0.00  0.00    +0.530 C 
ATOM     14  O   LIG    1       -0.835  -2.289  -5.874  0.00  0.00    -0.680 OA
ENDBRANCH   6  13
ENDBRANCH   1  10
BRANCH   5  15
ATOM     15  C   LIG    1       -2.285   3.509  -1.538  0.00  0.00    +0.290 C 
BRANCH  15  16
ATOM     16  C   LIG    1       -3.302   4.383  -0.850  0.00  0.00    +0.060 A 
ATOM     17  N   LIG    1       -3.020   5.369  -0.067  0.00  0.00    -0.470 NA
ATOM     18  C   LIG    1       -4.033   6.032   0.453  0.00  0.00    +0.100 A 
ATOM     19  C   LIG    1       -5.237   5.580   0.089  0.00  0.00    -0.110 A 
ATOM     20  S   LIG    1       -4.997   4.216  -1.000  0.00  0.00    +0.160 S 
BRANCH  18  21
ATOM     21  C   LIG    1       -3.848   7.203   1.383  0.00  0.00    +0.040 C 
ATOM     22  C   LIG    1       -4.885   7.395   2.492  0.00  0.00    +0.030 C 
ATOM     23  C   LIG    1       -4.863   8.345   1.291  0.00  0.00    +0.030 C 
ENDBRANCH  18  21
ENDBRANCH  15  16
ENDBRANCH   5  15
TORSDOF 5
