REMARK  Name = ZINCrH00000amilt.0
REMARK                            x       y       z     vdW  Elec       q    Type
REMARK                         _______ _______ _______ _____ _____    ______ ____
ROOT
ATOM      1  C   LIG    1       -4.740   8.598  -1.341  0.00  0.00    +0.050 C 
ATOM      2  C   LIG    1       -4.571   8.087   0.092  0.00  0.00    +0.230 C 
ENDROOT
BRANCH   2   3
ATOM      3  N   LIG    1       -3.816   6.832   0.077  0.00  0.00    -0.730 N 
ATOM      4  H   LIG    1       -4.285   5.984   0.076  0.00  0.00    +0.400 HD
ATOM      5  C   LIG    1       -2.468   6.857   0.064  0.00  0.00    +0.590 C 
ATOM      6  O   LIG    1       -1.879   7.921   0.065  0.00  0.00    -0.510 OA
BRANCH   5   7
ATOM      7  C   LIG    1       -1.710   5.598   0.049  0.00  0.00    +0.010 A 
ATOM      8  C   LIG    1       -0.355   5.494   0.035  0.00  0.00    +0.070 A 
ATOM      9  C   LIG    1       -0.028   4.117   0.024  0.00  0.00    -0.130 A 
ATOM     10  C   LIG    1        1.185   3.417   0.009  0.00  0.00    +0.120 A 
ATOM     11  C   LIG    1        1.183   2.053   0.002  0.00  0.00    -0.040 A 
ATOM     12  C   LIG    1       -0.016   1.347   0.009  0.00  0.00    +0.140 A 
ATOM     13  C   LIG    1       -1.224   2.014   0.019  0.00  0.00    -0.030 A 
ATOM     14  F   LIG    1        0.002  -0.004   0.002  0.00  0.00    -0.130 F 
ATOM     15  C   LIG    1       -1.245   3.405   0.032  0.00  0.00    +0.140 A 
ATOM     16  N   LIG    1       -2.262   4.330   0.047  0.00  0.00    -0.580 N 
ATOM     17  H   LIG    1       -3.210   4.127   0.055  0.00  0.00    +0.420 HD
ENDBRANCH   5   7
ENDBRANCH   2   3
BRANCH   2  18
ATOM     18  C   LIG    1       -5.948   7.846   0.713  0.00  0.00    +0.280 C 
BRANCH  18  19
ATOM     19  N   LIG    1       -5.787   7.246   2.040  0.00  0.00    -0.730 N 
ATOM     20  H   LIG    1       -4.899   7.066   2.386  0.00  0.00    +0.400 HD
ATOM     21  C   LIG    1       -6.872   6.944   2.779  0.00  0.00    +0.600 C 
ATOM     22  O   LIG    1       -7.987   7.170   2.345  0.00  0.00    -0.520 OA
BRANCH  21  23
ATOM     23  C   LIG    1       -6.711   6.343   4.107  0.00  0.00    -0.280 A 
ATOM     24  C   LIG    1       -7.730   5.993   4.948  0.00  0.00    +0.020 A 
ATOM     25  C   LIG    1       -7.294   5.449   6.133  0.00  0.00    +0.000 A 
ATOM     26  C   LIG    1       -5.965   5.355   6.259  0.00  0.00    -0.050 A 
ATOM     27  S   LIG    1       -5.176   5.950   4.869  0.00  0.00    +0.190 S 
BRANCH  24  28
ATOM     28  C   LIG    1       -9.186   6.185   4.610  0.00  0.00    +0.030 C 
ATOM     29  C   LIG    1      -10.207   5.940   5.722  0.00  0.00    +0.020 C 
ATOM     30  C   LIG    1      -10.072   4.939   4.572  0.00  0.00    +0.030 C 
ENDBRANCH  24  28
ENDBRANCH  21  23
ENDBRANCH  18  19
ENDBRANCH   2  18
TORSDOF 6
