REMARK  Name = ZINCvU00000009aR.0
REMARK                            x       y       z     vdW  Elec       q    Type
REMARK                         _______ _______ _______ _____ _____    ______ ____
ROOT
ATOM      1  C   LIG    1        5.764   0.836  -0.137  0.00  0.00    +0.100 A 
ATOM      2  C   LIG    1        4.431   0.505   0.049  0.00  0.00    -0.010 A 
ATOM      3  C   LIG    1        3.625   1.302   0.842  0.00  0.00    -0.080 A 
ATOM      4  C   LIG    1        4.149   2.421   1.460  0.00  0.00    +0.020 A 
ATOM      5  C   LIG    1        5.479   2.754   1.284  0.00  0.00    -0.030 A 
ATOM      6  C   LIG    1        6.291   1.964   0.486  0.00  0.00    +0.110 A 
ENDROOT
BRANCH   1   8
ATOM      7  C   LIG    1        5.948  -1.084  -1.528  0.00  0.00    +0.240 C 
ATOM      8  O   LIG    1        6.556   0.057  -0.920  0.00  0.00    -0.310 OA
ENDBRANCH   1   8
BRANCH   3   9
ATOM      9  C   LIG    1        2.174   0.944   1.037  0.00  0.00    +0.240 C 
BRANCH   9  10
ATOM     10  N   LIG    1        1.365   1.594  -0.002  0.00  0.00    -0.520 NA
ATOM     11  C   LIG    1        1.389   3.055   0.150  0.00  0.00    +0.210 C 
BRANCH  10  12
ATOM     12  C   LIG    1       -0.013   1.086   0.008  0.00  0.00    +0.300 C 
ATOM     13  C   LIG    1       -0.729   1.579   1.267  0.00  0.00    +0.040 C 
BRANCH  12  14
ATOM     14  C   LIG    1       -0.742   1.585  -1.213  0.00  0.00    +0.180 A 
ATOM     15  N   LIG    1       -0.720   2.802  -1.677  0.00  0.00    -0.270 NA
ATOM     16  N   LIG    1       -1.453   2.875  -2.732  0.00  0.00    -0.270 NA
ATOM     17  C   LIG    1       -1.974   1.693  -2.980  0.00  0.00    +0.240 A 
ATOM     18  O   LIG    1       -1.528   0.853  -2.023  0.00  0.00    -0.220 OA
BRANCH  17  19
ATOM     19  C   LIG    1       -2.870   1.350  -4.094  0.00  0.00    -0.150 A 
ATOM     20  C   LIG    1       -3.304   2.216  -5.051  0.00  0.00    +0.100 A 
ATOM     21  C   LIG    1       -4.139   1.655  -5.991  0.00  0.00    +0.020 A 
ATOM     22  C   LIG    1       -4.395   0.354  -5.821  0.00  0.00    -0.010 A 
ATOM     23  S   LIG    1       -3.545  -0.245  -4.402  0.00  0.00    +0.170 S 
ENDBRANCH  17  19
ENDBRANCH  12  14
ENDBRANCH  10  12
ENDBRANCH   9  10
ENDBRANCH   3   9
BRANCH   6  24
ATOM     24  O   LIG    1        7.600   2.289   0.312  0.00  0.00    -0.300 OA
BRANCH  24  25
ATOM     25  C   LIG    1        8.072   3.460   0.982  0.00  0.00    +0.240 C 
BRANCH  25  26
ATOM     26  C   LIG    1        9.534   3.660   0.674  0.00  0.00    -0.100 A 
ATOM     27  C   LIG    1       10.495   3.093   1.490  0.00  0.00    +0.020 A 
ATOM     28  C   LIG    1       11.836   3.272   1.204  0.00  0.00    +0.010 A 
ATOM     29  C   LIG    1       12.215   4.027   0.110  0.00  0.00    +0.010 A 
ATOM     30  C   LIG    1       11.253   4.598  -0.702  0.00  0.00    +0.010 A 
ATOM     31  C   LIG    1        9.912   4.414  -0.420  0.00  0.00    +0.030 A 
ENDBRANCH  25  26
ENDBRANCH  24  25
ENDBRANCH   6  24
TORSDOF 9
