REMARK  Name = ZINCrH000009n5Kn.0
REMARK                            x       y       z     vdW  Elec       q    Type
REMARK                         _______ _______ _______ _____ _____    ______ ____
ROOT
ATOM      1  C   LIG    1       10.044  -2.300   2.707  0.00  0.00    +0.560 C 
ATOM      2  N   LIG    1        9.855  -2.711   1.437  0.00  0.00    -0.610 N 
ATOM      3  C   LIG    1        9.773  -1.734   0.344  0.00  0.00    +0.270 C 
ATOM      4  C   LIG    1        8.439  -1.920  -0.388  0.00  0.00    +0.050 C 
ATOM      5  C   LIG    1        8.282  -3.398  -0.758  0.00  0.00    -0.130 C 
ATOM      6  C   LIG    1        8.825  -3.851  -2.113  0.00  0.00    +0.030 C 
ATOM      7  C   LIG    1        8.392  -4.377   0.415  0.00  0.00    +0.060 C 
ATOM      8  C   LIG    1        7.315  -3.749  -1.889  0.00  0.00    +0.230 C 
ATOM      9  C   LIG    1        9.727  -4.142   1.131  0.00  0.00    +0.280 C 
ATOM     10  O   LIG    1       10.251  -1.128   2.940  0.00  0.00    -0.540 OA
ENDROOT
BRANCH   8  11
ATOM     11  N   LIG    1        6.607  -2.644  -2.541  0.00  0.00    -0.700 N 
ATOM     12  H   LIG    1        6.989  -1.752  -2.533  0.00  0.00    +0.400 HD
ATOM     13  C   LIG    1        5.426  -2.867  -3.150  0.00  0.00    +0.600 C 
ATOM     14  O   LIG    1        4.948  -3.985  -3.159  0.00  0.00    -0.530 OA
BRANCH  13  15
ATOM     15  C   LIG    1        4.716  -1.758  -3.805  0.00  0.00    -0.230 A 
ATOM     16  C   LIG    1        5.114  -0.459  -3.881  0.00  0.00    +0.280 A 
ATOM     17  O   LIG    1        4.205   0.256  -4.555  0.00  0.00    -0.180 OA
ATOM     18  C   LIG    1        3.172  -0.515  -4.955  0.00  0.00    +0.050 A 
ATOM     19  C   LIG    1        2.009  -0.249  -5.667  0.00  0.00    +0.040 A 
ATOM     20  C   LIG    1        1.116  -1.266  -5.932  0.00  0.00    +0.050 A 
ATOM     21  C   LIG    1        1.369  -2.559  -5.500  0.00  0.00    +0.000 A 
ATOM     22  C   LIG    1        2.515  -2.841  -4.787  0.00  0.00    +0.080 A 
ATOM     23  C   LIG    1        3.422  -1.823  -4.514  0.00  0.00    -0.090 A 
ENDBRANCH  13  15
ENDBRANCH   8  11
BRANCH   1  24
ATOM     24  C   LIG    1        9.998  -3.297   3.836  0.00  0.00    -0.160 C 
ATOM     25  C   LIG    1       10.911  -3.045   5.038  0.00  0.00    +0.060 C 
ATOM     26  C   LIG    1       11.232  -4.174   4.055  0.00  0.00    +0.050 C 
BRANCH  24  28
ATOM     27  C   LIG    1        7.605  -2.817   4.371  0.00  0.00    +0.020 C 
ATOM     28  C   LIG    1        8.628  -3.923   4.108  0.00  0.00    +0.070 C 
ENDBRANCH  24  28
ENDBRANCH   1  24
TORSDOF 4
