REMARK  Name = ZINCpe000000TayH.0
REMARK                            x       y       z     vdW  Elec       q    Type
REMARK                         _______ _______ _______ _____ _____    ______ ____
ROOT
ATOM      1  N   LIG    1       -4.754  -1.745  -2.927  0.00  0.00    -0.550 N 
ATOM      2  C   LIG    1       -4.920  -2.466  -4.063  0.00  0.00    +0.560 A 
ATOM      3  O   LIG    1       -6.181  -2.925  -4.030  0.00  0.00    -0.000 OA
ATOM      4  N   LIG    1       -6.746  -2.550  -3.028  0.00  0.00    -0.320 NA
ATOM      5  O   LIG    1       -4.093  -2.659  -4.933  0.00  0.00    -0.470 OA
ATOM      6  C   LIG    1       -5.975  -1.827  -2.288  0.00  0.00    +0.230 A 
ENDROOT
BRANCH   1   7
ATOM      7  C   LIG    1       -3.554  -1.034  -2.482  0.00  0.00    +0.340 C 
BRANCH   7   8
ATOM      8  C   LIG    1       -2.692  -1.970  -1.632  0.00  0.00    +0.320 C 
BRANCH   8  14
ATOM      9  C   LIG    1       -0.019   1.526   0.010  0.00  0.00    +0.090 C 
ATOM     10  C   LIG    1        0.002  -0.004   0.002  0.00  0.00    +0.120 C 
ATOM     11  N   LIG    1        0.612  -0.507  -1.241  0.00  0.00    -0.720 N 
ATOM     12  H   LIG    1        1.519  -0.349  -1.547  0.00  0.00    +0.440 HD
ATOM     13  C   LIG    1       -0.340  -1.228  -1.868  0.00  0.00    +0.700 C 
ATOM     14  N   LIG    1       -1.491  -1.259  -1.187  0.00  0.00    -0.580 N 
ATOM     15  O   LIG    1       -0.169  -1.789  -2.933  0.00  0.00    -0.530 OA
ATOM     16  C   LIG    1        0.752  -0.537   1.224  0.00  0.00    +0.090 C 
ATOM     17  C   LIG    1       -1.409  -0.556  -0.040  0.00  0.00    +0.530 C 
ATOM     18  O   LIG    1       -2.282  -0.399   0.786  0.00  0.00    -0.460 OA
ENDBRANCH   8  14
ENDBRANCH   7   8
ENDBRANCH   1   7
BRANCH   6  19
ATOM     19  C   LIG    1       -6.339  -1.192  -0.971  0.00  0.00    +0.220 C 
BRANCH  19  20
ATOM     20  C   LIG    1       -7.768  -1.527  -0.629  0.00  0.00    -0.100 A 
ATOM     21  C   LIG    1       -8.790  -0.694  -1.044  0.00  0.00    +0.060 A 
ATOM     22  C   LIG    1      -10.102  -1.003  -0.736  0.00  0.00    -0.010 A 
ATOM     23  C   LIG    1      -10.390  -2.141  -0.002  0.00  0.00    +0.110 A 
ATOM     24  C   LIG    1       -9.364  -2.971   0.418  0.00  0.00    -0.010 A 
ATOM     25  F   LIG    1      -11.671  -2.441   0.305  0.00  0.00    -0.140 F 
ATOM     26  C   LIG    1       -8.054  -2.663   0.104  0.00  0.00    +0.060 A 
ENDBRANCH  19  20
ENDBRANCH   6  19
TORSDOF 5
