REMARK  Name = ZINCpk00000xI4gs.0
REMARK                            x       y       z     vdW  Elec       q    Type
REMARK                         _______ _______ _______ _____ _____    ______ ____
ROOT
ATOM      1  N   LIG    1       -1.217   2.452  -0.315  0.00  0.00    -0.460 N 
ATOM      2  C   LIG    1       -1.647   3.173  -1.548  0.00  0.00    +0.230 C 
ATOM      3  C   LIG    1       -3.141   2.863  -1.634  0.00  0.00    +0.000 C 
ATOM      4  C   LIG    1       -3.792   2.949  -3.000  0.00  0.00    +0.250 C 
ATOM      5  O   LIG    1       -5.147   2.492  -2.838  0.00  0.00    -0.380 OA
ATOM      6  C   LIG    1       -5.328   1.177  -2.324  0.00  0.00    +0.200 C 
ATOM      7  C   LIG    1       -4.576   0.969  -0.996  0.00  0.00    +0.030 C 
ATOM      8  C   LIG    1       -3.133   1.352  -1.250  0.00  0.00    -0.110 C 
ATOM      9  C   LIG    1       -2.169   1.335  -0.072  0.00  0.00    +0.260 C 
ENDROOT
BRANCH   1  14
ATOM     10  C   LIG    1        2.413   2.341  -0.800  0.00  0.00    +0.170 A 
ATOM     11  N   LIG    1        2.588   1.030  -0.697  0.00  0.00    -0.510 NA
ATOM     12  C   LIG    1        1.569   0.225  -0.478  0.00  0.00    +0.520 A 
ATOM     13  N   LIG    1        0.338   0.678  -0.352  0.00  0.00    -0.540 NA
ATOM     14  C   LIG    1        0.081   1.979  -0.443  0.00  0.00    +0.330 A 
ATOM     15  C   LIG    1        1.139   2.863  -0.675  0.00  0.00    -0.010 A 
ATOM     16  F   LIG    1        0.922   4.192  -0.774  0.00  0.00    -0.110 F 
BRANCH  10  18
ATOM     17  C   LIG    1        3.792   3.419  -2.557  0.00  0.00    +0.050 C 
ATOM     18  C   LIG    1        3.589   3.249  -1.050  0.00  0.00    +0.110 C 
ENDBRANCH  10  18
ENDBRANCH   1  14
BRANCH   8  19
ATOM     19  C   LIG    1       -2.569   0.537  -2.385  0.00  0.00    +0.550 C 
ATOM     20  N   LIG    1       -2.625  -0.809  -2.341  0.00  0.00    -0.610 N 
ATOM     21  C   LIG    1       -3.286  -1.639  -1.325  0.00  0.00    +0.280 C 
ATOM     22  C   LIG    1       -3.070  -3.077  -1.717  0.00  0.00    -0.020 C 
ATOM     23  C   LIG    1       -2.368  -3.142  -2.814  0.00  0.00    -0.010 C 
ATOM     24  C   LIG    1       -2.032  -1.755  -3.297  0.00  0.00    +0.290 C 
ATOM     25  O   LIG    1       -2.065   1.093  -3.339  0.00  0.00    -0.530 OA
ENDBRANCH   8  19
TORSDOF 3
