REMARK  Name = ZINCrm000000OU4z.0
REMARK                            x       y       z     vdW  Elec       q    Type
REMARK                         _______ _______ _______ _____ _____    ______ ____
ROOT
ATOM      1  N   LIG    1       -2.141   1.590   1.222  0.00  0.00    -0.680 N 
ATOM      2  H   LIG    1       -2.475   1.085   0.463  0.00  0.00    +0.420 HD
ENDROOT
BRANCH   1   7
ATOM      3  C   LIG    1       -5.082   1.881   3.212  0.00  0.00    +0.560 A 
ATOM      4  N   LIG    1       -4.617   2.573   4.250  0.00  0.00    -0.630 NA
ATOM      5  C   LIG    1       -3.347   2.937   4.288  0.00  0.00    +0.620 A 
ATOM      6  N   LIG    1       -2.533   2.612   3.300  0.00  0.00    -0.610 NA
ATOM      7  C   LIG    1       -2.991   1.924   2.256  0.00  0.00    +0.620 A 
ATOM      8  N   LIG    1       -4.267   1.556   2.214  0.00  0.00    -0.610 NA
BRANCH   3  12
ATOM      9  C   LIG    1       -8.185   0.881   4.660  0.00  0.00    +0.180 C 
ATOM     10  C   LIG    1       -7.400  -0.408   4.301  0.00  0.00    +0.060 C 
ATOM     11  C   LIG    1       -6.535   0.034   3.102  0.00  0.00    +0.250 C 
ATOM     12  N   LIG    1       -6.408   1.501   3.173  0.00  0.00    -0.440 N 
ATOM     13  C   LIG    1       -7.131   1.979   4.370  0.00  0.00    +0.260 C 
BRANCH   9  14
ATOM     14  N   LIG    1       -8.571   0.884   6.078  0.00  0.00    -0.630 N 
ATOM     15  H   LIG    1       -9.156   0.085   6.268  0.00  0.00    +0.440 HD
ATOM     16  H   LIG    1       -9.078   1.730   6.286  0.00  0.00    +0.440 HD
ATOM     17  H   LIG    1       -7.742   0.838   6.652  0.00  0.00    +0.430 HD
ENDBRANCH   9  14
ENDBRANCH   3  12
ENDBRANCH   1   7
BRANCH   1  18
ATOM     18  C   LIG    1       -0.735   1.996   1.269  0.00  0.00    +0.300 C 
BRANCH  18  19
ATOM     19  C   LIG    1       -0.018   1.503   0.010  0.00  0.00    +0.040 C 
BRANCH  19  20
ATOM     20  C   LIG    1        1.417   2.032  -0.001  0.00  0.00    +0.010 C 
ATOM     21  C   LIG    1        1.398   3.564   0.004  0.00  0.00    +0.060 C 
ATOM     22  C   LIG    1        2.833   4.086  -0.089  0.00  0.00    +0.260 C 
ATOM     23  N   LIG    1        3.455   3.605  -1.329  0.00  0.00    -0.510 N 
ATOM     24  C   LIG    1        3.542   2.140  -1.306  0.00  0.00    +0.260 C 
ATOM     25  H   LIG    1        2.897   3.896  -2.118  0.00  0.00    +0.430 HD
ATOM     26  H   LIG    1        4.382   3.995  -1.412  0.00  0.00    +0.430 HD
ATOM     27  C   LIG    1        2.134   1.543  -1.262  0.00  0.00    +0.070 C 
ENDBRANCH  19  20
BRANCH  19  28
ATOM     28  C   LIG    1        0.002  -0.004   0.002  0.00  0.00    -0.100 A 
ATOM     29  C   LIG    1        0.625  -0.693   1.026  0.00  0.00    +0.010 A 
ATOM     30  C   LIG    1        0.640  -2.075   1.021  0.00  0.00    +0.020 A 
ATOM     31  C   LIG    1        0.040  -2.768  -0.013  0.00  0.00    +0.020 A 
ATOM     32  C   LIG    1       -0.578  -2.080  -1.040  0.00  0.00    +0.020 A 
ATOM     33  C   LIG    1       -0.597  -0.698  -1.033  0.00  0.00    +0.000 A 
ENDBRANCH  19  28
ENDBRANCH  18  19
ENDBRANCH   1  18
TORSDOF 7
