REMARK  Name = ZINCqH0000000pi3.0
REMARK                            x       y       z     vdW  Elec       q    Type
REMARK                         _______ _______ _______ _____ _____    ______ ____
ROOT
ATOM      1  N   LIG    1       -4.163   7.093   0.266  0.00  0.00    -0.670 N 
ATOM      2  H   LIG    1       -3.446   7.730   0.116  0.00  0.00    +0.410 HD
ATOM      3  C   LIG    1       -3.885   5.780   0.381  0.00  0.00    +0.510 C 
ATOM      4  O   LIG    1       -4.786   4.976   0.486  0.00  0.00    -0.510 OA
ENDROOT
BRANCH   1  12
ATOM      5  C   LIG    1      -11.820   9.253   0.735  0.00  0.00    +0.110 C 
ATOM      6  C   LIG    1      -10.542   8.544   0.367  0.00  0.00    +0.520 C 
ATOM      7  N   LIG    1       -9.354   9.051   0.752  0.00  0.00    -0.560 N 
ATOM      8  C   LIG    1       -9.171  10.334   1.436  0.00  0.00    +0.280 C 
ATOM      9  C   LIG    1       -7.655  10.461   1.656  0.00  0.00    +0.100 C 
ATOM     10  C   LIG    1       -7.076   9.198   1.060  0.00  0.00    -0.120 A 
ATOM     11  C   LIG    1       -5.770   8.758   0.966  0.00  0.00    +0.030 A 
ATOM     12  C   LIG    1       -5.487   7.540   0.363  0.00  0.00    +0.120 A 
ATOM     13  C   LIG    1       -6.522   6.769  -0.148  0.00  0.00    +0.050 A 
ATOM     14  C   LIG    1       -7.825   7.206  -0.049  0.00  0.00    +0.030 A 
ATOM     15  C   LIG    1       -8.115   8.431   0.556  0.00  0.00    +0.130 A 
ATOM     16  O   LIG    1      -10.583   7.516  -0.276  0.00  0.00    -0.520 OA
ENDBRANCH   1  12
BRANCH   3  17
ATOM     17  C   LIG    1       -2.453   5.310   0.379  0.00  0.00    +0.290 C 
BRANCH  17  18
ATOM     18  N   LIG    1       -2.417   3.852   0.515  0.00  0.00    -0.740 N 
ATOM     19  H   LIG    1       -3.244   3.351   0.589  0.00  0.00    +0.410 HD
BRANCH  18  20
ATOM     20  C   LIG    1       -1.191   3.182   0.539  0.00  0.00    +0.220 A 
ATOM     21  C   LIG    1       -0.012   3.882   0.320  0.00  0.00    -0.080 A 
ATOM     22  C   LIG    1        1.199   3.217   0.344  0.00  0.00    +0.040 A 
ATOM     23  C   LIG    1        1.237   1.856   0.585  0.00  0.00    -0.050 A 
ATOM     24  C   LIG    1        0.064   1.156   0.803  0.00  0.00    +0.050 A 
ATOM     25  C   LIG    1       -1.150   1.814   0.775  0.00  0.00    -0.140 A 
BRANCH  25  26
ATOM     26  C   LIG    1       -2.428   1.049   1.007  0.00  0.00    +0.020 C 
ATOM     27  C   LIG    1       -2.445   0.507   2.438  0.00  0.00    +0.030 C 
ATOM     28  C   LIG    1       -2.511  -0.116   0.019  0.00  0.00    +0.030 C 
ENDBRANCH  25  26
ENDBRANCH  18  20
ENDBRANCH  17  18
ENDBRANCH   3  17
TORSDOF 5
