REMARK  Name = ZINCrH000004nxxX.0
REMARK                            x       y       z     vdW  Elec       q    Type
REMARK                         _______ _______ _______ _____ _____    ______ ____
ROOT
ATOM      1  C   LIG    1       -0.018   1.503   0.010  0.00  0.00    +0.390 C 
ENDROOT
BRANCH   1   5
ATOM      2  C   LIG    1       -0.469  -2.051  -0.290  0.00  0.00    +0.220 A 
ATOM      3  N   LIG    1        0.666  -1.955   0.353  0.00  0.00    -0.340 NA
ATOM      4  O   LIG    1        0.949  -0.788   0.527  0.00  0.00    +0.100 OA
ATOM      5  C   LIG    1        0.002  -0.004   0.002  0.00  0.00    +0.170 A 
ATOM      6  N   LIG    1       -0.907  -0.791  -0.516  0.00  0.00    -0.450 NA
BRANCH   2  12
ATOM      7  C   LIG    1       -0.579  -4.544  -0.382  0.00  0.00    +0.160 A 
ATOM      8  C   LIG    1       -1.224  -5.712  -0.760  0.00  0.00    -0.070 A 
ATOM      9  C   LIG    1       -2.427  -5.651  -1.437  0.00  0.00    +0.070 A 
ATOM     10  C   LIG    1       -2.994  -4.426  -1.743  0.00  0.00    -0.030 A 
ATOM     11  C   LIG    1       -2.366  -3.256  -1.368  0.00  0.00    +0.100 A 
ATOM     12  C   LIG    1       -1.151  -3.305  -0.690  0.00  0.00    -0.070 A 
BRANCH   7  14
ATOM     13  C   LIG    1        1.126  -5.903   0.564  0.00  0.00    +0.240 C 
ATOM     14  O   LIG    1        0.603  -4.603   0.284  0.00  0.00    -0.300 OA
ENDBRANCH   7  14
ENDBRANCH   2  12
ENDBRANCH   1   5
BRANCH   1  15
ATOM     15  O   LIG    1       -0.687   1.964   1.186  0.00  0.00    -0.300 OA
BRANCH  15  16
ATOM     16  C   LIG    1       -0.793   3.307   1.348  0.00  0.00    +0.190 A 
ATOM     17  C   LIG    1       -0.254   4.163   0.390  0.00  0.00    -0.090 A 
ATOM     18  C   LIG    1       -0.358   5.517   0.536  0.00  0.00    +0.140 A 
ATOM     19  C   LIG    1       -0.998   6.048   1.661  0.00  0.00    -0.190 A 
ATOM     20  C   LIG    1       -1.118   7.495   1.847  0.00  0.00    +0.040 A 
ATOM     21  C   LIG    1       -1.752   7.949   2.959  0.00  0.00    -0.100 A 
ATOM     22  C   LIG    1       -2.270   7.031   3.895  0.00  0.00    +0.510 A 
ATOM     23  O   LIG    1       -2.157   5.705   3.719  0.00  0.00    -0.270 OA
ATOM     24  O   LIG    1       -2.836   7.451   4.888  0.00  0.00    -0.460 OA
ATOM     25  C   LIG    1       -0.555   8.455   0.831  0.00  0.00    +0.130 C 
ATOM     26  C   LIG    1       -1.539   5.188   2.635  0.00  0.00    +0.190 A 
ATOM     27  C   LIG    1       -1.431   3.816   2.468  0.00  0.00    -0.010 A 
ENDBRANCH  15  16
ENDBRANCH   1  15
TORSDOF 5
