REMARK  Name = ZINCqH0000003tAQ.0
REMARK                            x       y       z     vdW  Elec       q    Type
REMARK                         _______ _______ _______ _____ _____    ______ ____
ROOT
ATOM      1  N   LIG    1        5.743   3.496  -1.809  0.00  0.00    -0.620 N 
ATOM      2  H   LIG    1        5.581   2.766  -2.428  0.00  0.00    +0.430 HD
ATOM      3  C   LIG    1        4.776   3.880  -0.953  0.00  0.00    +0.520 C 
ATOM      4  O   LIG    1        4.979   4.792  -0.179  0.00  0.00    -0.500 OA
ENDROOT
BRANCH   1   8
ATOM      5  C   LIG    1        9.063   4.609  -2.417  0.00  0.00    +0.040 A 
ATOM      6  C   LIG    1        8.966   5.555  -1.459  0.00  0.00    -0.070 A 
ATOM      7  S   LIG    1        7.413   5.479  -0.748  0.00  0.00    +0.300 S 
ATOM      8  C   LIG    1        6.971   4.144  -1.807  0.00  0.00    +0.250 A 
ATOM      9  N   LIG    1        7.970   3.857  -2.579  0.00  0.00    -0.460 NA
BRANCH   5  10
ATOM     10  C   LIG    1       10.281   4.416  -3.217  0.00  0.00    +0.550 C 
ATOM     11  O   LIG    1       11.252   5.123  -3.027  0.00  0.00    -0.500 OA
BRANCH  10  12
ATOM     12  O   LIG    1       10.322   3.454  -4.161  0.00  0.00    -0.340 OA
BRANCH  12  14
ATOM     13  C   LIG    1       11.416   2.187  -5.930  0.00  0.00    +0.070 C 
ATOM     14  C   LIG    1       11.558   3.321  -4.913  0.00  0.00    +0.200 C 
ENDBRANCH  12  14
ENDBRANCH  10  12
ENDBRANCH   5  10
ENDBRANCH   1   8
BRANCH   3  15
ATOM     15  C   LIG    1        3.444   3.176  -0.955  0.00  0.00    +0.090 C 
BRANCH  15  16
ATOM     16  C   LIG    1        2.484   3.898  -0.008  0.00  0.00    +0.060 C 
ATOM     17  C   LIG    1        2.205   5.300  -0.546  0.00  0.00    +0.020 C 
ATOM     18  C   LIG    1        1.083   5.926   0.291  0.00  0.00    +0.020 C 
ATOM     19  C   LIG    1       -0.220   5.194  -0.025  0.00  0.00    +0.080 C 
ATOM     20  C   LIG    1       -0.036   3.705   0.105  0.00  0.00    -0.030 A 
ATOM     21  C   LIG    1       -1.175   2.922   0.226  0.00  0.00    -0.020 A 
ATOM     22  C   LIG    1       -1.074   1.545   0.331  0.00  0.00    +0.130 A 
ATOM     23  C   LIG    1        0.177   0.947   0.327  0.00  0.00    -0.080 A 
ATOM     24  C   LIG    1        1.308   1.727   0.210  0.00  0.00    +0.040 A 
ATOM     25  C   LIG    1        1.206   3.108   0.102  0.00  0.00    -0.110 A 
BRANCH  22  26
ATOM     26  O   LIG    1       -2.195   0.784   0.443  0.00  0.00    -0.320 OA
ATOM     27  C   LIG    1       -2.011  -0.628   0.554  0.00  0.00    +0.250 C 
ENDBRANCH  22  26
ENDBRANCH  15  16
ENDBRANCH   3  15
TORSDOF 7
