REMARK  Name = ZINC650000003W6t.0
REMARK                            x       y       z     vdW  Elec       q    Type
REMARK                         _______ _______ _______ _____ _____    ______ ____
ROOT
ATOM      1  O   LIG    1        0.002  -0.004   0.002  0.00  0.00    -0.520 OA
ATOM      2  C   LIG    1       -0.014   1.211   0.009  0.00  0.00    +0.640 C 
ATOM      3  N   LIG    1       -1.147   1.927   0.018  0.00  0.00    -0.740 N 
ATOM      4  H   LIG    1       -2.046   1.561   0.020  0.00  0.00    +0.440 HD
ATOM      5  C   LIG    1       -0.806   3.358   0.027  0.00  0.00    +0.240 C 
ATOM      6  C   LIG    1        0.735   3.367   0.013  0.00  0.00    +0.260 C 
ATOM      7  O   LIG    1        1.097   1.956   0.002  0.00  0.00    -0.330 OA
ENDROOT
TORSDOF 0
