REMARK  Name = ZINCnE000001HxaT.0
REMARK                            x       y       z     vdW  Elec       q    Type
REMARK                         _______ _______ _______ _____ _____    ______ ____
ROOT
ATOM      1  C   LIG    1        0.488  -0.009  -1.835  0.00  0.00    +0.530 C 
ATOM      2  N   LIG    1        1.587   0.732  -2.080  0.00  0.00    -0.700 N 
ATOM      3  H   LIG    1        2.257   0.414  -2.705  0.00  0.00    +0.400 HD
ATOM      4  O   LIG    1       -0.390   0.425  -1.120  0.00  0.00    -0.560 OA
ENDROOT
BRANCH   2   5
ATOM      5  C   LIG    1        1.769   2.017  -1.401  0.00  0.00    +0.250 C 
ATOM      6  C   LIG    1        1.822   3.159  -2.437  0.00  0.00    +0.000 C 
ATOM      7  C   LIG    1        2.879   4.139  -1.867  0.00  0.00    +0.000 C 
ATOM      8  C   LIG    1        3.942   3.185  -1.268  0.00  0.00    +0.030 C 
ATOM      9  C   LIG    1        3.116   2.034  -0.657  0.00  0.00    -0.150 C 
ATOM     10  C   LIG    1        2.889   2.285   0.834  0.00  0.00    +0.020 C 
BRANCH   9  11
ATOM     11  C   LIG    1        3.832   0.722  -0.856  0.00  0.00    +0.510 C 
ATOM     12  O   LIG    1        3.381  -0.298  -0.365  0.00  0.00    -0.680 OA
ATOM     13  O   LIG    1        4.862   0.682  -1.508  0.00  0.00    -0.700 OA
ENDBRANCH   9  11
ENDBRANCH   2   5
BRANCH   1  14
ATOM     14  C   LIG    1        0.349  -1.378  -2.451  0.00  0.00    -0.020 C 
BRANCH  14  16
ATOM     15  C   LIG    1       -1.534  -0.624  -3.909  0.00  0.00    +0.010 C 
ATOM     16  C   LIG    1       -1.113  -1.622  -2.829  0.00  0.00    +0.030 C 
ENDBRANCH  14  16
BRANCH  14  17
ATOM     17  C   LIG    1        0.800  -2.438  -1.444  0.00  0.00    +0.060 C 
BRANCH  17  18
ATOM     18  C   LIG    1        0.778  -3.816  -2.109  0.00  0.00    +0.060 C 
BRANCH  18  19
ATOM     19  C   LIG    1        1.222  -4.860  -1.117  0.00  0.00    -0.070 A 
ATOM     20  C   LIG    1        2.560  -5.192  -1.015  0.00  0.00    +0.010 A 
ATOM     21  C   LIG    1        2.967  -6.147  -0.102  0.00  0.00    +0.000 A 
ATOM     22  C   LIG    1        2.035  -6.776   0.703  0.00  0.00    -0.010 A 
ATOM     23  C   LIG    1        0.697  -6.447   0.597  0.00  0.00    +0.000 A 
ATOM     24  C   LIG    1        0.290  -5.489  -0.313  0.00  0.00    +0.000 A 
ENDBRANCH  18  19
ENDBRANCH  17  18
ENDBRANCH  14  17
ENDBRANCH   1  14
TORSDOF 7
