REMARK  Name = ZINCrD00000f7JRH.0
REMARK                            x       y       z     vdW  Elec       q    Type
REMARK                         _______ _______ _______ _____ _____    ______ ____
ROOT
ATOM      1  C   LIG    1        2.508   1.294  -0.685  0.00  0.00    +0.530 C 
ATOM      2  N   LIG    1        1.365   1.766  -0.147  0.00  0.00    -0.620 N 
ATOM      3  C   LIG    1        1.159   3.100   0.456  0.00  0.00    +0.220 C 
ATOM      4  C   LIG    1       -0.325   3.108   0.936  0.00  0.00    +0.010 C 
ATOM      5  C   LIG    1       -1.148   3.175  -0.389  0.00  0.00    +0.020 C 
ATOM      6  C   LIG    1       -0.868   1.768  -1.065  0.00  0.00    +0.010 C 
ATOM      7  C   LIG    1       -0.481   1.593   1.320  0.00  0.00    +0.040 C 
ATOM      8  C   LIG    1        0.064   1.045  -0.046  0.00  0.00    +0.240 C 
ATOM      9  O   LIG    1        3.474   2.019  -0.788  0.00  0.00    -0.530 OA
ENDROOT
BRANCH   1  10
ATOM     10  C   LIG    1        2.583  -0.135  -1.158  0.00  0.00    +0.060 C 
BRANCH  10  11
ATOM     11  C   LIG    1        3.979  -0.412  -1.721  0.00  0.00    +0.100 C 
BRANCH  11  16
ATOM     12  C   LIG    1        4.270  -5.891  -3.536  0.00  0.00    +0.090 C 
ATOM     13  C   LIG    1        4.194  -4.462  -3.062  0.00  0.00    -0.090 A 
ATOM     14  C   LIG    1        3.788  -3.466  -3.932  0.00  0.00    +0.000 A 
ATOM     15  C   LIG    1        3.719  -2.156  -3.498  0.00  0.00    +0.010 A 
ATOM     16  C   LIG    1        4.054  -1.841  -2.194  0.00  0.00    -0.090 A 
ATOM     17  C   LIG    1        4.465  -2.835  -1.327  0.00  0.00    +0.010 A 
ATOM     18  C   LIG    1        4.530  -4.147  -1.759  0.00  0.00    +0.000 A 
ENDBRANCH  11  16
ENDBRANCH  10  11
ENDBRANCH   1  10
BRANCH   3  19
ATOM     19  C   LIG    1        2.102   3.296   1.645  0.00  0.00    +0.270 C 
BRANCH  19  20
ATOM     20  N   LIG    1        1.967   4.662   2.156  0.00  0.00    -0.720 N 
ATOM     21  H   LIG    1        1.296   5.255   1.783  0.00  0.00    +0.410 HD
ATOM     22  C   LIG    1        2.774   5.095   3.144  0.00  0.00    +0.610 C 
ATOM     23  O   LIG    1        3.616   4.351   3.613  0.00  0.00    -0.520 OA
BRANCH  22  24
ATOM     24  C   LIG    1        2.639   6.463   3.656  0.00  0.00    -0.080 A 
ATOM     25  C   LIG    1        3.384   7.024   4.653  0.00  0.00    +0.040 A 
ATOM     26  C   LIG    1        2.920   8.339   4.812  0.00  0.00    -0.060 A 
ATOM     27  C   LIG    1        1.918   8.518   3.923  0.00  0.00    +0.210 A 
ATOM     28  O   LIG    1        1.751   7.385   3.228  0.00  0.00    -0.170 OA
ENDBRANCH  22  24
ENDBRANCH  19  20
ENDBRANCH   3  19
TORSDOF 6
