REMARK  Name = ZINCqH0000002U9g.0
REMARK                            x       y       z     vdW  Elec       q    Type
REMARK                         _______ _______ _______ _____ _____    ______ ____
ROOT
ATOM      1  C   LIG    1        0.144  -2.190   1.152  0.00  0.00    +0.360 C 
ENDROOT
BRANCH   1   4
ATOM      2  N   LIG    1       -0.231  -3.396   4.542  0.00  0.00    -0.540 N 
ATOM      3  C   LIG    1       -0.727  -2.965   3.367  0.00  0.00    +0.690 A 
ATOM      4  N   LIG    1        0.285  -2.684   2.524  0.00  0.00    -0.520 N 
ATOM      5  C   LIG    1        1.486  -2.948   3.176  0.00  0.00    +0.100 A 
ATOM      6  C   LIG    1        2.816  -2.847   2.798  0.00  0.00    +0.030 A 
ATOM      7  C   LIG    1        3.813  -3.192   3.691  0.00  0.00    +0.020 A 
ATOM      8  C   LIG    1        3.489  -3.638   4.960  0.00  0.00    +0.020 A 
ATOM      9  C   LIG    1        2.167  -3.733   5.349  0.00  0.00    +0.030 A 
ATOM     10  O   LIG    1       -1.909  -2.847   3.107  0.00  0.00    -0.550 OA
ATOM     11  C   LIG    1        1.160  -3.394   4.459  0.00  0.00    +0.100 A 
BRANCH   2  12
ATOM     12  C   LIG    1       -1.019  -3.798   5.710  0.00  0.00    +0.310 C 
BRANCH  12  14
ATOM     13  C   LIG    1       -2.144  -5.716   6.849  0.00  0.00    +0.030 C 
ATOM     14  C   LIG    1       -1.321  -5.296   5.629  0.00  0.00    +0.000 C 
ENDBRANCH  12  14
ENDBRANCH   2  12
ENDBRANCH   1   4
BRANCH   1  15
ATOM     15  C   LIG    1        0.124  -0.683   1.160  0.00  0.00    +0.500 C 
ATOM     16  N   LIG    1        0.002  -0.004   0.002  0.00  0.00    -0.720 N 
ATOM     17  H   LIG    1       -0.072  -0.485  -0.837  0.00  0.00    +0.400 HD
ATOM     18  O   LIG    1        0.217  -0.081   2.209  0.00  0.00    -0.520 OA
BRANCH  16  19
ATOM     19  C   LIG    1       -0.018   1.461   0.010  0.00  0.00    +0.290 C 
ATOM     20  C   LIG    1        1.418   1.990  -0.001  0.00  0.00    +0.040 C 
BRANCH  19  21
ATOM     21  C   LIG    1       -0.747   1.960  -1.211  0.00  0.00    -0.090 A 
ATOM     22  C   LIG    1       -0.557   1.338  -2.431  0.00  0.00    +0.030 A 
ATOM     23  C   LIG    1       -1.229   1.793  -3.550  0.00  0.00    +0.030 A 
ATOM     24  C   LIG    1       -2.084   2.876  -3.451  0.00  0.00    -0.030 A 
ATOM     25  C   LIG    1       -2.269   3.501  -2.231  0.00  0.00    +0.040 A 
ATOM     26 CL   LIG    1       -2.923   3.452  -4.858  0.00  0.00    -0.070 Cl
ATOM     27  C   LIG    1       -1.600   3.043  -1.111  0.00  0.00    +0.050 A 
ENDBRANCH  19  21
ENDBRANCH  16  19
ENDBRANCH   1  15
TORSDOF 6
