REMARK  Name = ZINCrH000004r0v1.0
REMARK                            x       y       z     vdW  Elec       q    Type
REMARK                         _______ _______ _______ _____ _____    ______ ____
ROOT
ATOM      1  C   LIG    1        1.248   1.716  -0.001  0.00  0.00    +0.350 C 
ENDROOT
BRANCH   1   4
ATOM      2  N   LIG    1        4.085  -0.493   0.620  0.00  0.00    -0.320 N 
ATOM      3  C   LIG    1        3.150   0.383   1.052  0.00  0.00    +0.260 A 
ATOM      4  C   LIG    1        2.406   0.752  -0.017  0.00  0.00    -0.250 A 
ATOM      5  C   LIG    1        2.899   0.076  -1.139  0.00  0.00    +0.100 A 
ATOM      6  C   LIG    1        2.363   0.187  -2.543  0.00  0.00    +0.160 C 
ATOM      7  N   LIG    1        3.909  -0.665  -0.759  0.00  0.00    -0.290 NA
BRANCH   2  12
ATOM      8  C   LIG    1        8.030  -3.019   3.824  0.00  0.00    +0.090 C 
ATOM      9  C   LIG    1        6.983  -2.348   2.973  0.00  0.00    -0.090 A 
ATOM     10  C   LIG    1        6.922  -2.612   1.617  0.00  0.00    +0.030 A 
ATOM     11  C   LIG    1        5.963  -1.999   0.835  0.00  0.00    +0.030 A 
ATOM     12  C   LIG    1        5.060  -1.116   1.411  0.00  0.00    +0.150 A 
ATOM     13  C   LIG    1        5.127  -0.849   2.772  0.00  0.00    +0.000 A 
ATOM     14  C   LIG    1        6.084  -1.469   3.550  0.00  0.00    +0.040 A 
ENDBRANCH   2  12
ENDBRANCH   1   4
BRANCH   1  15
ATOM     15  N   LIG    1       -0.011   0.966   0.007  0.00  0.00    -0.730 N 
ATOM     16  H   LIG    1        0.002  -0.004   0.002  0.00  0.00    +0.400 HD
BRANCH  15  17
ATOM     17  C   LIG    1       -1.230   1.648   0.017  0.00  0.00    +0.260 A 
ATOM     18  C   LIG    1       -1.251   3.036   0.025  0.00  0.00    -0.080 A 
ATOM     19  C   LIG    1       -2.458   3.708   0.033  0.00  0.00    +0.060 A 
ATOM     20  C   LIG    1       -3.645   2.998   0.035  0.00  0.00    -0.070 A 
ATOM     21  C   LIG    1       -3.628   1.615   0.028  0.00  0.00    +0.070 A 
ATOM     22  C   LIG    1       -2.425   0.938   0.013  0.00  0.00    -0.200 A 
BRANCH  22  23
ATOM     23  C   LIG    1       -2.407  -0.569  -0.002  0.00  0.00    +0.380 C 
BRANCH  23  24
ATOM     24  N   LIG    1       -2.278  -1.069   1.369  0.00  0.00    -0.370 N 
ATOM     25  C   LIG    1       -3.099  -1.931   1.993  0.00  0.00    +0.470 A 
ATOM     26  N   LIG    1       -2.640  -2.126   3.203  0.00  0.00    -0.550 NA
ATOM     27  C   LIG    1       -1.537  -1.403   3.389  0.00  0.00    +0.400 A 
ATOM     28  N   LIG    1       -1.274  -0.738   2.295  0.00  0.00    -0.310 NA
ENDBRANCH  23  24
ENDBRANCH  22  23
ENDBRANCH  15  17
ENDBRANCH   1  15
TORSDOF 6
