REMARK  Name = ZINCqH0000037xaW.0
REMARK                            x       y       z     vdW  Elec       q    Type
REMARK                         _______ _______ _______ _____ _____    ______ ____
ROOT
ATOM      1  N   LIG    1       -2.204   3.947   0.272  0.00  0.00    -0.460 N 
ATOM      2  C   LIG    1       -1.100   3.130   0.161  0.00  0.00    +0.120 A 
ATOM      3  C   LIG    1       -0.917   1.755   0.268  0.00  0.00    -0.020 A 
ATOM      4  C   LIG    1        0.341   1.217   0.104  0.00  0.00    +0.020 A 
ATOM      5  C   LIG    1        1.429   2.031  -0.177  0.00  0.00    -0.030 A 
ATOM      6  C   LIG    1        1.272   3.384  -0.292  0.00  0.00    +0.050 A 
ATOM      7  C   LIG    1        0.006   3.952  -0.124  0.00  0.00    -0.100 A 
ATOM      8  C   LIG    1       -0.504   5.321  -0.178  0.00  0.00    -0.030 A 
ATOM      9  C   LIG    1       -1.836   5.256   0.067  0.00  0.00    +0.120 A 
ENDROOT
BRANCH   9  10
ATOM     10  C   LIG    1       -2.753   6.416   0.108  0.00  0.00    -0.030 A 
ATOM     11  C   LIG    1       -2.430   7.589  -0.577  0.00  0.00    +0.030 A 
ATOM     12  C   LIG    1       -3.293   8.665  -0.540  0.00  0.00    +0.020 A 
ATOM     13  C   LIG    1       -4.470   8.587   0.183  0.00  0.00    +0.010 A 
ATOM     14  C   LIG    1       -4.793   7.429   0.869  0.00  0.00    +0.010 A 
ATOM     15  C   LIG    1       -3.942   6.344   0.835  0.00  0.00    +0.000 A 
ENDBRANCH   9  10
BRANCH   1  16
ATOM     16  C   LIG    1       -3.564   3.490   0.565  0.00  0.00    +0.330 C 
BRANCH  16  19
ATOM     17  N   LIG    1       -4.923   2.954   2.562  0.00  0.00    -0.710 N 
ATOM     18  H   LIG    1       -5.658   2.742   1.966  0.00  0.00    +0.410 HD
ATOM     19  C   LIG    1       -3.742   3.362   2.056  0.00  0.00    +0.490 C 
ATOM     20  O   LIG    1       -2.822   3.627   2.801  0.00  0.00    -0.510 OA
BRANCH  17  26
ATOM     21  C   LIG    1       -6.774   4.139   5.348  0.00  0.00    +0.020 C 
ATOM     22  C   LIG    1       -6.582   2.971   4.379  0.00  0.00    +0.120 C 
ATOM     23  C   LIG    1       -6.997   1.648   5.056  0.00  0.00    +0.000 C 
ATOM     24  C   LIG    1       -5.667   1.065   5.595  0.00  0.00    +0.020 C 
ATOM     25  C   LIG    1       -4.657   1.426   4.477  0.00  0.00    +0.010 C 
ATOM     26  C   LIG    1       -5.095   2.830   4.011  0.00  0.00    +0.260 C 
BRANCH  22  27
ATOM     27  O   LIG    1       -7.361   3.182   3.199  0.00  0.00    -0.560 OA
ATOM     28  H   LIG    1       -8.308   3.279   3.365  0.00  0.00    +0.380 HD
ENDBRANCH  22  27
ENDBRANCH  17  26
ENDBRANCH  16  19
ENDBRANCH   1  16
TORSDOF 5
