REMARK  Name = ZINCvU00000005FA.0
REMARK                            x       y       z     vdW  Elec       q    Type
REMARK                         _______ _______ _______ _____ _____    ______ ____
ROOT
ATOM      1  C   LIG    1       -1.754   1.816  -0.084  0.00  0.00    +0.050 C 
ENDROOT
BRANCH   1   2
ATOM      2  C   LIG    1       -2.179   2.205  -1.476  0.00  0.00    -0.090 A 
ATOM      3  C   LIG    1       -2.480   1.227  -2.405  0.00  0.00    +0.030 A 
ATOM      4  C   LIG    1       -2.873   1.585  -3.682  0.00  0.00    +0.000 A 
ATOM      5  C   LIG    1       -2.958   2.919  -4.031  0.00  0.00    +0.010 A 
ATOM      6  C   LIG    1       -2.651   3.897  -3.103  0.00  0.00    +0.000 A 
ATOM      7  C   LIG    1       -2.261   3.540  -1.826  0.00  0.00    +0.060 A 
ENDBRANCH   1   2
BRANCH   1  10
ATOM      8  N   LIG    1        0.703   1.572  -0.224  0.00  0.00    -0.650 N 
ATOM      9  H   LIG    1        0.765   2.537  -0.304  0.00  0.00    +0.420 HD
ATOM     10  C   LIG    1       -0.504   0.977  -0.155  0.00  0.00    +0.540 C 
ATOM     11  O   LIG    1       -0.585  -0.233  -0.157  0.00  0.00    -0.500 OA
BRANCH   8  18
ATOM     12  C   LIG    1        3.054   1.283  -0.728  0.00  0.00    +0.100 A 
ATOM     13  C   LIG    1        4.204   0.513  -0.681  0.00  0.00    -0.050 A 
ATOM     14  C   LIG    1        4.175  -0.736  -0.088  0.00  0.00    +0.030 A 
ATOM     15  C   LIG    1        3.001  -1.220   0.459  0.00  0.00    -0.100 A 
ATOM     16  C   LIG    1        1.850  -0.455   0.419  0.00  0.00    +0.050 A 
ATOM     17  C   LIG    1        2.976  -2.581   1.104  0.00  0.00    +0.100 C 
ATOM     18  C   LIG    1        1.870   0.797  -0.178  0.00  0.00    +0.120 A 
BRANCH  12  20
ATOM     19  C   LIG    1        4.329   2.946  -1.853  0.00  0.00    +0.250 C 
ATOM     20  O   LIG    1        3.080   2.512  -1.310  0.00  0.00    -0.320 OA
ENDBRANCH  12  20
ENDBRANCH   8  18
ENDBRANCH   1  10
BRANCH   1  21
ATOM     21  S   LIG    1       -3.075   0.863   0.706  0.00  0.00    +0.090 S 
BRANCH  21  22
ATOM     22  C   LIG    1       -4.330   2.097   0.795  0.00  0.00    +0.140 A 
ATOM     23  N   LIG    1       -4.235   3.339   0.382  0.00  0.00    -0.270 NA
ATOM     24  N   LIG    1       -5.340   3.958   0.601  0.00  0.00    -0.280 NA
ATOM     25  C   LIG    1       -6.197   3.158   1.169  0.00  0.00    +0.230 A 
ATOM     26  N   LIG    1       -5.585   1.943   1.313  0.00  0.00    -0.430 N 
BRANCH  25  27
ATOM     27  C   LIG    1       -7.601   3.505   1.588  0.00  0.00    +0.030 C 
ATOM     28  C   LIG    1       -8.154   4.863   1.151  0.00  0.00    +0.070 C 
ATOM     29  C   LIG    1       -7.775   4.627   2.614  0.00  0.00    +0.050 C 
ENDBRANCH  25  27
BRANCH  26  30
ATOM     30  C   LIG    1       -6.156   0.729   1.901  0.00  0.00    +0.200 C 
ATOM     31  C   LIG    1       -5.186  -0.377   2.320  0.00  0.00    +0.060 C 
ATOM     32  C   LIG    1       -6.068  -0.561   1.084  0.00  0.00    +0.060 C 
ENDBRANCH  26  30
ENDBRANCH  21  22
ENDBRANCH   1  21
TORSDOF 8
