REMARK  Name = ZINCvU0000000575.0
REMARK                            x       y       z     vdW  Elec       q    Type
REMARK                         _______ _______ _______ _____ _____    ______ ____
ROOT
ATOM      1  C   LIG    1        1.213   2.016   0.001  0.00  0.00    +0.060 A 
ATOM      2  N   LIG    1        2.343   1.317  -0.013  0.00  0.00    -0.160 NA
ATOM      3  N   LIG    1        2.313   0.030  -0.019  0.00  0.00    -0.290 NA
ATOM      4  C   LIG    1        1.167  -0.640  -0.013  0.00  0.00    +0.210 A 
ATOM      5  N   LIG    1        0.002  -0.004   0.002  0.00  0.00    -0.450 NA
ATOM      6  C   LIG    1       -0.016   1.327   0.009  0.00  0.00    +0.230 A 
ENDROOT
BRANCH   1  11
ATOM      7  C   LIG    1        1.338   7.772   0.029  0.00  0.00    +0.090 C 
ATOM      8  C   LIG    1        1.306   6.266   0.022  0.00  0.00    -0.060 A 
ATOM      9  C   LIG    1        2.280   5.552   0.697  0.00  0.00    +0.000 A 
ATOM     10  C   LIG    1        2.255   4.172   0.694  0.00  0.00    +0.060 A 
ATOM     11  C   LIG    1        1.246   3.497   0.009  0.00  0.00    -0.060 A 
ATOM     12  C   LIG    1        0.270   4.222  -0.675  0.00  0.00    +0.050 A 
ATOM     13  C   LIG    1        0.301   5.601  -0.660  0.00  0.00    +0.000 A 
ENDBRANCH   1  11
BRANCH   6  14
ATOM     14  C   LIG    1       -1.299   2.067   0.019  0.00  0.00    -0.090 A 
ATOM     15  C   LIG    1       -1.411   3.266   0.723  0.00  0.00    +0.070 A 
ATOM     16  C   LIG    1       -2.607   3.953   0.725  0.00  0.00    +0.000 A 
ATOM     17  C   LIG    1       -3.698   3.449   0.039  0.00  0.00    -0.050 A 
ATOM     18  C   LIG    1       -3.595   2.258  -0.656  0.00  0.00    +0.000 A 
ATOM     19  C   LIG    1       -5.004   4.202   0.050  0.00  0.00    +0.100 C 
ATOM     20  C   LIG    1       -2.403   1.564  -0.670  0.00  0.00    +0.070 A 
ENDBRANCH   6  14
BRANCH   4  21
ATOM     21  S   LIG    1        1.192  -2.402  -0.022  0.00  0.00    +0.120 S 
BRANCH  21  22
ATOM     22  C   LIG    1        2.979  -2.691  -0.041  0.00  0.00    +0.100 C 
BRANCH  22  23
ATOM     23  C   LIG    1        3.248  -4.173  -0.051  0.00  0.00    +0.540 C 
ATOM     24  N   LIG    1        4.517  -4.628  -0.066  0.00  0.00    -0.720 N 
ATOM     25  H   LIG    1        5.257  -4.000  -0.070  0.00  0.00    +0.410 HD
ATOM     26  O   LIG    1        2.323  -4.958  -0.047  0.00  0.00    -0.520 OA
BRANCH  24  27
ATOM     27  C   LIG    1        4.779  -6.069  -0.076  0.00  0.00    +0.370 C 
BRANCH  27  28
ATOM     28  C   LIG    1        6.266  -6.309  -0.092  0.00  0.00    -0.210 A 
ATOM     29  C   LIG    1        7.036  -6.438   0.990  0.00  0.00    +0.030 A 
ATOM     30  C   LIG    1        8.378  -6.654   0.729  0.00  0.00    +0.000 A 
ATOM     31  C   LIG    1        8.698  -6.701  -0.565  0.00  0.00    -0.030 A 
ATOM     32  S   LIG    1        7.252  -6.471  -1.539  0.00  0.00    +0.120 S 
ENDBRANCH  27  28
ENDBRANCH  24  27
ENDBRANCH  22  23
ENDBRANCH  21  22
ENDBRANCH   4  21
TORSDOF 7
