REMARK  Name = ZINCqH0000038ih1.0
REMARK                            x       y       z     vdW  Elec       q    Type
REMARK                         _______ _______ _______ _____ _____    ______ ____
ROOT
ATOM      1  C   LIG    1        3.580   5.590   3.250  0.00  0.00    +0.230 C 
ATOM      2  C   LIG    1        4.976   6.079   3.711  0.00  0.00    +0.050 C 
ATOM      3  C   LIG    1        5.915   5.105   2.951  0.00  0.00    +0.010 C 
ATOM      4  C   LIG    1        5.126   3.779   2.964  0.00  0.00    +0.190 C 
ATOM      5  N   LIG    1        3.705   4.119   3.164  0.00  0.00    -0.490 NA
ENDROOT
BRANCH   1  13
ATOM      6  C   LIG    1       -1.238   6.062   8.853  0.00  0.00    +0.100 C 
ATOM      7  C   LIG    1       -0.454   6.419   7.617  0.00  0.00    -0.100 A 
ATOM      8  C   LIG    1       -0.679   7.636   6.988  0.00  0.00    +0.030 A 
ATOM      9  C   LIG    1        0.030   7.979   5.856  0.00  0.00    +0.010 A 
ATOM     10  C   LIG    1        0.974   7.101   5.343  0.00  0.00    +0.040 A 
ATOM     11  N   LIG    1        1.834   7.137   4.264  0.00  0.00    -0.600 N 
ATOM     12  H   LIG    1        1.923   7.860   3.624  0.00  0.00    +0.420 HD
ATOM     13  C   LIG    1        2.531   5.968   4.264  0.00  0.00    +0.290 A 
ATOM     14  N   LIG    1        2.164   5.228   5.269  0.00  0.00    -0.450 NA
ATOM     15  C   LIG    1        1.202   5.869   5.980  0.00  0.00    +0.050 A 
ATOM     16  C   LIG    1        0.472   5.542   7.126  0.00  0.00    +0.070 A 
ENDBRANCH   1  13
BRANCH   5  17
ATOM     17  C   LIG    1        2.877   3.584   2.074  0.00  0.00    +0.200 C 
BRANCH  17  18
ATOM     18  C   LIG    1        2.820   2.082   2.179  0.00  0.00    +0.520 C 
ATOM     19  N   LIG    1        2.265   1.358   1.186  0.00  0.00    -0.620 N 
ATOM     20  C   LIG    1        2.521  -0.085   1.078  0.00  0.00    +0.220 C 
ATOM     21  C   LIG    1        1.179  -0.821   1.018  0.00  0.00    +0.010 C 
ATOM     22  C   LIG    1        0.337  -0.245  -0.123  0.00  0.00    +0.010 C 
ATOM     23  C   LIG    1        0.063   1.238   0.141  0.00  0.00    +0.020 C 
ATOM     24  C   LIG    1        3.312  -0.558   2.299  0.00  0.00    +0.060 C 
ATOM     25  C   LIG    1        1.393   1.997   0.191  0.00  0.00    +0.220 C 
ATOM     26  C   LIG    1        1.137   3.452   0.592  0.00  0.00    +0.020 C 
ATOM     27  O   LIG    1        3.272   1.524   3.156  0.00  0.00    -0.500 OA
ENDBRANCH  17  18
ENDBRANCH   5  17
TORSDOF 3
