REMARK  Name = ZINCqH0000038ih1.1
REMARK                            x       y       z     vdW  Elec       q    Type
REMARK                         _______ _______ _______ _____ _____    ______ ____
ROOT
ATOM      1  C   LIG    1        0.164   4.410  -0.095  0.00  0.00    +0.220 C 
ATOM      2  C   LIG    1       -0.249   4.629   1.382  0.00  0.00    +0.040 C 
ATOM      3  C   LIG    1       -0.991   5.991   1.300  0.00  0.00    +0.000 C 
ATOM      4  C   LIG    1       -0.192   6.759   0.226  0.00  0.00    +0.220 C 
ATOM      5  N   LIG    1        0.510   5.757  -0.597  0.00  0.00    -0.500 NA
ENDROOT
BRANCH   1  12
ATOM      6  C   LIG    1        5.168  -1.083  -0.506  0.00  0.00    +0.100 C 
ATOM      7  C   LIG    1        4.544   0.286  -0.424  0.00  0.00    -0.070 A 
ATOM      8  C   LIG    1        5.355   1.412  -0.399  0.00  0.00    +0.000 A 
ATOM      9  C   LIG    1        4.809   2.662  -0.325  0.00  0.00    +0.070 A 
ATOM     10  C   LIG    1        3.422   2.814  -0.273  0.00  0.00    +0.040 A 
ATOM     11  N   LIG    1        2.600   3.892  -0.197  0.00  0.00    -0.450 NA
ATOM     12  C   LIG    1        1.360   3.497  -0.175  0.00  0.00    +0.290 A 
ATOM     13  N   LIG    1        1.301   2.139  -0.241  0.00  0.00    -0.600 N 
ATOM     14  H   LIG    1        0.496   1.599  -0.246  0.00  0.00    +0.420 HD
ATOM     15  C   LIG    1        2.600   1.674  -0.298  0.00  0.00    +0.050 A 
ATOM     16  C   LIG    1        3.172   0.412  -0.374  0.00  0.00    +0.000 A 
ENDBRANCH   1  12
BRANCH   5  17
ATOM     17  C   LIG    1        0.156   5.898  -2.015  0.00  0.00    +0.200 C 
BRANCH  17  18
ATOM     18  C   LIG    1        0.292   7.342  -2.426  0.00  0.00    +0.530 C 
ATOM     19  N   LIG    1        0.204   7.683  -3.727  0.00  0.00    -0.620 N 
ATOM     20  C   LIG    1       -0.479   6.805  -4.687  0.00  0.00    +0.220 C 
ATOM     21  C   LIG    1       -1.546   7.627  -5.426  0.00  0.00    +0.020 C 
ATOM     22  C   LIG    1       -0.888   8.856  -6.058  0.00  0.00    +0.010 C 
ATOM     23  C   LIG    1       -0.282   9.733  -4.959  0.00  0.00    +0.010 C 
ATOM     24  C   LIG    1       -1.147   5.649  -3.939  0.00  0.00    +0.040 C 
ATOM     25  C   LIG    1        0.794   8.938  -4.213  0.00  0.00    +0.220 C 
ATOM     26  C   LIG    1        1.307   9.757  -3.027  0.00  0.00    +0.060 C 
ATOM     27  O   LIG    1        0.480   8.196  -1.586  0.00  0.00    -0.510 OA
ENDBRANCH  17  18
ENDBRANCH   5  17
TORSDOF 3
