REMARK  Name = ZINCrH000004oYbD.0
REMARK                            x       y       z     vdW  Elec       q    Type
REMARK                         _______ _______ _______ _____ _____    ______ ____
ROOT
ATOM      1  C   LIG    1       -3.915   6.173  -2.154  0.00  0.00    +0.090 C 
ATOM      2  C   LIG    1       -4.152   4.867  -1.391  0.00  0.00    +0.060 C 
ATOM      3  C   LIG    1       -5.258   4.046  -2.087  0.00  0.00    +0.080 C 
ATOM      4  C   LIG    1       -4.454   3.045  -2.958  0.00  0.00    +0.080 C 
ATOM      5  C   LIG    1       -3.230   2.756  -2.053  0.00  0.00    +0.270 C 
ATOM      6  N   LIG    1       -2.926   4.049  -1.405  0.00  0.00    -0.380 N 
ATOM      7  H   LIG    1       -2.206   4.528  -1.924  0.00  0.00    +0.420 HD
ENDROOT
BRANCH   2   8
ATOM      8  C   LIG    1       -4.559   5.171   0.052  0.00  0.00    +0.090 C 
BRANCH   8   9
ATOM      9  C   LIG    1       -5.737   6.110   0.055  0.00  0.00    -0.040 A 
ATOM     10  C   LIG    1       -6.971   5.673  -0.389  0.00  0.00    +0.020 A 
ATOM     11  C   LIG    1       -8.052   6.535  -0.387  0.00  0.00    +0.060 A 
ATOM     12  C   LIG    1       -7.899   7.834   0.060  0.00  0.00    +0.030 A 
ATOM     13  C   LIG    1       -6.665   8.271   0.506  0.00  0.00    +0.070 A 
ATOM     14  C   LIG    1       -5.586   7.408   0.507  0.00  0.00    -0.170 A 
BRANCH  14  15
ATOM     15  C   LIG    1       -4.242   7.883   0.997  0.00  0.00    +0.500 C 
ATOM     16  F   LIG    1       -3.324   7.854  -0.058  0.00  0.00    -0.180 F 
ATOM     17  F   LIG    1       -3.798   7.045   2.026  0.00  0.00    -0.170 F 
ATOM     18  F   LIG    1       -4.358   9.191   1.479  0.00  0.00    -0.170 F 
ENDBRANCH  14  15
ENDBRANCH   8   9
ENDBRANCH   2   8
BRANCH   6  19
ATOM     19  C   LIG    1       -2.471   3.816  -0.027  0.00  0.00    +0.340 C 
BRANCH  19  20
ATOM     20  C   LIG    1       -1.147   3.097  -0.050  0.00  0.00    -0.030 A 
ATOM     21  C   LIG    1        0.035   3.821   0.033  0.00  0.00    +0.240 A 
ATOM     22  N   LIG    1        1.195   3.197   0.014  0.00  0.00    -0.390 NA
ATOM     23  CA  LIG    1        1.234   1.871  -0.085  0.00  0.00    +0.080 A 
ATOM     24  C   LIG    1        0.044   1.146  -0.169  0.00  0.00    +0.270 A 
ATOM     25  N   LIG    1       -1.114   1.780  -0.155  0.00  0.00    -0.430 NA
BRANCH  23  26
ATOM     26  C   LIG    1        2.535   1.166  -0.107  0.00  0.00    +0.530 C 
ATOM     27  OXT LIG    1        3.576   1.802  -0.034  0.00  0.00    -0.640 OA
ATOM     28  O   LIG    1        2.568  -0.052  -0.199  0.00  0.00    -0.660 OA
ENDBRANCH  23  26
ENDBRANCH  19  20
ENDBRANCH   6  19
TORSDOF 6
