REMARK  Name = ZINCrH000004oYbD.1
REMARK                            x       y       z     vdW  Elec       q    Type
REMARK                         _______ _______ _______ _____ _____    ______ ____
ROOT
ATOM      1  C   LIG    1       -4.594   5.278  -0.271  0.00  0.00    +0.100 C 
ATOM      2  C   LIG    1       -4.436   4.633  -1.649  0.00  0.00    +0.060 C 
ATOM      3  C   LIG    1       -4.578   5.705  -2.750  0.00  0.00    +0.080 C 
ATOM      4  C   LIG    1       -3.517   5.274  -3.797  0.00  0.00    +0.080 C 
ATOM      5  C   LIG    1       -2.386   4.729  -2.890  0.00  0.00    +0.250 C 
ATOM      6  N   LIG    1       -3.087   4.050  -1.779  0.00  0.00    -0.380 N 
ATOM      7  H   LIG    1       -3.161   3.064  -1.978  0.00  0.00    +0.430 HD
ENDROOT
BRANCH   2   8
ATOM      8  C   LIG    1       -5.493   3.543  -1.838  0.00  0.00    +0.100 C 
BRANCH   8   9
ATOM      9  C   LIG    1       -6.865   4.168  -1.832  0.00  0.00    -0.040 A 
ATOM     10  C   LIG    1       -7.375   4.704  -0.664  0.00  0.00    +0.020 A 
ATOM     11  C   LIG    1       -8.633   5.277  -0.658  0.00  0.00    +0.060 A 
ATOM     12  C   LIG    1       -9.380   5.315  -1.820  0.00  0.00    +0.030 A 
ATOM     13  C   LIG    1       -8.870   4.781  -2.988  0.00  0.00    +0.080 A 
ATOM     14  C   LIG    1       -7.611   4.211  -2.995  0.00  0.00    -0.180 A 
BRANCH  14  15
ATOM     15  C   LIG    1       -7.052   3.633  -4.270  0.00  0.00    +0.500 C 
ATOM     16  F   LIG    1       -6.685   2.300  -4.056  0.00  0.00    -0.170 F 
ATOM     17  F   LIG    1       -5.929   4.368  -4.663  0.00  0.00    -0.170 F 
ATOM     18  F   LIG    1       -8.024   3.693  -5.274  0.00  0.00    -0.170 F 
ENDBRANCH  14  15
ENDBRANCH   8   9
ENDBRANCH   2   8
BRANCH   6  19
ATOM     19  C   LIG    1       -2.341   4.248  -0.529  0.00  0.00    +0.350 C 
BRANCH  19  20
ATOM     20  C   LIG    1       -1.011   3.546  -0.621  0.00  0.00    -0.030 A 
ATOM     21  C   LIG    1        0.117   4.251  -1.019  0.00  0.00    +0.230 A 
ATOM     22  N   LIG    1        1.282   3.641  -1.102  0.00  0.00    -0.390 NA
ATOM     23  CA  LIG    1        1.378   2.348  -0.804  0.00  0.00    +0.080 A 
ATOM     24  C   LIG    1        0.242   1.643  -0.404  0.00  0.00    +0.270 A 
ATOM     25  N   LIG    1       -0.923   2.261  -0.329  0.00  0.00    -0.430 NA
BRANCH  23  26
ATOM     26  C   LIG    1        2.684   1.660  -0.896  0.00  0.00    +0.530 C 
ATOM     27  OXT LIG    1        3.678   2.279  -1.246  0.00  0.00    -0.640 OA
ATOM     28  O   LIG    1        2.769   0.471  -0.622  0.00  0.00    -0.660 OA
ENDBRANCH  23  26
ENDBRANCH  19  20
ENDBRANCH   6  19
TORSDOF 6
