REMARK  Name = ZINCvU00000004cZ.0
REMARK                            x       y       z     vdW  Elec       q    Type
REMARK                         _______ _______ _______ _____ _____    ______ ____
ROOT
ATOM      1  C   LIG    1       -0.306   3.153   1.705  0.00  0.00    +0.470 C 
ATOM      2  O   LIG    1        0.576   3.776   1.163  0.00  0.00    -0.480 OA
ENDROOT
BRANCH   1   3
ATOM      3  O   LIG    1       -0.698   1.971   1.205  0.00  0.00    -0.340 OA
BRANCH   3   5
ATOM      4  C   LIG    1       -0.758   2.010  -1.229  0.00  0.00    +0.090 C 
ATOM      5  C   LIG    1       -0.018   1.503   0.010  0.00  0.00    +0.330 C 
BRANCH   5   6
ATOM      6  C   LIG    1        0.002  -0.004   0.002  0.00  0.00    +0.190 A 
ATOM      7  N   LIG    1        1.028  -0.767  -0.285  0.00  0.00    -0.450 NA
ATOM      8  C   LIG    1        0.581  -2.037  -0.162  0.00  0.00    +0.210 A 
ATOM      9  N   LIG    1       -0.677  -1.972   0.188  0.00  0.00    -0.360 NA
ATOM     10  O   LIG    1       -1.022  -0.814   0.291  0.00  0.00    +0.110 OA
BRANCH   8  11
ATOM     11  C   LIG    1        1.371  -3.274  -0.384  0.00  0.00    +0.000 A 
ATOM     12  C   LIG    1        0.775  -4.522  -0.220  0.00  0.00    +0.050 A 
ATOM     13  C   LIG    1        1.513  -5.670  -0.427  0.00  0.00    +0.050 A 
ATOM     14  C   LIG    1        2.843  -5.584  -0.798  0.00  0.00    +0.010 A 
ATOM     15  C   LIG    1        3.441  -4.345  -0.963  0.00  0.00    +0.100 A 
ATOM     16  F   LIG    1        4.740  -4.266  -1.326  0.00  0.00    -0.130 F 
ATOM     17  C   LIG    1        2.709  -3.190  -0.762  0.00  0.00    +0.040 A 
ENDBRANCH   8  11
ENDBRANCH   5   6
ENDBRANCH   3   5
ENDBRANCH   1   3
BRANCH   1  18
ATOM     18  C   LIG    1       -0.966   3.704   2.943  0.00  0.00    +0.250 C 
BRANCH  18  19
ATOM     19  C   LIG    1       -0.348   5.033   3.293  0.00  0.00    +0.020 A 
ATOM     20  C   LIG    1       -0.774   6.224   2.843  0.00  0.00    +0.000 A 
ATOM     21  C   LIG    1        0.112   7.223   3.438  0.00  0.00    -0.130 A 
ATOM     22  C   LIG    1        1.028   6.508   4.214  0.00  0.00    +0.060 A 
ATOM     23  C   LIG    1        2.026   7.192   4.918  0.00  0.00    +0.040 A 
ATOM     24  C   LIG    1        2.131   8.543   4.873  0.00  0.00    +0.060 A 
ATOM     25  C   LIG    1        1.237   9.318   4.109  0.00  0.00    -0.070 A 
ATOM     26  C   LIG    1        1.344  10.717   4.058  0.00  0.00    +0.030 A 
ATOM     27  C   LIG    1        0.461  11.434   3.309  0.00  0.00    +0.010 A 
ATOM     28  C   LIG    1       -0.548  10.801   2.590  0.00  0.00    +0.020 A 
ATOM     29  C   LIG    1       -0.680   9.444   2.617  0.00  0.00    +0.020 A 
ATOM     30  C   LIG    1        0.209   8.676   3.376  0.00  0.00    -0.000 A 
ATOM     31  O   LIG    1        0.715   5.201   4.097  0.00  0.00    -0.170 OA
ENDBRANCH  18  19
ENDBRANCH   1  18
TORSDOF 6
