REMARK  Name = ZINCtV00000vp52w.0
REMARK                            x       y       z     vdW  Elec       q    Type
REMARK                         _______ _______ _______ _____ _____    ______ ____
ROOT
ATOM      1  N   LIG    1       -7.866  -0.653   0.181  0.00  0.00    -0.620 N 
ATOM      2  H   LIG    1       -7.945  -1.418   0.773  0.00  0.00    +0.410 HD
ENDROOT
BRANCH   1   8
ATOM      3  N   LIG    1      -11.895   3.159   0.276  0.00  0.00    -0.500 N 
ATOM      4  C   LIG    1      -13.025   2.360   0.284  0.00  0.00    +0.140 A 
ATOM      5  C   LIG    1      -12.618   1.018   0.265  0.00  0.00    -0.100 A 
ATOM      6  C   LIG    1      -11.144   1.027   0.244  0.00  0.00    -0.100 A 
ATOM      7  C   LIG    1      -10.181   0.020   0.221  0.00  0.00    +0.070 A 
ATOM      8  C   LIG    1       -8.838   0.355   0.205  0.00  0.00    +0.080 A 
ATOM      9  C   LIG    1       -8.452   1.693   0.219  0.00  0.00    +0.120 A 
ATOM     10  C   LIG    1       -9.399   2.693   0.236  0.00  0.00    -0.010 A 
ATOM     11  C   LIG    1      -13.571   0.001   0.269  0.00  0.00    +0.060 A 
ATOM     12  C   LIG    1      -14.911   0.319   0.291  0.00  0.00    -0.020 A 
ATOM     13  C   LIG    1      -15.315   1.646   0.310  0.00  0.00    +0.050 A 
ATOM     14  C   LIG    1      -14.383   2.661   0.306  0.00  0.00    -0.020 A 
ATOM     15  C   LIG    1      -10.753   2.373   0.252  0.00  0.00    +0.160 A 
BRANCH   3  17
ATOM     16  C   LIG    1      -11.887   5.120   1.737  0.00  0.00    +0.030 C 
ATOM     17  C   LIG    1      -11.904   4.623   0.290  0.00  0.00    +0.290 C 
ENDBRANCH   3  17
ENDBRANCH   1   8
BRANCH   1  18
ATOM     18  C   LIG    1       -6.820  -0.561  -0.663  0.00  0.00    +0.550 C 
ATOM     19  S   LIG    1       -6.620   0.839  -1.629  0.00  0.00    -0.590 S 
BRANCH  18  20
ATOM     20  N   LIG    1       -5.931  -1.570  -0.748  0.00  0.00    -0.630 N 
ATOM     21  H   LIG    1       -6.076  -2.388  -0.247  0.00  0.00    +0.410 HD
BRANCH  20  22
ATOM     22  C   LIG    1       -4.796  -1.438  -1.559  0.00  0.00    +0.120 A 
ATOM     23  C   LIG    1       -3.550  -1.820  -1.078  0.00  0.00    +0.030 A 
ATOM     24  C   LIG    1       -2.432  -1.690  -1.877  0.00  0.00    +0.050 A 
ATOM     25  C   LIG    1       -2.553  -1.177  -3.163  0.00  0.00    -0.080 A 
ATOM     26  C   LIG    1       -3.798  -0.790  -3.642  0.00  0.00    +0.010 A 
ATOM     27  C   LIG    1       -4.917  -0.925  -2.844  0.00  0.00    +0.110 A 
BRANCH  25  28
ATOM     28  S   LIG    1       -1.125  -1.010  -4.182  0.00  0.00    -0.090 S 
BRANCH  28  29
ATOM     29  C   LIG    1       -1.799  -0.315  -5.716  0.00  0.00    +0.430 C 
ATOM     30  F   LIG    1       -2.411   0.913  -5.443  0.00  0.00    -0.180 F 
ATOM     31  F   LIG    1       -2.743  -1.197  -6.253  0.00  0.00    -0.180 F 
ENDBRANCH  28  29
ENDBRANCH  25  28
ENDBRANCH  20  22
ENDBRANCH  18  20
ENDBRANCH   1  18
TORSDOF 7
