REMARK  Name = ZINCpe000000YU1I.0
REMARK                            x       y       z     vdW  Elec       q    Type
REMARK                         _______ _______ _______ _____ _____    ______ ____
ROOT
ATOM      1  O   LIG    1       -1.714   2.256   1.150  0.00  0.00    -0.520 OA
ATOM      2  C   LIG    1       -0.718   1.572   1.248  0.00  0.00    +0.520 C 
ATOM      3  N   LIG    1       -0.242   1.246   2.466  0.00  0.00    -0.620 N 
ATOM      4  C   LIG    1        0.962   0.412   2.607  0.00  0.00    +0.280 C 
ATOM      5  C   LIG    1        1.934   1.127   3.559  0.00  0.00    +0.170 C 
ATOM      6  N   LIG    1        1.241   1.435   4.818  0.00  0.00    -0.520 NA
ATOM      7  C   LIG    1        0.128   2.368   4.598  0.00  0.00    +0.170 C 
ATOM      8  C   LIG    1       -0.915   1.710   3.689  0.00  0.00    +0.300 C 
ENDROOT
BRANCH   6   9
ATOM      9  C   LIG    1        2.178   1.959   5.820  0.00  0.00    +0.160 C 
BRANCH   9  10
ATOM     10  C   LIG    1        3.439   1.093   5.842  0.00  0.00    +0.260 C 
BRANCH  10  11
ATOM     11  C   LIG    1        4.401   1.631   6.870  0.00  0.00    -0.110 A 
ATOM     12  C   LIG    1        4.410   1.106   8.148  0.00  0.00    +0.030 A 
ATOM     13  C   LIG    1        5.296   1.596   9.090  0.00  0.00    +0.020 A 
ATOM     14  C   LIG    1        6.164   2.619   8.757  0.00  0.00    +0.020 A 
ATOM     15  C   LIG    1        6.152   3.148   7.480  0.00  0.00    +0.030 A 
ATOM     16  C   LIG    1        5.270   2.654   6.536  0.00  0.00    -0.030 A 
ATOM     17 CL   LIG    1        5.253   3.319   4.932  0.00  0.00    -0.070 Cl
ENDBRANCH  10  11
BRANCH  10  18
ATOM     18  O   LIG    1        3.088  -0.251   6.176  0.00  0.00    -0.540 OA
ATOM     19  H   LIG    1        2.663  -0.344   7.039  0.00  0.00    +0.380 HD
ENDBRANCH  10  18
ENDBRANCH   9  10
ENDBRANCH   6   9
BRANCH   2  20
ATOM     20  C   LIG    1       -0.013   1.086   0.008  0.00  0.00    +0.210 C 
BRANCH  20  21
ATOM     21  N   LIG    1       -0.723   1.572  -1.182  0.00  0.00    -0.520 NA
ATOM     22  C   LIG    1       -2.057   0.963  -1.285  0.00  0.00    +0.150 C 
ATOM     23  C   LIG    1       -2.784   1.541  -2.502  0.00  0.00    +0.230 C 
ATOM     24  O   LIG    1       -1.994   1.317  -3.674  0.00  0.00    -0.390 OA
ATOM     25  C   LIG    1       -0.689   1.897  -3.608  0.00  0.00    +0.220 C 
ATOM     26  C   LIG    1        0.059   1.323  -2.401  0.00  0.00    +0.160 C 
ENDBRANCH  20  21
ENDBRANCH   2  20
TORSDOF 6
