REMARK  Name = ZINCqH0000007zUC.0
REMARK                            x       y       z     vdW  Elec       q    Type
REMARK                         _______ _______ _______ _____ _____    ______ ____
ROOT
ATOM      1  C   LIG    1        4.914   1.165  -0.039  0.00  0.00    +0.280 C 
ENDROOT
BRANCH   1   7
ATOM      2  C   LIG    1       -1.236   3.140   0.031  0.00  0.00    +0.140 A 
ATOM      3  C   LIG    1       -0.084   3.873   0.023  0.00  0.00    -0.020 A 
ATOM      4  C   LIG    1        1.157   3.215   0.008  0.00  0.00    -0.000 A 
ATOM      5  C   LIG    1        2.364   3.936   0.000  0.00  0.00    +0.020 A 
ATOM      6  C   LIG    1        3.548   3.265  -0.015  0.00  0.00    +0.050 A 
ATOM      7  C   LIG    1        3.584   1.873  -0.023  0.00  0.00    -0.110 A 
ATOM      8  C   LIG    1        2.436   1.142  -0.015  0.00  0.00    +0.070 A 
ATOM      9  C   LIG    1        1.194   1.798   0.000  0.00  0.00    -0.090 A 
ATOM     10  C   LIG    1       -0.013   1.076   0.008  0.00  0.00    +0.070 A 
ATOM     11  C   LIG    1       -1.198   1.742   0.017  0.00  0.00    -0.060 A 
BRANCH   2  13
ATOM     12  C   LIG    1       -3.607   2.958   0.053  0.00  0.00    +0.240 C 
ATOM     13  O   LIG    1       -2.436   3.778   0.045  0.00  0.00    -0.320 OA
ENDBRANCH   2  13
ENDBRANCH   1   7
BRANCH   1  14
ATOM     14  O   LIG    1        5.329   0.944  -1.413  0.00  0.00    -0.340 OA
BRANCH  14  15
ATOM     15  C   LIG    1        6.501   0.319  -1.603  0.00  0.00    +0.470 C 
ATOM     16  O   LIG    1        7.160  -0.031  -0.652  0.00  0.00    -0.470 OA
BRANCH  15  17
ATOM     17  C   LIG    1        6.997   0.055  -3.001  0.00  0.00    +0.190 C 
ATOM     18  C   LIG    1        7.310   1.386  -3.699  0.00  0.00    +0.270 C 
ATOM     19  O   LIG    1        7.790   1.099  -5.017  0.00  0.00    -0.300 OA
ATOM     20  C   LIG    1        8.728   0.119  -5.127  0.00  0.00    +0.050 A 
ATOM     21  C   LIG    1        9.486   0.029  -6.285  0.00  0.00    +0.030 A 
ATOM     22  C   LIG    1       10.439  -0.964  -6.413  0.00  0.00    +0.030 A 
ATOM     23  C   LIG    1       10.638  -1.871  -5.389  0.00  0.00    +0.030 A 
ATOM     24  C   LIG    1        9.886  -1.786  -4.232  0.00  0.00    +0.030 A 
ATOM     25  C   LIG    1        8.930  -0.791  -4.096  0.00  0.00    +0.050 A 
ATOM     26  O   LIG    1        8.200  -0.719  -2.950  0.00  0.00    -0.280 OA
ENDBRANCH  15  17
ENDBRANCH  14  15
ENDBRANCH   1  14
TORSDOF 5
