REMARK  Name = ZINCAx00000008Ac.0
REMARK                            x       y       z     vdW  Elec       q    Type
REMARK                         _______ _______ _______ _____ _____    ______ ____
ROOT
ATOM      1  O   LIG    1        2.801  -2.199  -0.158  0.00  0.00    -0.520 OA
ATOM      2  C   LIG    1        1.631  -1.901  -0.024  0.00  0.00    +0.600 C 
ATOM      3  N   LIG    1        0.697  -2.867   0.081  0.00  0.00    -0.600 N 
ATOM      4  C   LIG    1       -0.735  -2.534   0.106  0.00  0.00    +0.300 C 
ATOM      5  C   LIG    1       -1.449  -3.397  -0.946  0.00  0.00    +0.170 C 
ATOM      6  N   LIG    1       -1.137  -4.812  -0.704  0.00  0.00    -0.530 NA
ATOM      7  C   LIG    1        0.299  -5.077  -0.868  0.00  0.00    +0.180 C 
ATOM      8  C   LIG    1        1.084  -4.283   0.181  0.00  0.00    +0.300 C 
ENDROOT
BRANCH   2   9
ATOM      9  C   LIG    1        1.230  -0.473   0.024  0.00  0.00    -0.020 A 
ATOM     10  N   LIG    1        0.035  -0.001   0.286  0.00  0.00    -0.320 NA
ATOM     11  O   LIG    1        0.014   1.207   0.253  0.00  0.00    +0.130 OA
ATOM     12  C   LIG    1        1.221   1.719  -0.045  0.00  0.00    +0.010 A 
ATOM     13  C   LIG    1        2.062   0.652  -0.206  0.00  0.00    +0.050 A 
BRANCH  12  14
ATOM     14  C   LIG    1        1.570   3.149  -0.172  0.00  0.00    -0.030 A 
ATOM     15  C   LIG    1        0.792   3.992  -0.968  0.00  0.00    +0.050 A 
ATOM     16  C   LIG    1        1.124   5.329  -1.082  0.00  0.00    +0.100 A 
ATOM     17  C   LIG    1        2.225   5.832  -0.409  0.00  0.00    +0.050 A 
ATOM     18  C   LIG    1        3.000   5.003   0.381  0.00  0.00    +0.040 A 
ATOM     19  F   LIG    1        0.372   6.146  -1.852  0.00  0.00    -0.130 F 
ATOM     20  C   LIG    1        2.676   3.665   0.508  0.00  0.00    +0.120 A 
ATOM     21  F   LIG    1        3.431   2.857   1.284  0.00  0.00    -0.120 F 
ENDBRANCH  12  14
ENDBRANCH   2   9
BRANCH   6  22
ATOM     22  C   LIG    1       -1.936  -5.684  -1.576  0.00  0.00    +0.300 C 
BRANCH  22  23
ATOM     23  C   LIG    1       -3.371  -5.224  -1.567  0.00  0.00    -0.010 A 
ATOM     24  C   LIG    1       -3.961  -4.396  -2.461  0.00  0.00    +0.140 A 
ATOM     25  N   LIG    1       -5.253  -4.265  -2.056  0.00  0.00    -0.240 N 
ATOM     26  N   LIG    1       -5.413  -4.972  -0.993  0.00  0.00    -0.070 NA
ATOM     27  N   LIG    1       -4.313  -5.559  -0.679  0.00  0.00    -0.240 NA
BRANCH  25  28
ATOM     28  C   LIG    1       -6.240  -3.495  -2.689  0.00  0.00    +0.110 A 
ATOM     29  C   LIG    1       -5.931  -2.772  -3.833  0.00  0.00    +0.060 A 
ATOM     30  C   LIG    1       -6.905  -2.018  -4.458  0.00  0.00    +0.020 A 
ATOM     31  C   LIG    1       -8.187  -1.974  -3.937  0.00  0.00    +0.110 A 
ATOM     32  C   LIG    1       -8.497  -2.690  -2.792  0.00  0.00    -0.110 A 
ATOM     33  F   LIG    1       -9.137  -1.231  -4.546  0.00  0.00    -0.130 F 
ATOM     34  C   LIG    1       -7.527  -3.449  -2.169  0.00  0.00    +0.110 A 
BRANCH  32  35
ATOM     35  C   LIG    1       -9.893  -2.641  -2.228  0.00  0.00    +0.260 C 
BRANCH  35  36
ATOM     36  O   LIG    1       -9.962  -3.455  -1.056  0.00  0.00    -0.570 OA
ATOM     37  H   LIG    1      -10.834  -3.471  -0.638  0.00  0.00    +0.390 HD
ENDBRANCH  35  36
ENDBRANCH  32  35
ENDBRANCH  25  28
ENDBRANCH  22  23
ENDBRANCH   6  22
TORSDOF 7
