REMARK  Name = ZINCnE000005tdmZ.1
REMARK                            x       y       z     vdW  Elec       q    Type
REMARK                         _______ _______ _______ _____ _____    ______ ____
ROOT
ATOM      1  C   LIG    1        3.964   4.318   2.400  0.00  0.00    +0.170 A 
ATOM      2  C   LIG    1        5.284   4.566   2.576  0.00  0.00    -0.080 A 
ATOM      3  N   LIG    1        5.676   5.786   2.240  0.00  0.00    -0.420 NA
ATOM      4  C   LIG    1        4.775   6.596   1.799  0.00  0.00    +0.100 A 
ATOM      5  S   LIG    1        3.213   5.783   1.770  0.00  0.00    +0.010 S 
ENDROOT
BRANCH   2   6
ATOM      6  C   LIG    1        6.221   3.547   3.103  0.00  0.00    +0.040 A 
ATOM      7  C   LIG    1        5.795   2.638   4.071  0.00  0.00    +0.070 A 
ATOM      8  C   LIG    1        6.671   1.688   4.555  0.00  0.00    -0.030 A 
ATOM      9  C   LIG    1        7.974   1.641   4.088  0.00  0.00    +0.060 A 
ATOM     10  C   LIG    1        8.404   2.545   3.129  0.00  0.00    -0.040 A 
ATOM     11  F   LIG    1        8.829   0.712   4.568  0.00  0.00    -0.150 F 
ATOM     12  C   LIG    1        7.534   3.496   2.635  0.00  0.00    +0.040 A 
ENDBRANCH   2   6
BRANCH   1  14
ATOM     13  C   LIG    1        1.987   3.004   2.459  0.00  0.00    +0.430 C 
ATOM     14  N   LIG    1        3.312   3.117   2.675  0.00  0.00    -0.660 NA
ATOM     15  O   LIG    1        1.361   3.948   2.025  0.00  0.00    -0.580 OA
BRANCH  13  16
ATOM     16  C   LIG    1        1.283   1.705   2.756  0.00  0.00    +0.360 C 
BRANCH  16  23
ATOM     17  C   LIG    1       -0.013   1.086   0.008  0.00  0.00    +0.140 C 
ATOM     18  C   LIG    1       -0.718   1.572   1.248  0.00  0.00    +0.100 A 
ATOM     19  C   LIG    1       -2.042   1.825   1.365  0.00  0.00    -0.140 A 
ATOM     20  C   LIG    1       -2.284   2.253   2.675  0.00  0.00    +0.060 A 
ATOM     21  N   LIG    1       -1.145   2.264   3.318  0.00  0.00    -0.290 NA
ATOM     22  C   LIG    1       -3.625   2.639   3.244  0.00  0.00    +0.140 C 
ATOM     23  N   LIG    1       -0.141   1.838   2.438  0.00  0.00    -0.340 N 
ENDBRANCH  16  23
ENDBRANCH  13  16
ENDBRANCH   1  14
TORSDOF 4
