REMARK  Name = ZINCpe00000bFAB6.0
REMARK                            x       y       z     vdW  Elec       q    Type
REMARK                         _______ _______ _______ _____ _____    ______ ____
ROOT
ATOM      1  C   LIG    1       -0.228  -2.122   0.022  0.00  0.00    +0.140 C 
ATOM      2  C   LIG    1       -1.678  -2.125   0.519  0.00  0.00    +0.290 C 
ATOM      3  N   LIG    1       -2.297  -3.404   0.136  0.00  0.00    -0.610 N 
ATOM      4  C   LIG    1       -2.179  -3.836  -1.266  0.00  0.00    +0.250 C 
ATOM      5  C   LIG    1       -0.704  -3.749  -1.676  0.00  0.00    +0.220 C 
ATOM      6  C   LIG    1       -2.953  -4.156   1.041  0.00  0.00    +0.510 C 
ATOM      7  O   LIG    1       -2.960  -3.831   2.209  0.00  0.00    -0.510 OA
ATOM      8  O   LIG    1       -0.207  -2.444  -1.370  0.00  0.00    -0.370 OA
ENDROOT
BRANCH   6   9
ATOM      9  C   LIG    1       -3.679  -5.402   0.601  0.00  0.00    +0.240 C 
ATOM     10  C   LIG    1       -2.746  -6.608   0.730  0.00  0.00    +0.080 C 
BRANCH   9  11
ATOM     11  N   LIG    1       -4.858  -5.604   1.446  0.00  0.00    -0.440 N 
ATOM     12  C   LIG    1       -4.846  -5.782   2.798  0.00  0.00    +0.180 A 
ATOM     13  C   LIG    1       -6.120  -5.931   3.215  0.00  0.00    -0.070 A 
ATOM     14  C   LIG    1       -6.948  -5.851   2.078  0.00  0.00    -0.050 A 
ATOM     15  C   LIG    1       -6.149  -5.650   1.010  0.00  0.00    +0.130 A 
ENDBRANCH   9  11
ENDBRANCH   6   9
BRANCH   1  16
ATOM     16  C   LIG    1        0.382  -0.735   0.235  0.00  0.00    +0.300 C 
BRANCH  16  18
ATOM     17  C   LIG    1        2.504   0.394  -0.165  0.00  0.00    +0.560 C 
ATOM     18  N   LIG    1        1.766  -0.731  -0.246  0.00  0.00    -0.720 N 
ATOM     19  H   LIG    1        2.149  -1.536  -0.627  0.00  0.00    +0.400 HD
ATOM     20  O   LIG    1        2.000   1.423   0.232  0.00  0.00    -0.530 OA
BRANCH  17  21
ATOM     21  C   LIG    1        3.956   0.373  -0.569  0.00  0.00    -0.170 C 
ATOM     22  C   LIG    1        4.603   1.706  -0.949  0.00  0.00    +0.080 C 
ATOM     23  C   LIG    1        4.287   0.672  -2.033  0.00  0.00    +0.070 C 
BRANCH  21  24
ATOM     24  C   LIG    1        4.828  -0.653   0.157  0.00  0.00    +0.220 C 
BRANCH  24  26
ATOM     25  C   LIG    1        5.503  -1.367   2.344  0.00  0.00    +0.200 C 
ATOM     26  O   LIG    1        4.723  -0.455   1.568  0.00  0.00    -0.380 OA
ENDBRANCH  24  26
ENDBRANCH  21  24
ENDBRANCH  17  21
ENDBRANCH  16  18
ENDBRANCH   1  16
TORSDOF 7
