REMARK  Name = ZINCkj000005iJwO.0
REMARK                            x       y       z     vdW  Elec       q    Type
REMARK                         _______ _______ _______ _____ _____    ______ ____
ROOT
ATOM      1  N   LIG    1        4.348   0.298  -1.563  0.00  0.00    -0.700 N 
ATOM      2  H   LIG    1        3.983  -0.058  -2.388  0.00  0.00    +0.410 HD
ATOM      3  C   LIG    1        3.531   0.873  -0.658  0.00  0.00    +0.510 C 
ATOM      4  O   LIG    1        3.987   1.318   0.374  0.00  0.00    -0.520 OA
ENDROOT
BRANCH   3   5
ATOM      5  C   LIG    1        2.051   0.963  -0.928  0.00  0.00    +0.180 C 
ATOM      6  C   LIG    1        1.364  -0.383  -0.615  0.00  0.00    +0.130 C 
ATOM      7  C   LIG    1        0.002  -0.004   0.002  0.00  0.00    +0.190 C 
ATOM      8  C   LIG    1       -0.019   1.540   0.011  0.00  0.00    +0.260 C 
ATOM      9  N   LIG    1        1.413   1.933  -0.001  0.00  0.00    -0.500 N 
ATOM     10  H   LIG    1        1.810   1.851   0.923  0.00  0.00    +0.440 HD
ATOM     11  H   LIG    1        1.518   2.875  -0.349  0.00  0.00    +0.440 HD
BRANCH   7  12
ATOM     12  O   LIG    1       -1.067  -0.510  -0.800  0.00  0.00    -0.540 OA
ATOM     13  H   LIG    1       -1.947  -0.265  -0.483  0.00  0.00    +0.400 HD
ENDBRANCH   7  12
ENDBRANCH   3   5
BRANCH   1  14
ATOM     14  C   LIG    1        5.786   0.210  -1.300  0.00  0.00    +0.300 C 
ATOM     15  C   LIG    1        6.077  -1.037  -0.463  0.00  0.00    +0.060 C 
BRANCH  14  19
ATOM     16  C   LIG    1        7.899  -0.038  -5.007  0.00  0.00    +0.170 A 
ATOM     17  C   LIG    1        8.404   0.733  -3.970  0.00  0.00    -0.060 A 
ATOM     18  C   LIG    1        7.718   0.811  -2.773  0.00  0.00    +0.100 A 
ATOM     19  C   LIG    1        6.531   0.123  -2.607  0.00  0.00    -0.140 A 
ATOM     20  C   LIG    1        6.028  -0.651  -3.638  0.00  0.00    +0.080 A 
ATOM     21  C   LIG    1        6.707  -0.728  -4.839  0.00  0.00    -0.130 A 
ATOM     22 BR   LIG    1        6.016  -1.780  -6.250  0.00  0.00    -0.020 Br
BRANCH  16  24
ATOM     23  C   LIG    1        9.792   0.620  -6.287  0.00  0.00    +0.250 C 
ATOM     24  O   LIG    1        8.572  -0.117  -6.186  0.00  0.00    -0.300 OA
ENDBRANCH  16  24
ENDBRANCH  14  19
ENDBRANCH   1  14
TORSDOF 5
