REMARK  Name = ZINCkj00000dDf0X.0
REMARK                            x       y       z     vdW  Elec       q    Type
REMARK                         _______ _______ _______ _____ _____    ______ ____
ROOT
ATOM      1  N   LIG    1       -3.319   6.235   3.000  0.00  0.00    -0.310 N 
ATOM      2  N   LIG    1       -3.672   4.912   3.286  0.00  0.00    -0.240 NA
ATOM      3  C   LIG    1       -3.292   4.150   2.298  0.00  0.00    +0.270 A 
ATOM      4  C   LIG    1       -2.671   4.969   1.328  0.00  0.00    -0.240 A 
ATOM      5  C   LIG    1       -2.703   6.263   1.807  0.00  0.00    +0.050 A 
ENDROOT
BRANCH   4   6
ATOM      6  C   LIG    1       -2.091   4.523   0.048  0.00  0.00    +0.600 C 
ATOM      7  N   LIG    1       -1.174   3.537   0.030  0.00  0.00    -0.630 N 
ATOM      8  C   LIG    1       -0.642   2.976   1.282  0.00  0.00    +0.310 C 
ATOM      9  C   LIG    1       -0.755   1.449   1.216  0.00  0.00    +0.270 C 
ATOM     10  N   LIG    1       -0.085   0.963   0.003  0.00  0.00    -0.500 N 
ATOM     11  C   LIG    1       -0.785   1.461  -1.188  0.00  0.00    +0.150 C 
ATOM     12  C   LIG    1       -0.149   0.860  -2.443  0.00  0.00    +0.110 C 
ATOM     13  H   LIG    1        0.870   1.291  -0.008  0.00  0.00    +0.430 HD
ATOM     14  H   LIG    1       -0.092  -0.046  -0.002  0.00  0.00    +0.430 HD
ATOM     15  C   LIG    1       -0.676   2.989  -1.241  0.00  0.00    +0.330 C 
ATOM     16  O   LIG    1       -2.441   5.047  -0.993  0.00  0.00    -0.490 OA
ENDBRANCH   4   6
BRANCH   5  17
ATOM     17  C   LIG    1       -2.152   7.484   1.116  0.00  0.00    +0.540 C 
ATOM     18  F   LIG    1       -3.145   8.052   0.310  0.00  0.00    -0.150 F 
ATOM     19  F   LIG    1       -1.060   7.117   0.322  0.00  0.00    -0.160 F 
ATOM     20  F   LIG    1       -1.740   8.416   2.075  0.00  0.00    -0.160 F 
ENDBRANCH   5  17
BRANCH   1  22
ATOM     21  C   LIG    1       -2.385   7.595   4.805  0.00  0.00    +0.060 C 
ATOM     22  C   LIG    1       -3.571   7.394   3.860  0.00  0.00    +0.340 C 
ENDBRANCH   1  22
TORSDOF 3
