REMARK  Name = ZINCrD000000AcR2.0
REMARK                            x       y       z     vdW  Elec       q    Type
REMARK                         _______ _______ _______ _____ _____    ______ ____
ROOT
ATOM      1  O   LIG    1       -0.595   1.419   1.927  0.00  0.00    -0.520 OA
ATOM      2  C   LIG    1       -0.308   2.345   1.198  0.00  0.00    +0.510 C 
ATOM      3  N   LIG    1       -0.737   3.589   1.488  0.00  0.00    -0.730 N 
ATOM      4  H   LIG    1       -0.447   4.340   0.948  0.00  0.00    +0.400 HD
ENDROOT
BRANCH   3   5
ATOM      5  C   LIG    1       -1.643   3.806   2.619  0.00  0.00    +0.220 C 
ATOM      6  C   LIG    1       -2.915   2.977   2.423  0.00  0.00    +0.010 C 
ATOM      7  C   LIG    1       -3.640   3.462   1.163  0.00  0.00    +0.210 C 
ATOM      8  O   LIG    1       -3.933   4.855   1.288  0.00  0.00    -0.380 OA
ATOM      9  C   LIG    1       -2.777   5.683   1.427  0.00  0.00    +0.210 C 
ATOM     10  C   LIG    1       -2.018   5.289   2.697  0.00  0.00    +0.010 C 
BRANCH   5  11
ATOM     11  C   LIG    1       -0.962   3.391   3.897  0.00  0.00    -0.070 A 
ATOM     12  C   LIG    1        0.419   3.355   3.965  0.00  0.00    +0.030 A 
ATOM     13  C   LIG    1        1.044   2.975   5.138  0.00  0.00    +0.020 A 
ATOM     14  C   LIG    1        0.290   2.629   6.243  0.00  0.00    +0.040 A 
ATOM     15  C   LIG    1       -1.092   2.664   6.175  0.00  0.00    -0.090 A 
ATOM     16 BR   LIG    1       -2.124   2.191   7.687  0.00  0.00    -0.050 Br
ATOM     17  C   LIG    1       -1.717   3.050   5.004  0.00  0.00    +0.050 A 
ENDBRANCH   5  11
ENDBRANCH   3   5
BRANCH   2  18
ATOM     18  C   LIG    1        0.529   2.104  -0.032  0.00  0.00    +0.060 C 
BRANCH  18  19
ATOM     19  C   LIG    1        0.881   0.618  -0.127  0.00  0.00    +0.040 C 
BRANCH  19  20
ATOM     20  C   LIG    1        1.731   0.373  -1.375  0.00  0.00    +0.260 C 
BRANCH  20  21
ATOM     21  N   LIG    1        2.067  -1.049  -1.466  0.00  0.00    -0.720 N 
ATOM     22  H   LIG    1        1.752  -1.667  -0.787  0.00  0.00    +0.410 HD
ATOM     23  C   LIG    1        2.815  -1.501  -2.492  0.00  0.00    +0.610 C 
ATOM     24  O   LIG    1        3.210  -0.727  -3.344  0.00  0.00    -0.520 OA
BRANCH  23  25
ATOM     25  C   LIG    1        3.152  -2.925  -2.583  0.00  0.00    -0.090 A 
ATOM     26  C   LIG    1        3.893  -3.513  -3.568  0.00  0.00    +0.050 A 
ATOM     27  C   LIG    1        3.966  -4.880  -3.257  0.00  0.00    -0.070 A 
ATOM     28  C   LIG    1        3.268  -5.065  -2.114  0.00  0.00    +0.210 A 
ATOM     29  O   LIG    1        2.780  -3.885  -1.711  0.00  0.00    -0.170 OA
ENDBRANCH  23  25
ENDBRANCH  20  21
ENDBRANCH  19  20
ENDBRANCH  18  19
ENDBRANCH   2  18
TORSDOF 7
