REMARK  Name = ZINCvU0000000F6q.0
REMARK                            x       y       z     vdW  Elec       q    Type
REMARK                         _______ _______ _______ _____ _____    ______ ____
ROOT
ATOM      1  C   LIG    1        3.738   1.520  -0.025  0.00  0.00    +0.280 C 
ENDROOT
BRANCH   1   2
ATOM      2  N   LIG    1        4.864   0.583  -0.041  0.00  0.00    -0.720 N 
ATOM      3  H   LIG    1        4.700  -0.372  -0.045  0.00  0.00    +0.400 HD
ATOM      4  C   LIG    1        6.129   1.050  -0.051  0.00  0.00    +0.540 C 
ATOM      5  O   LIG    1        6.334   2.245  -0.046  0.00  0.00    -0.510 OA
BRANCH   4   6
ATOM      6  C   LIG    1        7.287   0.086  -0.067  0.00  0.00    -0.020 C 
ATOM      7  C   LIG    1        7.533  -0.440   1.348  0.00  0.00    +0.090 C 
BRANCH   6   8
ATOM      8  S   LIG    1        8.771   0.937  -0.660  0.00  0.00    +0.110 S 
BRANCH   8   9
ATOM      9  C   LIG    1        9.896  -0.418  -0.722  0.00  0.00    +0.070 A 
ATOM     10  N   LIG    1       11.128  -0.336  -1.094  0.00  0.00    -0.440 NA
ATOM     11  C   LIG    1       11.865  -1.464  -1.087  0.00  0.00    +0.090 A 
ATOM     12  C   LIG    1       13.219  -1.636  -1.443  0.00  0.00    +0.080 A 
ATOM     13  C   LIG    1       13.805  -2.876  -1.372  0.00  0.00    +0.040 A 
ATOM     14  C   LIG    1       13.077  -3.977  -0.947  0.00  0.00    +0.040 A 
ATOM     15  C   LIG    1       11.754  -3.832  -0.593  0.00  0.00    +0.060 A 
ATOM     16  C   LIG    1       11.143  -2.583  -0.660  0.00  0.00    -0.170 A 
ATOM     17  S   LIG    1        9.500  -2.073  -0.279  0.00  0.00    +0.060 S 
ENDBRANCH   8   9
ENDBRANCH   6   8
ENDBRANCH   4   6
ENDBRANCH   1   2
BRANCH   1  18
ATOM     18  C   LIG    1        2.424   0.737  -0.017  0.00  0.00    +0.020 C 
BRANCH  18  19
ATOM     19  C   LIG    1        1.248   1.716  -0.001  0.00  0.00    +0.180 C 
ATOM     20  C   LIG    1        1.329   2.589   1.253  0.00  0.00    +0.040 C 
ATOM     21  C   LIG    1        1.305   2.603  -1.246  0.00  0.00    +0.040 C 
BRANCH  19  23
ATOM     22  C   LIG    1       -1.187   1.624   0.017  0.00  0.00    +0.600 C 
ATOM     23  N   LIG    1       -0.011   0.966   0.007  0.00  0.00    -0.720 N 
ATOM     24  H   LIG    1        0.002  -0.004   0.002  0.00  0.00    +0.390 HD
ATOM     25  O   LIG    1       -1.204   2.841   0.023  0.00  0.00    -0.520 OA
BRANCH  22  29
ATOM     26  C   LIG    1       -4.252  -0.764   0.017  0.00  0.00    +0.060 A 
ATOM     27  C   LIG    1       -4.664   0.518   0.026  0.00  0.00    -0.180 A 
ATOM     28  C   LIG    1       -3.658   1.450   0.027  0.00  0.00    +0.190 A 
ATOM     29  C   LIG    1       -2.406   0.898   0.018  0.00  0.00    -0.290 A 
ATOM     30 BR   LIG    1       -6.494   0.997   0.037  0.00  0.00    -0.000 Br
ATOM     31  S   LIG    1       -2.548  -0.854   0.002  0.00  0.00    +0.200 S 
BRANCH  26  33
ATOM     32  C   LIG    1       -4.466  -3.129   0.004  0.00  0.00    +0.270 C 
ATOM     33  O   LIG    1       -5.079  -1.838   0.015  0.00  0.00    -0.260 OA
ENDBRANCH  26  33
ENDBRANCH  22  29
ENDBRANCH  19  23
ENDBRANCH  18  19
ENDBRANCH   1  18
TORSDOF 9
