REMARK  Name = ZINCrH000004mwNa.0
REMARK                            x       y       z     vdW  Elec       q    Type
REMARK                         _______ _______ _______ _____ _____    ______ ____
ROOT
ATOM      1  C   LIG    1       -1.354  -0.564  -0.056  0.00  0.00    +0.190 C 
ENDROOT
BRANCH   1   2
ATOM      2  N   LIG    1        0.011  -0.024  -0.012  0.00  0.00    -0.510 NA
ATOM      3  C   LIG    1        0.750  -0.551   1.145  0.00  0.00    +0.150 C 
ATOM      4  C   LIG    1        2.182  -0.011   1.119  0.00  0.00    +0.160 C 
ATOM      5  O   LIG    1        2.147   1.419   1.104  0.00  0.00    -0.380 OA
ATOM      6  C   LIG    1        1.436   1.966  -0.010  0.00  0.00    +0.170 C 
ATOM      7  C   LIG    1        1.429   3.493   0.088  0.00  0.00    +0.060 C 
ATOM      8  C   LIG    1        2.932  -0.490   2.363  0.00  0.00    +0.060 C 
ATOM      9  C   LIG    1       -0.004   1.446   0.005  0.00  0.00    +0.170 C 
ENDBRANCH   1   2
BRANCH   1  10
ATOM     10  C   LIG    1       -1.298  -2.070  -0.072  0.00  0.00    -0.090 A 
ATOM     11  C   LIG    1       -0.339  -2.718  -0.828  0.00  0.00    +0.050 A 
ATOM     12  C   LIG    1       -0.286  -4.099  -0.840  0.00  0.00    +0.010 A 
ATOM     13  C   LIG    1       -1.196  -4.833  -0.103  0.00  0.00    +0.010 A 
ATOM     14  C   LIG    1       -2.159  -4.185   0.649  0.00  0.00    +0.010 A 
ATOM     15  C   LIG    1       -2.210  -2.803   0.664  0.00  0.00    +0.010 A 
ENDBRANCH   1  10
BRANCH   1  18
ATOM     16  N   LIG    1       -3.320  -0.444  -1.552  0.00  0.00    -0.660 N 
ATOM     17  H   LIG    1       -3.766  -1.077  -0.968  0.00  0.00    +0.410 HD
ATOM     18  C   LIG    1       -2.049  -0.074  -1.300  0.00  0.00    +0.530 C 
ATOM     19  O   LIG    1       -1.464   0.654  -2.074  0.00  0.00    -0.500 OA
BRANCH  16  26
ATOM     20  C   LIG    1       -5.367   0.331  -2.587  0.00  0.00    +0.100 A 
ATOM     21  C   LIG    1       -6.030   0.859  -3.683  0.00  0.00    -0.060 A 
ATOM     22  C   LIG    1       -5.336   1.132  -4.847  0.00  0.00    +0.040 A 
ATOM     23  C   LIG    1       -3.978   0.884  -4.920  0.00  0.00    -0.100 A 
ATOM     24  C   LIG    1       -3.307   0.361  -3.830  0.00  0.00    +0.070 A 
ATOM     25  C   LIG    1       -3.226   1.183  -6.191  0.00  0.00    +0.100 C 
ATOM     26  C   LIG    1       -3.997   0.086  -2.659  0.00  0.00    +0.120 A 
BRANCH  20  28
ATOM     27  C   LIG    1       -7.452   0.334  -1.444  0.00  0.00    +0.250 C 
ATOM     28  O   LIG    1       -6.050   0.057  -1.444  0.00  0.00    -0.320 OA
ENDBRANCH  20  28
ENDBRANCH  16  26
ENDBRANCH   1  18
TORSDOF 5
