REMARK  Name = ZINCtV00000L6jiH.0
REMARK                            x       y       z     vdW  Elec       q    Type
REMARK                         _______ _______ _______ _____ _____    ______ ____
ROOT
ATOM      1  C   LIG    1        0.002  -0.004   0.002  0.00  0.00    +0.160 C 
ATOM      2  C   LIG    1        0.631  -0.513   1.301  0.00  0.00    +0.100 C 
ENDROOT
BRANCH   1   3
ATOM      3  C   LIG    1       -1.407  -0.525  -0.111  0.00  0.00    +0.170 A 
ATOM      4  N   LIG    1       -2.441  -0.102   0.561  0.00  0.00    -0.260 NA
ATOM      5  N   LIG    1       -3.485  -0.767   0.210  0.00  0.00    -0.280 NA
ATOM      6  C   LIG    1       -3.148  -1.651  -0.699  0.00  0.00    +0.230 A 
ATOM      7  O   LIG    1       -1.826  -1.514  -0.920  0.00  0.00    -0.210 OA
BRANCH   6   8
ATOM      8  C   LIG    1       -4.052  -2.618  -1.358  0.00  0.00    -0.070 A 
ATOM      9  C   LIG    1       -3.552  -3.501  -2.317  0.00  0.00    +0.100 A 
ATOM     10  C   LIG    1       -4.397  -4.405  -2.925  0.00  0.00    -0.070 A 
ATOM     11  C   LIG    1       -5.745  -4.429  -2.594  0.00  0.00    +0.160 A 
ATOM     12  C   LIG    1       -6.247  -3.548  -1.645  0.00  0.00    +0.000 A 
ATOM     13  C   LIG    1       -5.408  -2.646  -1.028  0.00  0.00    +0.130 A 
BRANCH  11  14
ATOM     14  O   LIG    1       -6.575  -5.317  -3.200  0.00  0.00    -0.310 OA
ATOM     15  C   LIG    1       -5.994  -6.194  -4.167  0.00  0.00    +0.250 C 
ENDBRANCH  11  14
ENDBRANCH   6   8
ENDBRANCH   1   3
BRANCH   1  16
ATOM     16  S   LIG    1       -0.022   1.806   0.012  0.00  0.00    +0.060 S 
BRANCH  16  26
ATOM     17  N   LIG    1        2.271   3.381  -0.002  0.00  0.00    -0.470 N 
ATOM     18  C   LIG    1        3.646   3.210  -0.015  0.00  0.00    +0.060 A 
ATOM     19  C   LIG    1        4.722   4.084  -0.020  0.00  0.00    +0.040 A 
ATOM     20  C   LIG    1        6.010   3.587  -0.034  0.00  0.00    +0.050 A 
ATOM     21  C   LIG    1        6.235   2.218  -0.043  0.00  0.00    -0.040 A 
ATOM     22  C   LIG    1        5.177   1.336  -0.038  0.00  0.00    +0.080 A 
ATOM     23 CL   LIG    1        7.862   1.613  -0.061  0.00  0.00    -0.060 Cl
ATOM     24  C   LIG    1        3.868   1.823  -0.024  0.00  0.00    +0.070 A 
ATOM     25  N   LIG    1        2.649   1.222  -0.011  0.00  0.00    -0.490 NA
ATOM     26  C   LIG    1        1.708   2.135  -0.003  0.00  0.00    +0.260 A 
BRANCH  17  27
ATOM     27  C   LIG    1        1.553   4.658   0.011  0.00  0.00    +0.310 C 
BRANCH  27  29
ATOM     28  C   LIG    1        0.567   6.430   1.471  0.00  0.00    +0.040 C 
ATOM     29  C   LIG    1        1.317   5.096   1.458  0.00  0.00    +0.010 C 
ENDBRANCH  27  29
ENDBRANCH  17  27
ENDBRANCH  16  26
ENDBRANCH   1  16
TORSDOF 7
