REMARK  Name = ZINCrD00000l6Wub.0
REMARK                            x       y       z     vdW  Elec       q    Type
REMARK                         _______ _______ _______ _____ _____    ______ ____
ROOT
ATOM      1  N   LIG    1       -3.075   0.955   1.428  0.00  0.00    -0.740 N 
ATOM      2  H   LIG    1       -2.634   1.435   2.147  0.00  0.00    +0.400 HD
ENDROOT
BRANCH   1   3
ATOM      3  C   LIG    1       -4.389   0.509   1.588  0.00  0.00    +0.240 A 
ATOM      4  C   LIG    1       -5.022  -0.172   0.556  0.00  0.00    -0.090 A 
ATOM      5  C   LIG    1       -6.321  -0.617   0.715  0.00  0.00    +0.080 A 
ATOM      6  C   LIG    1       -6.996  -0.378   1.896  0.00  0.00    -0.080 A 
ATOM      7  C   LIG    1       -6.370   0.308   2.930  0.00  0.00    +0.190 A 
ATOM      8  C   LIG    1       -5.065   0.752   2.775  0.00  0.00    -0.060 A 
BRANCH   7   9
ATOM      9  N   LIG    1       -7.055   0.550   4.125  0.00  0.00    -0.670 N 
ATOM     10  H   LIG    1       -7.701  -0.096   4.454  0.00  0.00    +0.410 HD
ATOM     11  C   LIG    1       -6.819   1.679   4.821  0.00  0.00    +0.520 C 
ATOM     12  O   LIG    1       -6.085   2.530   4.364  0.00  0.00    -0.510 OA
BRANCH  11  13
ATOM     13  C   LIG    1       -7.466   1.886   6.166  0.00  0.00    -0.090 C 
ATOM     14  C   LIG    1       -7.033   0.768   7.117  0.00  0.00    +0.050 C 
ATOM     15  C   LIG    1       -8.988   1.861   6.009  0.00  0.00    +0.050 C 
ATOM     16  C   LIG    1       -7.035   3.238   6.738  0.00  0.00    +0.050 C 
ENDBRANCH  11  13
ENDBRANCH   7   9
ENDBRANCH   1   3
BRANCH   1  17
ATOM     17  C   LIG    1       -2.361   0.699   0.174  0.00  0.00    +0.360 C 
BRANCH  17  23
ATOM     18  C   LIG    1        2.678   4.377   0.587  0.00  0.00    +0.120 A 
ATOM     19  N   LIG    1        2.727   3.095   0.492  0.00  0.00    -0.230 NA
ATOM     20  N   LIG    1        1.544   2.368   0.408  0.00  0.00    -0.370 N 
ATOM     21  C   LIG    1        1.407   1.015   0.303  0.00  0.00    +0.540 A 
ATOM     22  C   LIG    1        0.131   0.453   0.230  0.00  0.00    -0.080 A 
ATOM     23  C   LIG    1       -0.973   1.278   0.259  0.00  0.00    +0.190 A 
ATOM     24  N   LIG    1       -0.797   2.590   0.367  0.00  0.00    -0.480 NA
ATOM     25  O   LIG    1        2.395   0.299   0.274  0.00  0.00    -0.500 OA
ATOM     26  C   LIG    1        0.410   3.118   0.436  0.00  0.00    +0.300 A 
ATOM     27  S   LIG    1        0.957   4.798   0.576  0.00  0.00    +0.140 S 
BRANCH  18  29
ATOM     28  C   LIG    1        5.152   4.532   0.659  0.00  0.00    +0.070 C 
ATOM     29  C   LIG    1        3.844   5.326   0.686  0.00  0.00    +0.180 C 
ENDBRANCH  18  29
ENDBRANCH  17  23
ENDBRANCH   1  17
TORSDOF 6
