REMARK  Name = ZINCtV000002z4LW.0
REMARK                            x       y       z     vdW  Elec       q    Type
REMARK                         _______ _______ _______ _____ _____    ______ ____
ROOT
ATOM      1  N   LIG    1        7.801   0.425   6.652  0.00  0.00    -0.500 N 
ATOM      2  C   LIG    1        9.146   0.368   6.333  0.00  0.00    +0.150 A 
ATOM      3  C   LIG    1        9.269   0.356   4.936  0.00  0.00    -0.110 A 
ATOM      4  C   LIG    1        7.899   0.410   4.394  0.00  0.00    -0.080 A 
ATOM      5  C   LIG    1        7.380   0.419   3.101  0.00  0.00    +0.080 A 
ATOM      6  C   LIG    1        6.010   0.481   2.912  0.00  0.00    +0.110 A 
ATOM      7  C   LIG    1        5.155   0.521   4.009  0.00  0.00    +0.030 A 
ATOM      8  C   LIG    1        5.660   0.506   5.290  0.00  0.00    +0.010 A 
ATOM      9  C   LIG    1       10.530   0.301   4.347  0.00  0.00    +0.060 A 
ATOM     10  C   LIG    1       11.655   0.259   5.142  0.00  0.00    -0.020 A 
ATOM     11  C   LIG    1       11.536   0.271   6.523  0.00  0.00    +0.050 A 
ATOM     12  C   LIG    1       10.294   0.324   7.119  0.00  0.00    -0.030 A 
ATOM     13  C   LIG    1        7.035   0.451   5.498  0.00  0.00    +0.130 A 
ENDROOT
BRANCH   6  14
ATOM     14  N   LIG    1        5.484   0.496   1.613  0.00  0.00    -0.670 N 
ATOM     15  H   LIG    1        4.632   0.070   1.430  0.00  0.00    +0.410 HD
ATOM     16  C   LIG    1        6.161   1.104   0.619  0.00  0.00    +0.510 C 
ATOM     17  O   LIG    1        7.177   1.719   0.865  0.00  0.00    -0.510 OA
BRANCH  16  18
ATOM     18  C   LIG    1        5.655   1.020  -0.798  0.00  0.00    +0.160 C 
BRANCH  18  19
ATOM     19  C   LIG    1        6.586   1.777  -1.710  0.00  0.00    -0.170 A 
ATOM     20  C   LIG    1        6.455   3.047  -2.118  0.00  0.00    +0.240 A 
ATOM     21  O   LIG    1        7.477   3.381  -2.925  0.00  0.00    -0.190 OA
ATOM     22  C   LIG    1        8.325   2.345  -3.082  0.00  0.00    +0.060 A 
ATOM     23  C   LIG    1        9.507   2.177  -3.793  0.00  0.00    +0.020 A 
ATOM     24  C   LIG    1       10.163   0.965  -3.761  0.00  0.00    -0.060 A 
ATOM     25  C   LIG    1        9.662  -0.092  -3.017  0.00  0.00    +0.000 A 
ATOM     26  C   LIG    1        8.494   0.054  -2.301  0.00  0.00    +0.050 A 
ATOM     27  C   LIG    1       11.442   0.789  -4.539  0.00  0.00    +0.100 C 
ATOM     28  C   LIG    1        7.818   1.273  -2.329  0.00  0.00    -0.120 A 
ENDBRANCH  18  19
ENDBRANCH  16  18
ENDBRANCH   6  14
BRANCH   1  30
ATOM     29  C   LIG    1        7.019  -0.977   8.497  0.00  0.00    +0.020 C 
ATOM     30  C   LIG    1        7.265   0.454   8.015  0.00  0.00    +0.290 C 
ENDBRANCH   1  30
TORSDOF 4
