REMARK  Name = ZINCqH00000032RR.0
REMARK                            x       y       z     vdW  Elec       q    Type
REMARK                         _______ _______ _______ _____ _____    ______ ____
ROOT
ATOM      1  C   LIG    1       -0.901   1.895   1.473  0.00  0.00    -0.680 A 
ATOM      2  C   LIG    1       -0.699   3.138   2.045  0.00  0.00    +0.150 A 
ATOM      3  C   LIG    1       -1.425   3.520   3.159  0.00  0.00    +0.000 A 
ATOM      4  C   LIG    1       -2.348   2.658   3.714  0.00  0.00    +0.100 A 
ATOM      5  C   LIG    1       -2.553   1.400   3.145  0.00  0.00    -0.150 A 
ATOM      6  C   LIG    1       -1.822   1.023   2.017  0.00  0.00    +0.190 A 
ENDROOT
BRANCH   5   7
ATOM      7  C   LIG    1       -3.541   0.471   3.733  0.00  0.00    +0.580 C 
ATOM      8  N   LIG    1       -4.568   0.952   4.462  0.00  0.00    -0.610 N 
ATOM      9  C   LIG    1       -4.890   2.378   4.656  0.00  0.00    +0.260 C 
ATOM     10  C   LIG    1       -6.404   2.398   4.991  0.00  0.00    +0.040 C 
ATOM     11  C   LIG    1       -6.546   1.119   5.859  0.00  0.00    +0.050 C 
ATOM     12  C   LIG    1       -5.548   0.143   5.200  0.00  0.00    +0.310 C 
ATOM     13  O   LIG    1       -3.428  -0.727   3.560  0.00  0.00    -0.510 OA
BRANCH  12  14
ATOM     14  C   LIG    1       -4.848  -0.670   6.258  0.00  0.00    -0.180 A 
ATOM     15  C   LIG    1       -5.137  -1.934   6.573  0.00  0.00    +0.020 A 
ATOM     16  C   LIG    1       -4.358  -2.477   7.580  0.00  0.00    +0.010 A 
ATOM     17  C   LIG    1       -3.436  -1.655   8.083  0.00  0.00    -0.050 A 
ATOM     18  S   LIG    1       -3.520  -0.102   7.261  0.00  0.00    +0.100 S 
ENDBRANCH  12  14
ENDBRANCH   5   7
BRANCH   1  19
ATOM     19  S   LIG    1        0.023   1.421   0.050  0.00  0.00    +2.690 S 
ATOM     20  O   LIG    1        1.205   2.209   0.058  0.00  0.00    -0.950 OA
ATOM     21  O   LIG    1        0.036   0.000   0.035  0.00  0.00    -0.950 OA
BRANCH  19  22
ATOM     22  N   LIG    1       -0.845   1.894  -1.279  0.00  0.00    -0.990 NA
BRANCH  22  24
ATOM     23  C   LIG    1        0.373   3.132  -3.001  0.00  0.00    +0.010 C 
ATOM     24  C   LIG    1       -0.636   3.225  -1.855  0.00  0.00    +0.280 C 
ENDBRANCH  22  24
BRANCH  22  25
ATOM     25  C   LIG    1       -1.822   0.983  -1.879  0.00  0.00    +0.300 C 
ATOM     26  C   LIG    1       -3.213   1.284  -1.316  0.00  0.00    +0.000 C 
ENDBRANCH  22  25
ENDBRANCH  19  22
ENDBRANCH   1  19
TORSDOF 6
