REMARK  Name = ZINCtV00000L6jQW.0
REMARK                            x       y       z     vdW  Elec       q    Type
REMARK                         _______ _______ _______ _____ _____    ______ ____
ROOT
ATOM      1  O   LIG    1        9.036   0.564   0.373  0.00  0.00    -0.510 OA
ATOM      2  C   LIG    1        8.294  -0.389   0.208  0.00  0.00    +0.560 A 
ATOM      3  N   LIG    1        8.825  -1.615   0.070  0.00  0.00    -0.620 N 
ATOM      4  H   LIG    1        9.789  -1.721   0.104  0.00  0.00    +0.420 HD
ATOM      5  C   LIG    1        8.030  -2.729  -0.118  0.00  0.00    +0.220 A 
ATOM      6  C   LIG    1        8.598  -3.991  -0.259  0.00  0.00    +0.000 A 
ATOM      7  C   LIG    1        7.790  -5.092  -0.445  0.00  0.00    +0.110 A 
ATOM      8  C   LIG    1        6.410  -4.957  -0.496  0.00  0.00    -0.070 A 
ATOM      9  C   LIG    1        5.826  -3.715  -0.359  0.00  0.00    +0.120 A 
ATOM     10 CL   LIG    1        5.412  -6.358  -0.732  0.00  0.00    -0.050 Cl
ATOM     11  C   LIG    1        6.632  -2.591  -0.169  0.00  0.00    -0.120 A 
ATOM     12  C   LIG    1        6.041  -1.252  -0.014  0.00  0.00    +0.150 A 
ATOM     13  C   LIG    1        6.895  -0.176   0.167  0.00  0.00    -0.260 A 
ENDROOT
BRANCH  12  14
ATOM     14  C   LIG    1        4.576  -1.060  -0.055  0.00  0.00    -0.090 A 
ATOM     15  C   LIG    1        3.772  -1.580   0.961  0.00  0.00    +0.040 A 
ATOM     16  C   LIG    1        2.406  -1.392   0.919  0.00  0.00    +0.010 A 
ATOM     17  C   LIG    1        1.831  -0.699  -0.131  0.00  0.00    +0.030 A 
ATOM     18  C   LIG    1        2.621  -0.186  -1.144  0.00  0.00    +0.020 A 
ATOM     19  C   LIG    1        3.989  -0.362  -1.112  0.00  0.00    +0.050 A 
ENDBRANCH  12  14
BRANCH  13  20
ATOM     20  S   LIG    1        6.242   1.450   0.352  0.00  0.00    +0.240 S 
BRANCH  20  21
ATOM     21  C   LIG    1        6.712   1.780   2.018  0.00  0.00    +0.120 A 
ATOM     22  N   LIG    1        7.428   0.999   2.791  0.00  0.00    -0.270 NA
ATOM     23  N   LIG    1        7.577   1.555   3.942  0.00  0.00    -0.260 NA
ATOM     24  C   LIG    1        6.960   2.714   3.950  0.00  0.00    +0.240 A 
ATOM     25  O   LIG    1        6.395   2.878   2.732  0.00  0.00    -0.200 OA
BRANCH  24  26
ATOM     26  C   LIG    1        6.890   3.657   5.076  0.00  0.00    -0.150 A 
ATOM     27  C   LIG    1        7.379   3.428   6.326  0.00  0.00    +0.100 A 
ATOM     28  C   LIG    1        7.187   4.466   7.212  0.00  0.00    +0.010 A 
ATOM     29  C   LIG    1        6.563   5.535   6.709  0.00  0.00    -0.010 A 
ATOM     30  S   LIG    1        6.163   5.257   5.020  0.00  0.00    +0.170 S 
ENDBRANCH  24  26
ENDBRANCH  20  21
ENDBRANCH  13  20
TORSDOF 4
