REMARK  Name = ZINCpe00000FU6Me.0
REMARK                            x       y       z     vdW  Elec       q    Type
REMARK                         _______ _______ _______ _____ _____    ______ ____
ROOT
ATOM      1  C   LIG    1        3.431  -1.777  -1.646  0.00  0.00    +0.130 C 
ATOM      2  C   LIG    1        3.456  -0.361  -1.132  0.00  0.00    -0.110 A 
ATOM      3  C   LIG    1        4.626   0.334  -1.093  0.00  0.00    +0.110 A 
ATOM      4  C   LIG    1        4.635   1.652  -0.613  0.00  0.00    -0.010 A 
ATOM      5  C   LIG    1        3.488   2.228  -0.192  0.00  0.00    +0.280 A 
ATOM      6  N   LIG    1        2.309   1.542  -0.225  0.00  0.00    -0.450 N 
ATOM      7  C   LIG    1        1.179   2.148   0.204  0.00  0.00    +0.560 A 
ATOM      8  C   LIG    1       -0.035   1.423   0.162  0.00  0.00    -0.310 A 
ATOM      9  C   LIG    1       -0.020   0.099  -0.325  0.00  0.00    +0.350 A 
ATOM     10  N   LIG    1       -1.300  -0.374  -0.262  0.00  0.00    -0.410 N 
ATOM     11  C   LIG    1       -2.119   0.620   0.252  0.00  0.00    -0.020 A 
ATOM     12  C   LIG    1       -1.736  -1.712  -0.671  0.00  0.00    +0.340 C 
ATOM     13  N   LIG    1        1.130  -0.434  -0.731  0.00  0.00    -0.540 NA
ATOM     14  C   LIG    1       -1.362   1.722   0.521  0.00  0.00    +0.110 A 
ATOM     15  O   LIG    1        1.206   3.294   0.617  0.00  0.00    -0.510 OA
ATOM     16  C   LIG    1        2.268   0.254  -0.689  0.00  0.00    +0.430 A 
ENDROOT
BRANCH  11  17
ATOM     17  C   LIG    1       -3.562   0.504   0.476  0.00  0.00    +0.590 C 
ATOM     18  N   LIG    1       -4.321   1.613   0.575  0.00  0.00    -0.600 N 
ATOM     19  C   LIG    1       -3.746   2.945   0.330  0.00  0.00    +0.280 C 
ATOM     20  C   LIG    1       -4.640   3.677  -0.683  0.00  0.00    +0.170 C 
ATOM     21  N   LIG    1       -6.025   3.680  -0.194  0.00  0.00    -0.540 NA
ATOM     22  C   LIG    1       -6.558   2.314  -0.095  0.00  0.00    +0.170 C 
ATOM     23  C   LIG    1       -6.882   4.518  -1.043  0.00  0.00    +0.190 C 
ATOM     24  C   LIG    1       -5.744   1.526   0.937  0.00  0.00    +0.300 C 
ATOM     25  O   LIG    1       -4.077  -0.595   0.572  0.00  0.00    -0.540 OA
ENDBRANCH  11  17
TORSDOF 1
