REMARK  Name = ZINCrD00000cdX4s.0
REMARK                            x       y       z     vdW  Elec       q    Type
REMARK                         _______ _______ _______ _____ _____    ______ ____
ROOT
ATOM      1  C   LIG    1       -0.003   1.311   0.009  0.00  0.00    +0.180 A 
ATOM      2  N   LIG    1        0.022   0.002   0.001  0.00  0.00    -0.460 NA
ATOM      3  C   LIG    1        1.333  -0.337  -0.011  0.00  0.00    +0.220 A 
ATOM      4  N   LIG    1        2.019   0.779  -0.010  0.00  0.00    -0.330 NA
ATOM      5  O   LIG    1        1.267   1.730   0.002  0.00  0.00    +0.120 OA
ENDROOT
BRANCH   1  16
ATOM      6  C   LIG    1       -0.939   1.764   2.920  0.00  0.00    +0.110 C 
ATOM      7  C   LIG    1       -0.877   3.135   2.298  0.00  0.00    +0.530 C 
ATOM      8  N   LIG    1       -1.068   3.283   0.972  0.00  0.00    -0.550 N 
ATOM      9  C   LIG    1       -1.138   4.510   0.304  0.00  0.00    +0.140 A 
ATOM     10  C   LIG    1       -1.034   5.804   0.817  0.00  0.00    +0.020 A 
ATOM     11  C   LIG    1       -1.132   6.894  -0.022  0.00  0.00    +0.040 A 
ATOM     12  C   LIG    1       -1.335   6.713  -1.377  0.00  0.00    +0.000 A 
ATOM     13  C   LIG    1       -1.440   5.434  -1.893  0.00  0.00    +0.060 A 
ATOM     14  C   LIG    1       -1.341   4.339  -1.056  0.00  0.00    -0.140 A 
ATOM     15  C   LIG    1       -1.418   2.858  -1.350  0.00  0.00    +0.140 C 
ATOM     16  C   LIG    1       -1.232   2.182   0.019  0.00  0.00    +0.380 C 
ATOM     17  O   LIG    1       -0.656   4.106   2.991  0.00  0.00    -0.500 OA
ENDBRANCH   1  16
BRANCH   3  18
ATOM     18  C   LIG    1        1.885  -1.706  -0.025  0.00  0.00    +0.220 A 
ATOM     19  C   LIG    1        3.236  -2.050  -0.043  0.00  0.00    -0.230 A 
ATOM     20  C   LIG    1        4.452  -1.347  -0.043  0.00  0.00    +0.430 A 
ATOM     21  N   LIG    1        5.586  -2.005  -0.057  0.00  0.00    -0.500 NA
ATOM     22  C   LIG    1        5.663  -3.331  -0.067  0.00  0.00    +0.180 A 
ATOM     23  C   LIG    1        4.564  -4.128  -0.063  0.00  0.00    +0.030 A 
ATOM     24 CL   LIG    1        7.232  -4.074  -0.084  0.00  0.00    -0.020 Cl
ATOM     25  C   LIG    1        3.287  -3.522  -0.049  0.00  0.00    +0.130 A 
ATOM     26  N   LIG    1        2.041  -3.951  -0.042  0.00  0.00    -0.250 NA
ATOM     27  N   LIG    1        1.173  -2.852  -0.027  0.00  0.00    -0.380 N 
ATOM     28  H   LIG    1        0.205  -2.907  -0.019  0.00  0.00    +0.460 HD
ENDBRANCH   3  18
TORSDOF 2
