REMARK  Name = ZINCrg00000IYGFv.0
REMARK                            x       y       z     vdW  Elec       q    Type
REMARK                         _______ _______ _______ _____ _____    ______ ____
ROOT
ATOM      1  C   LIG    1        2.617   1.001  -4.501  0.00  0.00    +0.580 C 
ATOM      2  N   LIG    1        1.422   1.236  -3.924  0.00  0.00    -0.620 N 
ATOM      3  C   LIG    1        0.133   1.322  -4.626  0.00  0.00    +0.250 C 
ATOM      4  C   LIG    1       -0.954   1.578  -3.561  0.00  0.00    +0.050 C 
ATOM      5  C   LIG    1       -0.291   1.061  -2.257  0.00  0.00    +0.130 C 
ATOM      6  C   LIG    1        1.191   1.453  -2.484  0.00  0.00    +0.280 C 
ATOM      7  O   LIG    1        3.605   0.847  -3.810  0.00  0.00    -0.540 OA
ENDROOT
BRANCH   1  11
ATOM      8  C   LIG    1        2.929   0.797  -8.731  0.00  0.00    +0.160 A 
ATOM      9  C   LIG    1        4.078   0.770  -7.949  0.00  0.00    -0.020 A 
ATOM     10  C   LIG    1        3.981   0.836  -6.577  0.00  0.00    +0.120 A 
ATOM     11  C   LIG    1        2.725   0.930  -5.971  0.00  0.00    -0.180 A 
ATOM     12  C   LIG    1        1.572   0.951  -6.760  0.00  0.00    +0.080 A 
ATOM     13  C   LIG    1        1.678   0.891  -8.132  0.00  0.00    -0.090 A 
BRANCH   8  14
ATOM     14  O   LIG    1        3.029   0.732 -10.083  0.00  0.00    -0.310 OA
BRANCH  14  16
ATOM     15  C   LIG    1        2.119   0.683 -12.321  0.00  0.00    +0.070 C 
ATOM     16  C   LIG    1        1.808   0.765 -10.826  0.00  0.00    +0.180 C 
ENDBRANCH  14  16
ENDBRANCH   8  14
ENDBRANCH   1  11
BRANCH   5  17
ATOM     17  N   LIG    1       -0.842   1.744  -1.079  0.00  0.00    -0.520 NA
ATOM     18  C   LIG    1       -0.075   1.411   0.130  0.00  0.00    +0.200 C 
BRANCH  17  19
ATOM     19  C   LIG    1       -2.265   1.426  -0.904  0.00  0.00    +0.260 C 
BRANCH  19  20
ATOM     20  C   LIG    1       -2.854   2.324   0.154  0.00  0.00    +0.240 A 
ATOM     21  C   LIG    1       -3.818   3.230  -0.182  0.00  0.00    -0.180 A 
ATOM     22  C   LIG    1       -4.353   4.056   0.822  0.00  0.00    +0.540 A 
ATOM     23  N   LIG    1       -3.892   3.925   2.085  0.00  0.00    -0.650 N 
ATOM     24  H   LIG    1       -4.247   4.485   2.793  0.00  0.00    +0.410 HD
ATOM     25  C   LIG    1       -2.929   3.004   2.360  0.00  0.00    +0.640 A 
ATOM     26  O   LIG    1       -5.216   4.877   0.558  0.00  0.00    -0.540 OA
ATOM     27  N   LIG    1       -2.437   2.229   1.414  0.00  0.00    -0.590 NA
BRANCH  25  28
ATOM     28  N   LIG    1       -2.468   2.876   3.642  0.00  0.00    -0.820 N 
ATOM     29  H   LIG    1       -1.782   2.222   3.848  0.00  0.00    +0.430 HD
ATOM     30  H   LIG    1       -2.827   3.440   4.346  0.00  0.00    +0.420 HD
ENDBRANCH  25  28
ENDBRANCH  19  20
ENDBRANCH  17  19
ENDBRANCH   5  17
TORSDOF 7
