REMARK  Name = ZINCrD0000070UU6.0
REMARK                            x       y       z     vdW  Elec       q    Type
REMARK                         _______ _______ _______ _____ _____    ______ ____
ROOT
ATOM      1  C   LIG    1        5.715   2.548  -0.037  0.00  0.00    +0.280 A 
ATOM      2  N   LIG    1        4.784   1.646  -0.029  0.00  0.00    -0.470 NA
ATOM      3  C   LIG    1        3.536   2.075  -0.021  0.00  0.00    +0.090 A 
ATOM      4  C   LIG    1        3.406   3.404  -0.012  0.00  0.00    -0.070 A 
ATOM      5  S   LIG    1        5.020   4.110  -0.023  0.00  0.00    +0.150 S 
ENDROOT
BRANCH   1   8
ATOM      6  C   LIG    1        9.000   0.723  -0.075  0.00  0.00    +0.110 C 
ATOM      7  C   LIG    1        7.521   1.010  -0.061  0.00  0.00    +0.510 C 
ATOM      8  N   LIG    1        7.081   2.284  -0.050  0.00  0.00    -0.480 N 
ATOM      9  O   LIG    1        6.726   0.094  -0.059  0.00  0.00    -0.470 OA
BRANCH   8  10
ATOM     10  C   LIG    1        7.999   3.341  -0.052  0.00  0.00    +0.100 A 
ATOM     11  C   LIG    1        8.461   3.864   1.148  0.00  0.00    +0.030 A 
ATOM     12  C   LIG    1        9.370   4.904   1.143  0.00  0.00    +0.020 A 
ATOM     13  C   LIG    1        9.813   5.431  -0.057  0.00  0.00    +0.030 A 
ATOM     14  C   LIG    1        9.350   4.916  -1.254  0.00  0.00    -0.080 A 
ATOM     15  C   LIG    1        9.835   5.494  -2.559  0.00  0.00    +0.100 C 
ATOM     16  C   LIG    1        8.445   3.873  -1.255  0.00  0.00    -0.060 A 
ATOM     17  C   LIG    1        7.942   3.313  -2.561  0.00  0.00    +0.100 C 
ENDBRANCH   8  10
ENDBRANCH   1   8
BRANCH   3  18
ATOM     18  C   LIG    1        2.354   1.141  -0.014  0.00  0.00    +0.350 C 
BRANCH  18  19
ATOM     19  O   LIG    1        1.145   1.903   0.001  0.00  0.00    -0.350 OA
BRANCH  19  20
ATOM     20  C   LIG    1       -0.014   1.212   0.009  0.00  0.00    +0.530 C 
ATOM     21  O   LIG    1        0.002  -0.004   0.002  0.00  0.00    -0.480 OA
BRANCH  20  22
ATOM     22  C   LIG    1       -1.290   1.926   0.019  0.00  0.00    -0.070 C 
ATOM     23  C   LIG    1       -1.290   3.267   0.032  0.00  0.00    +0.250 C 
ATOM     24  O   LIG    1       -2.439   3.975   0.043  0.00  0.00    -0.300 OA
ATOM     25  C   LIG    1       -3.634   3.276  -0.325  0.00  0.00    +0.230 C 
ATOM     26  C   LIG    1       -3.637   1.923   0.400  0.00  0.00    +0.230 C 
ATOM     27  O   LIG    1       -2.451   1.214   0.020  0.00  0.00    -0.290 OA
ENDBRANCH  20  22
ENDBRANCH  19  20
ENDBRANCH  18  19
ENDBRANCH   3  18
TORSDOF 6
