REMARK  Name = ZINCrD00000l8EyL.0
REMARK                            x       y       z     vdW  Elec       q    Type
REMARK                         _______ _______ _______ _____ _____    ______ ____
ROOT
ATOM      1  N   LIG    1       -3.950   8.233   0.644  0.00  0.00    -0.510 NA
ATOM      2  C   LIG    1       -4.895   8.904  -0.257  0.00  0.00    +0.170 C 
ATOM      3  C   LIG    1       -4.310   8.936  -1.673  0.00  0.00    +0.300 C 
ATOM      4  N   LIG    1       -2.972   9.543  -1.612  0.00  0.00    -0.610 N 
ATOM      5  C   LIG    1       -2.009   9.008  -0.637  0.00  0.00    +0.280 C 
ATOM      6  C   LIG    1       -2.634  10.559  -2.431  0.00  0.00    +0.560 C 
ATOM      7  O   LIG    1       -3.473  11.061  -3.154  0.00  0.00    -0.530 OA
ATOM      8  C   LIG    1       -2.687   8.976   0.742  0.00  0.00    +0.180 C 
ENDROOT
BRANCH   6   9
ATOM      9  C   LIG    1       -1.245  11.062  -2.451  0.00  0.00    -0.130 A 
ATOM     10  C   LIG    1       -0.176  10.174  -2.321  0.00  0.00    +0.060 A 
ATOM     11  C   LIG    1        1.118  10.649  -2.341  0.00  0.00    +0.020 A 
ATOM     12  C   LIG    1        1.359  12.005  -2.489  0.00  0.00    -0.010 A 
ATOM     13  C   LIG    1        0.302  12.892  -2.612  0.00  0.00    +0.030 A 
ATOM     14 CL   LIG    1        2.991  12.597  -2.512  0.00  0.00    -0.060 Cl
ATOM     15  C   LIG    1       -0.997  12.428  -2.599  0.00  0.00    +0.090 A 
ENDBRANCH   6   9
BRANCH   1  17
ATOM     16  C   LIG    1       -3.521   7.356   2.891  0.00  0.00    +0.080 C 
ATOM     17  C   LIG    1       -4.544   8.028   1.972  0.00  0.00    +0.130 C 
BRANCH  17  18
ATOM     18  C   LIG    1       -5.761   7.148   1.848  0.00  0.00    +0.520 C 
ATOM     19  N   LIG    1       -6.788   7.293   2.708  0.00  0.00    -0.730 N 
ATOM     20  H   LIG    1       -6.744   7.963   3.407  0.00  0.00    +0.400 HD
ATOM     21  O   LIG    1       -5.816   6.309   0.973  0.00  0.00    -0.510 OA
BRANCH  19  22
ATOM     22  C   LIG    1       -7.971   6.437   2.587  0.00  0.00    +0.230 C 
ATOM     23  C   LIG    1       -8.899   7.019   1.500  0.00  0.00    +0.020 C 
ATOM     24  C   LIG    1       -9.815   5.926   1.018  0.00  0.00    +0.000 C 
ATOM     25  C   LIG    1      -11.164   5.917   1.762  0.00  0.00    +0.000 C 
ATOM     26  C   LIG    1      -11.014   6.157   3.276  0.00  0.00    +0.000 C 
ATOM     27  C   LIG    1       -9.848   5.410   3.865  0.00  0.00    +0.030 C 
ATOM     28  C   LIG    1       -8.624   6.349   3.885  0.00  0.00    +0.010 C 
ENDBRANCH  19  22
ENDBRANCH  17  18
ENDBRANCH   1  17
TORSDOF 4
