REMARK  Name = ZINCrH000004jGu5.0
REMARK                            x       y       z     vdW  Elec       q    Type
REMARK                         _______ _______ _______ _____ _____    ______ ____
ROOT
ATOM      1  N   LIG    1       -3.676   1.667   0.028  0.00  0.00    -0.670 N 
ATOM      2  H   LIG    1       -3.612   2.523  -0.425  0.00  0.00    +0.420 HD
ATOM      3  C   LIG    1       -2.633   1.206   0.746  0.00  0.00    +0.570 C 
ATOM      4  O   LIG    1       -2.745   0.182   1.392  0.00  0.00    -0.510 OA
ENDROOT
BRANCH   1   7
ATOM      5  C   LIG    1       -7.239   0.804  -0.245  0.00  0.00    -0.650 A 
ATOM      6  C   LIG    1       -6.082   1.551  -0.154  0.00  0.00    +0.120 A 
ATOM      7  C   LIG    1       -4.851   0.913  -0.064  0.00  0.00    +0.140 A 
ATOM      8  C   LIG    1       -4.788  -0.474  -0.070  0.00  0.00    +0.090 A 
ATOM      9  C   LIG    1       -5.950  -1.216  -0.156  0.00  0.00    +0.050 A 
ATOM     10  C   LIG    1       -7.174  -0.579  -0.246  0.00  0.00    +0.040 A 
ATOM     11 CL   LIG    1       -8.632  -1.514  -0.362  0.00  0.00    -0.040 Cl
BRANCH   5  12
ATOM     12  S   LIG    1       -8.801   1.612  -0.360  0.00  0.00    +2.690 S 
ATOM     13  O   LIG    1       -8.531   3.007  -0.368  0.00  0.00    -0.950 OA
ATOM     14  O   LIG    1       -9.646   0.989   0.598  0.00  0.00    -0.930 OA
BRANCH  12  16
ATOM     15  C   LIG    1      -10.278   0.064  -2.014  0.00  0.00    +0.300 C 
ATOM     16  N   LIG    1       -9.433   1.248  -1.847  0.00  0.00    -1.000 NA
ATOM     17  C   LIG    1       -9.146   2.112  -2.995  0.00  0.00    +0.310 C 
ENDBRANCH  12  16
ENDBRANCH   5  12
ENDBRANCH   1   7
BRANCH   3  18
ATOM     18  C   LIG    1       -1.355   1.943   0.748  0.00  0.00    -0.160 A 
ATOM     19  C   LIG    1       -0.272   1.466   1.492  0.00  0.00    +0.150 A 
ATOM     20  C   LIG    1        0.921   2.154   1.487  0.00  0.00    +0.020 A 
ATOM     21  C   LIG    1        1.048   3.323   0.747  0.00  0.00    +0.140 A 
ATOM     22  C   LIG    1       -0.028   3.804   0.010  0.00  0.00    -0.060 A 
ATOM     23  C   LIG    1       -1.225   3.123   0.011  0.00  0.00    +0.100 A 
BRANCH  21  24
ATOM     24  O   LIG    1        2.226   3.998   0.743  0.00  0.00    -0.310 OA
BRANCH  24  25
ATOM     25  C   LIG    1        2.287   5.192  -0.039  0.00  0.00    +0.600 C 
ATOM     26  F   LIG    1        2.025   4.887  -1.378  0.00  0.00    -0.160 F 
ATOM     27  F   LIG    1        3.563   5.756   0.070  0.00  0.00    -0.130 F 
ATOM     28  F   LIG    1        1.333   6.104   0.427  0.00  0.00    -0.160 F 
ENDBRANCH  24  25
ENDBRANCH  21  24
ENDBRANCH   3  18
TORSDOF 6
