REMARK  Name = ZINCnE000001HAIg.0
REMARK                            x       y       z     vdW  Elec       q    Type
REMARK                         _______ _______ _______ _____ _____    ______ ____
ROOT
ATOM      1  C   LIG    1       -5.699  -0.757   2.583  0.00  0.00    -0.030 A 
ATOM      2  C   LIG    1       -6.379  -1.958   2.604  0.00  0.00    +0.030 A 
ATOM      3  C   LIG    1       -5.705  -3.132   2.890  0.00  0.00    +0.010 A 
ATOM      4  C   LIG    1       -4.347  -3.110   3.149  0.00  0.00    -0.010 A 
ATOM      5  C   LIG    1       -3.656  -1.915   3.124  0.00  0.00    +0.020 A 
ATOM      6  C   LIG    1       -4.329  -0.730   2.837  0.00  0.00    -0.080 A 
ENDROOT
BRANCH   6   7
ATOM      7  C   LIG    1       -3.591   0.557   2.809  0.00  0.00    +0.040 A 
ATOM      8  C   LIG    1       -2.877   0.979   3.929  0.00  0.00    +0.000 A 
ATOM      9  C   LIG    1       -2.193   2.177   3.896  0.00  0.00    +0.120 A 
ATOM     10  C   LIG    1       -2.215   2.958   2.755  0.00  0.00    -0.670 A 
ATOM     11  C   LIG    1       -2.927   2.548   1.643  0.00  0.00    +0.120 A 
ATOM     12  C   LIG    1       -3.610   1.349   1.662  0.00  0.00    +0.000 A 
BRANCH  10  13
ATOM     13  S   LIG    1       -1.338   4.487   2.721  0.00  0.00    +2.500 S 
ATOM     14  O   LIG    1       -2.032   5.267   1.758  0.00  0.00    -0.940 OA
ATOM     15  O   LIG    1       -1.280   4.888   4.084  0.00  0.00    -0.940 OA
ATOM     16  C   LIG    1        0.314   4.048   2.115  0.00  0.00    -0.260 C 
ENDBRANCH  10  13
ENDBRANCH   6   7
BRANCH   1  17
ATOM     17  C   LIG    1       -6.435   0.522   2.278  0.00  0.00    +0.070 C 
BRANCH  17  18
ATOM     18  C   LIG    1       -6.714   1.273   3.581  0.00  0.00    -0.090 C 
BRANCH  18  19
ATOM     19  C   LIG    1       -7.666   0.470   4.430  0.00  0.00    +0.510 C 
ATOM     20  O   LIG    1       -7.351   0.150   5.564  0.00  0.00    -0.700 OA
ATOM     21  O   LIG    1       -8.751   0.139   3.983  0.00  0.00    -0.700 OA
ENDBRANCH  18  19
BRANCH  18  23
ATOM     22  C   LIG    1       -7.503   3.434   4.556  0.00  0.00    +0.010 C 
ATOM     23  C   LIG    1       -7.339   2.633   3.263  0.00  0.00    -0.000 C 
ENDBRANCH  18  23
ENDBRANCH  17  18
ENDBRANCH   1  17
TORSDOF 6
