REMARK  Name = ZINCpe000000YRmg.0
REMARK                            x       y       z     vdW  Elec       q    Type
REMARK                         _______ _______ _______ _____ _____    ______ ____
ROOT
ATOM      1  N   LIG    1        0.506  -0.004   1.624  0.00  0.00    -0.540 NA
ATOM      2  C   LIG    1       -0.325   0.438   0.496  0.00  0.00    +0.170 C 
ATOM      3  C   LIG    1       -0.133   1.943   0.283  0.00  0.00    +0.280 C 
ATOM      4  N   LIG    1        1.306   2.215   0.140  0.00  0.00    -0.610 N 
ATOM      5  C   LIG    1        2.219   1.684   1.163  0.00  0.00    +0.300 C 
ATOM      6  C   LIG    1        1.774   2.932  -0.900  0.00  0.00    +0.560 C 
ATOM      7  O   LIG    1        2.956   3.209  -0.965  0.00  0.00    -0.520 OA
ATOM      8  C   LIG    1        1.935   0.189   1.341  0.00  0.00    +0.160 C 
ENDROOT
BRANCH   6   9
ATOM      9  C   LIG    1        0.851   3.382  -1.962  0.00  0.00    -0.170 A 
ATOM     10  C   LIG    1       -0.310   4.084  -1.632  0.00  0.00    +0.080 A 
ATOM     11  C   LIG    1       -1.167   4.501  -2.628  0.00  0.00    +0.010 A 
ATOM     12  C   LIG    1       -0.881   4.226  -3.954  0.00  0.00    +0.070 A 
ATOM     13  C   LIG    1        0.266   3.531  -4.291  0.00  0.00    -0.020 A 
ATOM     14  C   LIG    1        1.139   3.112  -3.304  0.00  0.00    +0.150 A 
ATOM     15  F   LIG    1        2.262   2.439  -3.634  0.00  0.00    -0.120 F 
ENDBRANCH   6   9
BRANCH   1  16
ATOM     16  C   LIG    1        0.222  -1.403   1.970  0.00  0.00    +0.210 C 
BRANCH  16  17
ATOM     17  C   LIG    1        1.267  -1.903   2.970  0.00  0.00    +0.070 C 
BRANCH  17  19
ATOM     18  O   LIG    1        0.026  -3.906   2.828  0.00  0.00    -0.540 OA
ATOM     19  C   LIG    1        0.976  -3.338   3.325  0.00  0.00    +0.520 C 
ATOM     20  N   LIG    1        1.770  -3.992   4.196  0.00  0.00    -0.620 N 
ATOM     21  C   LIG    1        2.932  -3.326   4.808  0.00  0.00    +0.250 C 
ATOM     22  C   LIG    1        2.859  -3.538   6.328  0.00  0.00    +0.220 C 
ATOM     23  O   LIG    1        2.711  -4.933   6.601  0.00  0.00    -0.380 OA
ATOM     24  C   LIG    1        1.506  -5.506   6.087  0.00  0.00    +0.220 C 
ATOM     25  C   LIG    1        1.506  -5.393   4.558  0.00  0.00    +0.260 C 
ENDBRANCH  17  19
ENDBRANCH  16  17
ENDBRANCH   1  16
TORSDOF 4
