REMARK  Name = ZINCpk00000KfLCi.0
REMARK                            x       y       z     vdW  Elec       q    Type
REMARK                         _______ _______ _______ _____ _____    ______ ____
ROOT
ATOM      1  N   LIG    1       -2.029   1.243  -1.416  0.00  0.00    -0.730 N 
ATOM      2  H   LIG    1       -2.487   0.676  -0.776  0.00  0.00    +0.400 HD
ATOM      3  C   LIG    1       -0.742   1.585  -1.213  0.00  0.00    +0.520 C 
ATOM      4  O   LIG    1       -0.169   2.295  -2.013  0.00  0.00    -0.520 OA
ENDROOT
BRANCH   3   5
ATOM      5  C   LIG    1       -0.013   1.086   0.008  0.00  0.00    +0.110 C 
ATOM      6  C   LIG    1       -0.729   1.579   1.267  0.00  0.00    +0.060 C 
BRANCH   5   7
ATOM      7  N   LIG    1        1.365   1.594  -0.002  0.00  0.00    -0.440 NA
ATOM      8  C   LIG    1        2.239   0.736  -0.824  0.00  0.00    +0.190 C 
ATOM      9  C   LIG    1        3.316   0.891   0.259  0.00  0.00    +0.250 C 
ATOM     10  C   LIG    1        2.111   1.125   1.180  0.00  0.00    +0.180 C 
BRANCH   9  11
ATOM     11  N   LIG    1        4.176   2.064   0.086  0.00  0.00    -0.350 N 
ATOM     12  C   LIG    1        3.991   3.060  -0.806  0.00  0.00    +0.260 A 
ATOM     13  C   LIG    1        4.999   3.949  -0.646  0.00  0.00    -0.130 A 
ATOM     14  C   LIG    1        5.828   3.481   0.379  0.00  0.00    +0.230 A 
ATOM     15  N   LIG    1        5.332   2.354   0.822  0.00  0.00    -0.300 NA
ENDBRANCH   9  11
ENDBRANCH   5   7
ENDBRANCH   3   5
BRANCH   1  16
ATOM     16  C   LIG    1       -2.738   1.728  -2.603  0.00  0.00    +0.330 C 
BRANCH  16  20
ATOM     17  C   LIG    1       -6.748   0.244  -2.576  0.00  0.00    +0.110 A 
ATOM     18  C   LIG    1       -5.741  -0.484  -3.188  0.00  0.00    -0.040 A 
ATOM     19  C   LIG    1       -4.446   0.001  -3.200  0.00  0.00    +0.040 A 
ATOM     20  C   LIG    1       -4.152   1.207  -2.592  0.00  0.00    -0.110 A 
ATOM     21  C   LIG    1       -5.152   1.938  -1.979  0.00  0.00    -0.010 A 
ATOM     22  C   LIG    1       -6.453   1.461  -1.969  0.00  0.00    +0.100 A 
BRANCH  17  24
ATOM     23  C   LIG    1       -8.253  -1.485  -3.211  0.00  0.00    +0.240 C 
ATOM     24  O   LIG    1       -8.023  -0.230  -2.569  0.00  0.00    -0.310 OA
ENDBRANCH  17  24
BRANCH  22  25
ATOM     25  O   LIG    1       -7.438   2.179  -1.366  0.00  0.00    -0.310 OA
ATOM     26  C   LIG    1       -7.061   3.418  -0.763  0.00  0.00    +0.250 C 
ENDBRANCH  22  25
ENDBRANCH  16  20
ENDBRANCH   1  16
TORSDOF 7
