REMARK  Name = ZINCpk00000y6vom.0
REMARK                            x       y       z     vdW  Elec       q    Type
REMARK                         _______ _______ _______ _____ _____    ______ ____
ROOT
ATOM      1  C   LIG    1       -1.435  -0.434   0.210  0.00  0.00    +0.610 C 
ATOM      2  N   LIG    1       -1.569  -1.775   0.257  0.00  0.00    -0.600 N 
ATOM      3  C   LIG    1       -0.463  -2.748   0.308  0.00  0.00    +0.220 C 
ATOM      4  C   LIG    1       -1.077  -4.012   0.959  0.00  0.00    +0.180 C 
ATOM      5  C   LIG    1       -2.506  -4.012   0.353  0.00  0.00    +0.080 C 
ATOM      6  C   LIG    1       -2.843  -2.508   0.271  0.00  0.00    +0.280 C 
ATOM      7  O   LIG    1       -2.419   0.278   0.269  0.00  0.00    -0.500 OA
ENDROOT
BRANCH   1  13
ATOM      8  C   LIG    1        2.992   0.917   2.137  0.00  0.00    +0.160 C 
ATOM      9  C   LIG    1        2.026   0.823   0.984  0.00  0.00    +0.060 A 
ATOM     10  N   LIG    1        2.369   1.290  -0.186  0.00  0.00    -0.210 NA
ATOM     11  N   LIG    1        1.597   1.243  -1.209  0.00  0.00    -0.340 N 
ATOM     12  C   LIG    1        0.365   0.703  -1.148  0.00  0.00    +0.500 A 
ATOM     13  C   LIG    1       -0.096   0.168   0.088  0.00  0.00    -0.210 A 
ATOM     14  O   LIG    1       -0.347   0.673  -2.138  0.00  0.00    -0.510 OA
ATOM     15  C   LIG    1        2.070   1.794  -2.482  0.00  0.00    +0.360 C 
ATOM     16  C   LIG    1        0.770   0.237   1.178  0.00  0.00    +0.010 A 
ATOM     17  C   LIG    1        0.363  -0.299   2.526  0.00  0.00    +0.130 C 
ENDBRANCH   1  13
BRANCH   6  18
ATOM     18  C   LIG    1       -3.611  -2.226  -0.995  0.00  0.00    -0.110 A 
ATOM     19  C   LIG    1       -2.941  -2.113  -2.199  0.00  0.00    +0.050 A 
ATOM     20  C   LIG    1       -3.645  -1.860  -3.361  0.00  0.00    -0.020 A 
ATOM     21  C   LIG    1       -5.020  -1.708  -3.317  0.00  0.00    +0.100 A 
ATOM     22  C   LIG    1       -5.690  -1.817  -2.110  0.00  0.00    -0.010 A 
ATOM     23  F   LIG    1       -5.708  -1.455  -4.452  0.00  0.00    -0.140 F 
ATOM     24  C   LIG    1       -4.985  -2.076  -0.950  0.00  0.00    +0.060 A 
ENDBRANCH   6  18
BRANCH   4  25
ATOM     25  O   LIG    1       -1.123  -3.886   2.381  0.00  0.00    -0.550 OA
ATOM     26  H   LIG    1       -0.256  -3.784   2.796  0.00  0.00    +0.380 HD
ENDBRANCH   4  25
TORSDOF 3
