REMARK  Name = ZINCrg000000rLTO.0
REMARK                            x       y       z     vdW  Elec       q    Type
REMARK                         _______ _______ _______ _____ _____    ______ ____
ROOT
ATOM      1  N   LIG    1       -5.300   3.101   5.675  0.00  0.00    -0.730 N 
ATOM      2  H   LIG    1       -4.851   2.247   5.776  0.00  0.00    +0.400 HD
ATOM      3  C   LIG    1       -5.273   3.740   4.488  0.00  0.00    +0.560 C 
ATOM      4  O   LIG    1       -5.835   4.811   4.362  0.00  0.00    -0.530 OA
ENDROOT
BRANCH   3   5
ATOM      5  C   LIG    1       -4.561   3.139   3.341  0.00  0.00    -0.120 A 
ATOM      6  C   LIG    1       -4.532   3.797   2.110  0.00  0.00    +0.080 A 
ATOM      7  C   LIG    1       -3.867   3.230   1.043  0.00  0.00    +0.040 A 
ATOM      8  C   LIG    1       -3.229   2.011   1.190  0.00  0.00    -0.090 A 
ATOM      9  C   LIG    1       -3.259   1.351   2.406  0.00  0.00    +0.020 A 
ATOM     10  C   LIG    1       -3.916   1.909   3.482  0.00  0.00    +0.040 A 
BRANCH   8  11
ATOM     11  C   LIG    1       -2.505   1.398   0.020  0.00  0.00    +0.380 C 
BRANCH  11  12
ATOM     12  N   LIG    1       -1.111   1.850   0.017  0.00  0.00    -0.380 N 
ATOM     13  C   LIG    1       -0.013   1.076   0.008  0.00  0.00    +0.470 A 
ATOM     14  N   LIG    1        1.036   1.858   0.002  0.00  0.00    -0.550 NA
ATOM     15  C   LIG    1        0.648   3.133   0.013  0.00  0.00    +0.420 A 
ATOM     16  N   LIG    1       -0.658   3.180   0.025  0.00  0.00    -0.310 NA
ENDBRANCH  11  12
ENDBRANCH   8  11
ENDBRANCH   3   5
BRANCH   1  17
ATOM     17  C   LIG    1       -6.005   3.697   6.812  0.00  0.00    +0.290 C 
BRANCH  17  18
ATOM     18  C   LIG    1       -5.882   2.776   8.028  0.00  0.00    +0.050 C 
BRANCH  18  26
ATOM     19  C   LIG    1       -8.861   2.767  13.442  0.00  0.00    +0.080 C 
ATOM     20  C   LIG    1       -8.264   2.261  12.127  0.00  0.00    +0.140 C 
ATOM     21  C   LIG    1       -7.335   3.330  11.541  0.00  0.00    +0.260 C 
ATOM     22  N   LIG    1       -6.633   2.751  10.384  0.00  0.00    -0.620 N 
ATOM     23  C   LIG    1       -5.966   1.451  10.560  0.00  0.00    +0.260 C 
ATOM     24  C   LIG    1       -6.957   0.476  11.196  0.00  0.00    +0.130 C 
ATOM     25  C   LIG    1       -6.234  -0.820  11.569  0.00  0.00    +0.070 C 
ATOM     26  C   LIG    1       -6.607   3.390   9.198  0.00  0.00    +0.520 C 
ATOM     27  O   LIG    1       -7.168   4.458   9.072  0.00  0.00    -0.530 OA
ATOM     28  O   LIG    1       -7.514   1.068  12.372  0.00  0.00    -0.370 OA
ENDBRANCH  18  26
ENDBRANCH  17  18
ENDBRANCH   1  17
TORSDOF 6
