REMARK  Name = ZINCrH000004s3y8.0
REMARK                            x       y       z     vdW  Elec       q    Type
REMARK                         _______ _______ _______ _____ _____    ______ ____
ROOT
ATOM      1  C   LIG    1       -0.177   1.038   0.839  0.00  0.00    -0.040 A 
ATOM      2  N   LIG    1       -0.190  -0.248   0.558  0.00  0.00    -0.160 NA
ATOM      3  N   LIG    1        0.818  -1.006   0.789  0.00  0.00    -0.270 N 
ATOM      4  C   LIG    1        1.974  -0.559   1.337  0.00  0.00    +0.270 A 
ATOM      5  C   LIG    1        2.125   0.744   1.675  0.00  0.00    -0.070 A 
ATOM      6  C   LIG    1        1.034   1.620   1.438  0.00  0.00    +0.380 A 
ATOM      7  O   LIG    1        1.099   2.807   1.718  0.00  0.00    -0.440 OA
ENDROOT
BRANCH   3   8
ATOM      8  C   LIG    1        0.719  -2.362   0.459  0.00  0.00    +0.110 A 
ATOM      9  C   LIG    1       -0.526  -2.978   0.414  0.00  0.00    +0.070 A 
ATOM     10  C   LIG    1       -0.621  -4.315   0.084  0.00  0.00    +0.020 A 
ATOM     11  C   LIG    1        0.523  -5.045  -0.193  0.00  0.00    +0.110 A 
ATOM     12  C   LIG    1        1.765  -4.434  -0.144  0.00  0.00    +0.020 A 
ATOM     13  F   LIG    1        0.428  -6.354  -0.511  0.00  0.00    -0.130 F 
ATOM     14  C   LIG    1        1.865  -3.095   0.181  0.00  0.00    +0.050 A 
ENDBRANCH   3   8
BRANCH   1  16
ATOM     15  N   LIG    1       -2.423   1.357  -0.078  0.00  0.00    -0.560 N 
ATOM     16  C   LIG    1       -1.354   1.882   0.553  0.00  0.00    +0.590 C 
ATOM     17  O   LIG    1       -1.360   3.051   0.888  0.00  0.00    -0.480 OA
BRANCH  15  24
ATOM     18  C   LIG    1       -4.432   1.897   1.863  0.00  0.00    +0.080 C 
ATOM     19  C   LIG    1       -4.495   2.470   0.470  0.00  0.00    -0.070 A 
ATOM     20  C   LIG    1       -5.546   3.288   0.106  0.00  0.00    +0.020 A 
ATOM     21  C   LIG    1       -5.607   3.809  -1.174  0.00  0.00    +0.020 A 
ATOM     22  C   LIG    1       -4.613   3.518  -2.090  0.00  0.00    +0.010 A 
ATOM     23  C   LIG    1       -3.556   2.705  -1.730  0.00  0.00    +0.010 A 
ATOM     24  C   LIG    1       -3.492   2.180  -0.446  0.00  0.00    +0.140 A 
ENDBRANCH  15  24
BRANCH  15  25
ATOM     25  C   LIG    1       -2.464  -0.076  -0.380  0.00  0.00    +0.240 C 
ATOM     26  C   LIG    1       -1.535  -0.376  -1.558  0.00  0.00    +0.030 C 
ATOM     27  C   LIG    1       -3.895  -0.479  -0.743  0.00  0.00    +0.050 C 
ENDBRANCH  15  25
ENDBRANCH   1  16
TORSDOF 4
