REMARK  Name = ZINCrD0000071L9r.0
REMARK                            x       y       z     vdW  Elec       q    Type
REMARK                         _______ _______ _______ _____ _____    ______ ____
ROOT
ATOM      1  C   LIG    1       -2.456  -2.533  -0.250  0.00  0.00    +0.340 C 
ENDROOT
BRANCH   1   2
ATOM      2  C   LIG    1       -1.428  -1.458  -0.490  0.00  0.00    +0.490 C 
ATOM      3  N   LIG    1       -1.804  -0.165  -0.547  0.00  0.00    -0.670 N 
ATOM      4  H   LIG    1       -2.723   0.081  -0.356  0.00  0.00    +0.410 HD
ATOM      5  O   LIG    1       -0.261  -1.756  -0.632  0.00  0.00    -0.500 OA
BRANCH   3   6
ATOM      6  C   LIG    1       -0.870   0.823  -0.882  0.00  0.00    +0.150 A 
ATOM      7  C   LIG    1       -1.019   2.114  -0.395  0.00  0.00    +0.000 A 
ATOM      8  C   LIG    1       -0.098   3.090  -0.727  0.00  0.00    +0.050 A 
ATOM      9  C   LIG    1        0.978   2.782  -1.545  0.00  0.00    +0.030 A 
ATOM     10  O   LIG    1        1.874   3.757  -1.864  0.00  0.00    -0.310 OA
ATOM     11  C   LIG    1        3.139   3.327  -2.378  0.00  0.00    +0.220 C 
ATOM     12  C   LIG    1        2.884   2.255  -3.446  0.00  0.00    +0.220 C 
ATOM     13  O   LIG    1        2.186   1.167  -2.832  0.00  0.00    -0.300 OA
ATOM     14  C   LIG    1        1.131   1.489  -2.033  0.00  0.00    +0.070 A 
ATOM     15  C   LIG    1        0.207   0.511  -1.702  0.00  0.00    +0.030 A 
ENDBRANCH   3   6
ENDBRANCH   1   2
BRANCH   1  16
ATOM     16  N   LIG    1       -1.799  -3.842  -0.232  0.00  0.00    -0.590 N 
ATOM     17  C   LIG    1       -1.662  -4.543  -1.375  0.00  0.00    +0.570 C 
ATOM     18  O   LIG    1       -2.193  -4.151  -2.396  0.00  0.00    -0.510 OA
BRANCH  17  19
ATOM     19  C   LIG    1       -0.867  -5.787  -1.387  0.00  0.00    -0.160 A 
ATOM     20  C   LIG    1       -0.863  -6.628  -0.271  0.00  0.00    +0.100 A 
ATOM     21  C   LIG    1       -0.124  -7.791  -0.290  0.00  0.00    +0.020 A 
ATOM     22  C   LIG    1        0.625  -8.123  -1.408  0.00  0.00    +0.020 A 
ATOM     23  C   LIG    1        0.632  -7.293  -2.516  0.00  0.00    +0.010 A 
ATOM     24 CL   LIG    1        1.558  -9.587  -1.420  0.00  0.00    -0.040 Cl
ATOM     25  C   LIG    1       -0.110  -6.127  -2.513  0.00  0.00    +0.170 A 
ATOM     26  F   LIG    1       -0.103  -5.316  -3.594  0.00  0.00    -0.110 F 
ENDBRANCH  17  19
BRANCH  16  28
ATOM     27  C   LIG    1       -2.465  -4.863   1.888  0.00  0.00    +0.030 C 
ATOM     28  C   LIG    1       -1.292  -4.389   1.029  0.00  0.00    +0.260 C 
ENDBRANCH  16  28
ENDBRANCH   1  16
TORSDOF 5
