REMARK  Name = ZINCvU00000005Fj.0
REMARK                            x       y       z     vdW  Elec       q    Type
REMARK                         _______ _______ _______ _____ _____    ______ ____
ROOT
ATOM      1  C   LIG    1        4.860   4.200  -0.009  0.00  0.00    +0.110 A 
ATOM      2  C   LIG    1        6.031   3.471  -0.169  0.00  0.00    +0.030 A 
ATOM      3  C   LIG    1        7.238   4.127  -0.306  0.00  0.00    +0.010 A 
ATOM      4  C   LIG    1        7.283   5.513  -0.272  0.00  0.00    +0.110 A 
ATOM      5  C   LIG    1        6.114   6.241  -0.107  0.00  0.00    -0.060 A 
ATOM      6  C   LIG    1        4.905   5.587   0.025  0.00  0.00    +0.060 A 
ENDROOT
BRANCH   1   8
ATOM      7  C   LIG    1        2.515   4.074  -0.399  0.00  0.00    +0.560 C 
ATOM      8  N   LIG    1        3.634   3.535   0.125  0.00  0.00    -0.670 N 
ATOM      9  H   LIG    1        3.590   2.688   0.594  0.00  0.00    +0.410 HD
ATOM     10  O   LIG    1        2.554   5.175  -0.914  0.00  0.00    -0.500 OA
BRANCH   7  16
ATOM     11  C   LIG    1        0.077   3.886  -0.889  0.00  0.00    +0.190 A 
ATOM     12  C   LIG    1       -1.113   3.177  -0.834  0.00  0.00    -0.080 A 
ATOM     13  C   LIG    1       -1.148   1.927  -0.247  0.00  0.00    +0.080 A 
ATOM     14  C   LIG    1        0.002   1.373   0.291  0.00  0.00    -0.040 A 
ATOM     15  C   LIG    1        1.194   2.065   0.245  0.00  0.00    +0.080 A 
ATOM     16  C   LIG    1        1.243   3.329  -0.346  0.00  0.00    -0.180 A 
BRANCH  11  18
ATOM     17  C   LIG    1       -1.115   5.617  -1.996  0.00  0.00    +0.240 C 
ATOM     18  O   LIG    1        0.112   5.114  -1.465  0.00  0.00    -0.280 OA
ENDBRANCH  11  18
ENDBRANCH   7  16
ENDBRANCH   1   8
BRANCH   4  19
ATOM     19  O   LIG    1        8.473   6.157  -0.402  0.00  0.00    -0.280 OA
BRANCH  19  20
ATOM     20  C   LIG    1        8.460   7.579  -0.256  0.00  0.00    +0.180 C 
ATOM     21  C   LIG    1        8.547   7.941   1.228  0.00  0.00    +0.060 C 
BRANCH  20  22
ATOM     22  C   LIG    1        9.638   8.169  -0.987  0.00  0.00    +0.520 C 
ATOM     23  N   LIG    1        9.831   9.503  -0.988  0.00  0.00    -0.660 N 
ATOM     24  H   LIG    1        9.244  10.079  -0.472  0.00  0.00    +0.420 HD
ATOM     25  O   LIG    1       10.413   7.444  -1.574  0.00  0.00    -0.490 OA
BRANCH  23  26
ATOM     26  C   LIG    1       10.879  10.059  -1.733  0.00  0.00    +0.160 A 
ATOM     27  C   LIG    1       12.003   9.299  -2.025  0.00  0.00    +0.060 A 
ATOM     28  C   LIG    1       13.032   9.848  -2.765  0.00  0.00    +0.070 A 
ATOM     29  C   LIG    1       12.949  11.157  -3.205  0.00  0.00    -0.040 A 
ATOM     30  C   LIG    1       11.832  11.919  -2.910  0.00  0.00    +0.070 A 
ATOM     31 CL   LIG    1       14.248  11.844  -4.130  0.00  0.00    -0.050 Cl
ATOM     32  C   LIG    1       10.797  11.374  -2.175  0.00  0.00    -0.060 A 
ATOM     33 CL   LIG    1        9.396  12.330  -1.805  0.00  0.00    -0.050 Cl
ENDBRANCH  23  26
ENDBRANCH  20  22
ENDBRANCH  19  20
ENDBRANCH   4  19
TORSDOF 7
