REMARK  Name = ZINCtV00000L6jls.0
REMARK                            x       y       z     vdW  Elec       q    Type
REMARK                         _______ _______ _______ _____ _____    ______ ____
ROOT
ATOM      1  C   LIG    1       -2.421   0.854   1.416  0.00  0.00    +0.060 A 
ATOM      2  C   LIG    1       -3.433   0.958   2.310  0.00  0.00    -0.540 A 
ATOM      3  N   LIG    1       -4.440   0.181   1.882  0.00  0.00    -0.390 NA
ATOM      4  C   LIG    1       -4.078  -0.396   0.757  0.00  0.00    +0.270 A 
ATOM      5  O   LIG    1       -2.832   0.011   0.445  0.00  0.00    -0.180 OA
ENDROOT
BRANCH   4   6
ATOM      6  C   LIG    1       -4.899  -1.325  -0.032  0.00  0.00    -0.150 A 
ATOM      7  C   LIG    1       -4.518  -1.918  -1.197  0.00  0.00    +0.060 A 
ATOM      8  C   LIG    1       -5.467  -2.751  -1.750  0.00  0.00    +0.010 A 
ATOM      9  C   LIG    1       -6.609  -2.848  -1.062  0.00  0.00    -0.020 A 
ATOM     10  S   LIG    1       -6.526  -1.850   0.383  0.00  0.00    +0.220 S 
ENDBRANCH   4   6
BRANCH   2  11
ATOM     11  S   LIG    1       -3.430   1.940   3.773  0.00  0.00    +2.610 S 
ATOM     12  O   LIG    1       -2.066   2.133   4.123  0.00  0.00    -0.910 OA
ATOM     13  O   LIG    1       -4.382   1.356   4.651  0.00  0.00    -0.910 OA
BRANCH  11  14
ATOM     14  C   LIG    1       -4.061   3.527   3.338  0.00  0.00    -0.680 A 
ATOM     15  C   LIG    1       -3.198   4.523   2.920  0.00  0.00    +0.160 A 
ATOM     16  C   LIG    1       -3.693   5.766   2.573  0.00  0.00    -0.020 A 
ATOM     17  C   LIG    1       -5.052   6.017   2.656  0.00  0.00    +0.160 A 
ATOM     18  C   LIG    1       -5.915   5.020   3.080  0.00  0.00    -0.020 A 
ATOM     19  F   LIG    1       -5.536   7.233   2.323  0.00  0.00    -0.130 F 
ATOM     20  C   LIG    1       -5.418   3.776   3.420  0.00  0.00    +0.180 A 
ENDBRANCH  11  14
ENDBRANCH   2  11
BRANCH   1  21
ATOM     21  S   LIG    1       -0.862   1.671   1.500  0.00  0.00    +0.080 S 
BRANCH  21  23
ATOM     22  C   LIG    1       -0.753   1.593  -1.232  0.00  0.00    +0.060 C 
ATOM     23  C   LIG    1       -0.013   1.086   0.008  0.00  0.00    +0.050 C 
BRANCH  23  24
ATOM     24  C   LIG    1        1.401   1.607  -0.003  0.00  0.00    -0.080 A 
ATOM     25  C   LIG    1        1.635   2.970  -0.003  0.00  0.00    +0.020 A 
ATOM     26  C   LIG    1        2.932   3.448  -0.009  0.00  0.00    +0.020 A 
ATOM     27  C   LIG    1        3.995   2.564  -0.023  0.00  0.00    +0.020 A 
ATOM     28  C   LIG    1        3.761   1.202  -0.027  0.00  0.00    +0.010 A 
ATOM     29  C   LIG    1        2.464   0.724  -0.018  0.00  0.00    +0.030 A 
ENDBRANCH  23  24
ENDBRANCH  21  23
ENDBRANCH   1  21
TORSDOF 6
