REMARK  Name = ZINCpk00000ebrHA.0
REMARK                            x       y       z     vdW  Elec       q    Type
REMARK                         _______ _______ _______ _____ _____    ______ ____
ROOT
ATOM      1  O   LIG    1       -0.232   1.196  -0.087  0.00  0.00    -0.540 OA
ATOM      2  C   LIG    1       -1.289   1.790   0.018  0.00  0.00    +0.550 C 
ATOM      3  N   LIG    1       -2.442   1.100   0.121  0.00  0.00    -0.600 N 
ATOM      4  C   LIG    1       -2.431  -0.366   0.219  0.00  0.00    +0.280 C 
ATOM      5  C   LIG    1       -3.341  -0.944  -0.864  0.00  0.00    +0.020 C 
ATOM      6  C   LIG    1       -4.732  -0.316  -0.746  0.00  0.00    +0.020 C 
ATOM      7  C   LIG    1       -4.630   1.196  -0.954  0.00  0.00    +0.270 C 
ATOM      8  C   LIG    1       -3.734   1.798   0.133  0.00  0.00    +0.270 C 
ENDROOT
BRANCH   7   9
ATOM      9  N   LIG    1       -5.966   1.792  -0.872  0.00  0.00    -0.630 N 
ATOM     10  C   LIG    1       -6.628   2.551  -1.944  0.00  0.00    +0.250 C 
ATOM     11  C   LIG    1       -7.989   2.939  -1.335  0.00  0.00    +0.250 C 
ATOM     12  N   LIG    1       -7.950   2.358   0.015  0.00  0.00    -0.740 N 
ATOM     13  H   LIG    1       -8.660   2.418   0.673  0.00  0.00    +0.430 HD
ATOM     14  C   LIG    1       -6.781   1.727   0.189  0.00  0.00    +0.700 C 
ATOM     15  O   LIG    1       -6.485   1.151   1.218  0.00  0.00    -0.580 OA
ENDBRANCH   7   9
BRANCH   2  16
ATOM     16  C   LIG    1       -1.308   3.252   0.032  0.00  0.00    -0.090 C 
ATOM     17  C   LIG    1       -0.148   3.942   0.034  0.00  0.00    +0.130 C 
BRANCH  17  18
ATOM     18  C   LIG    1       -0.168   5.412   0.054  0.00  0.00    -0.070 A 
ATOM     19  C   LIG    1       -1.387   6.098   0.064  0.00  0.00    +0.050 A 
ATOM     20  C   LIG    1       -1.402   7.475   0.089  0.00  0.00    +0.040 A 
ATOM     21  C   LIG    1       -0.210   8.188   0.091  0.00  0.00    +0.050 A 
ATOM     22  O   LIG    1        0.037   9.529   0.108  0.00  0.00    -0.310 OA
ATOM     23  C   LIG    1        1.407   9.673  -0.312  0.00  0.00    +0.440 C 
ATOM     24  O   LIG    1        2.019   8.431   0.081  0.00  0.00    -0.310 OA
ATOM     25  C   LIG    1        1.010   7.510   0.075  0.00  0.00    +0.030 A 
ATOM     26  C   LIG    1        1.034   6.130   0.056  0.00  0.00    +0.060 A 
ENDBRANCH  17  18
ENDBRANCH   2  16
TORSDOF 3
