REMARK  Name = ZINCb70000003YTj.0
REMARK                            x       y       z     vdW  Elec       q    Type
REMARK                         _______ _______ _______ _____ _____    ______ ____
ROOT
ATOM      1  C   LIG    1       -1.473   3.509  -0.009  0.00  0.00    +0.060 C 
ATOM      2  C   LIG    1       -0.720   3.008   1.225  0.00  0.00    -0.110 C 
ATOM      3  C   LIG    1        0.713   3.531   1.185  0.00  0.00    +0.070 C 
ATOM      4  C   LIG    1        0.713   5.041   0.935  0.00  0.00    -0.330 C 
ATOM      5  S   LIG    1       -0.099   5.871   2.333  0.00  0.00    +2.420 S 
ATOM      6  C   LIG    1       -1.693   5.000   2.388  0.00  0.00    -0.330 C 
ATOM      7  O   LIG    1        0.622   5.574   3.521  0.00  0.00    -0.920 OA
ATOM      8  O   LIG    1       -0.334   7.228   1.982  0.00  0.00    -0.920 OA
ATOM      9  C   LIG    1       -1.435   3.495   2.482  0.00  0.00    +0.100 C 
ENDROOT
BRANCH   2  10
ATOM     10  C   LIG    1       -0.699   1.479   1.216  0.00  0.00    +0.280 C 
BRANCH  10  11
ATOM     11  N   LIG    1       -0.012   1.005   0.008  0.00  0.00    -0.640 N 
ATOM     12  H   LIG    1       -0.500   1.339  -0.810  0.00  0.00    +0.430 HD
ATOM     13  H   LIG    1        0.935   1.354   0.000  0.00  0.00    +0.430 HD
ATOM     14  H   LIG    1        0.002  -0.004   0.002  0.00  0.00    +0.440 HD
ENDBRANCH  10  11
ENDBRANCH   2  10
TORSDOF 2
