REMARK  Name = ZINCpe000000ZDzJ.0
REMARK                            x       y       z     vdW  Elec       q    Type
REMARK                         _______ _______ _______ _____ _____    ______ ____
ROOT
ATOM      1  C   LIG    1       -4.148   5.341  -1.548  0.00  0.00    +0.250 C 
ENDROOT
BRANCH   1   2
ATOM      2  C   LIG    1       -5.349   4.650  -0.957  0.00  0.00    +0.520 C 
ATOM      3  N   LIG    1       -6.577   4.887  -1.458  0.00  0.00    -0.610 N 
ATOM      4  C   LIG    1       -7.840   4.361  -0.919  0.00  0.00    +0.250 C 
ATOM      5  C   LIG    1       -8.976   4.874  -1.829  0.00  0.00    +0.040 C 
ATOM      6  C   LIG    1       -8.240   5.187  -3.158  0.00  0.00    +0.040 C 
ATOM      7  C   LIG    1       -6.877   5.713  -2.643  0.00  0.00    +0.240 C 
ATOM      8  O   LIG    1       -5.211   3.881  -0.029  0.00  0.00    -0.530 OA
ENDBRANCH   1   2
BRANCH   1  10
ATOM      9  C   LIG    1       -2.590   3.539  -2.061  0.00  0.00    +0.510 C 
ATOM     10  N   LIG    1       -2.943   4.560  -1.256  0.00  0.00    -0.700 N 
ATOM     11  H   LIG    1       -2.399   4.779  -0.483  0.00  0.00    +0.410 HD
ATOM     12  O   LIG    1       -3.270   3.266  -3.027  0.00  0.00    -0.520 OA
BRANCH   9  17
ATOM     13  O   LIG    1       -0.542  -0.232  -3.535  0.00  0.00    -0.520 OA
ATOM     14  C   LIG    1       -0.390   0.866  -3.035  0.00  0.00    +0.660 C 
ATOM     15  N   LIG    1       -1.437   1.445  -2.438  0.00  0.00    -0.710 N 
ATOM     16  H   LIG    1       -2.291   0.985  -2.453  0.00  0.00    +0.420 HD
ATOM     17  C   LIG    1       -1.351   2.736  -1.760  0.00  0.00    +0.230 C 
ATOM     18  C   LIG    1       -0.118   3.500  -2.252  0.00  0.00    +0.040 C 
ATOM     19  C   LIG    1        1.087   2.550  -2.211  0.00  0.00    +0.260 C 
ATOM     20  O   LIG    1        0.820   1.442  -3.114  0.00  0.00    -0.340 OA
ENDBRANCH   9  17
ENDBRANCH   1  10
BRANCH   1  21
ATOM     21  C   LIG    1       -4.011   6.737  -0.938  0.00  0.00    +0.110 C 
BRANCH  21  22
ATOM     22  C   LIG    1       -2.890   7.477  -1.622  0.00  0.00    -0.090 A 
ATOM     23  C   LIG    1       -1.602   7.393  -1.126  0.00  0.00    +0.010 A 
ATOM     24  C   LIG    1       -0.574   8.068  -1.756  0.00  0.00    +0.000 A 
ATOM     25  C   LIG    1       -0.834   8.834  -2.877  0.00  0.00    +0.000 A 
ATOM     26  C   LIG    1       -2.122   8.922  -3.369  0.00  0.00    +0.010 A 
ATOM     27  C   LIG    1       -3.151   8.244  -2.742  0.00  0.00    +0.010 A 
ENDBRANCH  21  22
ENDBRANCH   1  21
TORSDOF 5
