REMARK  Name = ZINCpe00000zrehw.0
REMARK                            x       y       z     vdW  Elec       q    Type
REMARK                         _______ _______ _______ _____ _____    ______ ____
ROOT
ATOM      1  C   LIG    1        3.300   0.511  -2.666  0.00  0.00    +0.260 C 
ATOM      2  C   LIG    1        4.019  -0.465  -1.712  0.00  0.00    +0.050 C 
ATOM      3  C   LIG    1        5.495   0.004  -1.730  0.00  0.00    +0.000 C 
ATOM      4  C   LIG    1        5.362   1.547  -1.784  0.00  0.00    +0.000 C 
ATOM      5  C   LIG    1        4.154   1.790  -2.711  0.00  0.00    +0.150 C 
ENDROOT
BRANCH   1   8
ATOM      6  O   LIG    1        1.209   1.268  -4.196  0.00  0.00    -0.500 OA
ATOM      7  C   LIG    1        0.997   1.236  -2.998  0.00  0.00    +0.600 C 
ATOM      8  N   LIG    1        1.962   0.818  -2.154  0.00  0.00    -0.730 N 
ATOM      9  H   LIG    1        1.770   0.721  -1.208  0.00  0.00    +0.390 HD
BRANCH   7  10
ATOM     10  C   LIG    1       -0.308   1.652  -2.472  0.00  0.00    -0.080 A 
ATOM     11  C   LIG    1       -1.418   1.991  -3.198  0.00  0.00    +0.260 A 
ATOM     12  N   LIG    1       -2.390   2.306  -2.338  0.00  0.00    -0.480 NA
ATOM     13  C   LIG    1       -1.952   2.183  -1.118  0.00  0.00    +0.200 A 
ATOM     14  C   LIG    1       -2.700   2.430   0.172  0.00  0.00    +0.360 C 
ATOM     15  O   LIG    1       -1.941   1.844   1.239  0.00  0.00    -0.370 OA
ATOM     16  C   LIG    1       -0.555   2.207   1.237  0.00  0.00    +0.250 C 
ATOM     17  C   LIG    1        0.148   1.544   0.045  0.00  0.00    +0.260 C 
ATOM     18  N   LIG    1       -0.662   1.780  -1.152  0.00  0.00    -0.440 N 
ENDBRANCH   7  10
ENDBRANCH   1   8
BRANCH   5  19
ATOM     19  O   LIG    1        4.603   2.032  -4.046  0.00  0.00    -0.550 OA
ATOM     20  H   LIG    1        5.147   2.825  -4.141  0.00  0.00    +0.380 HD
ENDBRANCH   5  19
BRANCH   3  21
ATOM     21  C   LIG    1        6.218  -0.433  -0.454  0.00  0.00    +0.330 C 
BRANCH  21  22
ATOM     22  N   LIG    1        7.608   0.030  -0.498  0.00  0.00    -0.360 N 
ATOM     23  C   LIG    1        8.224   0.784   0.438  0.00  0.00    +0.250 A 
ATOM     24  C   LIG    1        9.496   0.993   0.026  0.00  0.00    -0.190 A 
ATOM     25  C   LIG    1        9.663   0.344  -1.203  0.00  0.00    +0.250 A 
ATOM     26 CL   LIG    1       10.707   1.905   0.872  0.00  0.00    -0.040 Cl
ATOM     27  N   LIG    1        8.534  -0.237  -1.515  0.00  0.00    -0.280 NA
ENDBRANCH  21  22
ENDBRANCH   3  21
TORSDOF 5
