REMARK  Name = ZINCqH0000031OEg.0
REMARK                            x       y       z     vdW  Elec       q    Type
REMARK                         _______ _______ _______ _____ _____    ______ ____
ROOT
ATOM      1  C   LIG    1        2.418  -0.364  -0.021  0.00  0.00    +0.270 C 
ENDROOT
BRANCH   1   7
ATOM      2  C   LIG    1        6.989  -0.269   1.501  0.00  0.00    +0.650 C 
ATOM      3  N   LIG    1        5.904  -1.041   1.293  0.00  0.00    -0.600 N 
ATOM      4  C   LIG    1        6.043  -2.489   1.088  0.00  0.00    +0.270 C 
ATOM      5  C   LIG    1        5.334  -2.873  -0.214  0.00  0.00    +0.020 C 
ATOM      6  C   LIG    1        3.886  -2.382  -0.166  0.00  0.00    +0.030 C 
ATOM      7  C   LIG    1        3.866  -0.857  -0.037  0.00  0.00    -0.030 C 
ATOM      8  C   LIG    1        4.559  -0.450   1.268  0.00  0.00    +0.300 C 
ATOM      9  O   LIG    1        6.861   0.927   1.670  0.00  0.00    -0.570 OA
BRANCH   2  10
ATOM     10  O   LIG    1        8.216  -0.824   1.522  0.00  0.00    -0.360 OA
BRANCH  10  12
ATOM     11  C   LIG    1        9.175   0.755   3.108  0.00  0.00    +0.040 C 
ATOM     12  C   LIG    1        9.339   0.067   1.751  0.00  0.00    +0.140 C 
ATOM     13  C   LIG    1        9.384   1.125   0.646  0.00  0.00    +0.040 C 
ATOM     14  C   LIG    1       10.640  -0.738   1.741  0.00  0.00    +0.080 C 
ENDBRANCH  10  12
ENDBRANCH   2  10
ENDBRANCH   1   7
BRANCH   1  15
ATOM     15  N   LIG    1        2.401   1.101  -0.014  0.00  0.00    -0.750 N 
ATOM     16  H   LIG    1        3.235   1.596  -0.019  0.00  0.00    +0.400 HD
BRANCH  15  17
ATOM     17  C   LIG    1        1.183   1.785   0.000  0.00  0.00    +0.220 A 
ATOM     18  C   LIG    1       -0.013   1.076   0.008  0.00  0.00    -0.040 A 
ATOM     19  C   LIG    1       -1.220   1.748   0.017  0.00  0.00    +0.060 A 
ATOM     20  C   LIG    1       -1.247   3.128   0.030  0.00  0.00    -0.010 A 
ATOM     21  C   LIG    1       -0.052   3.849   0.022  0.00  0.00    +0.020 A 
ATOM     22  C   LIG    1        1.166   3.171   0.007  0.00  0.00    +0.000 A 
BRANCH  21  23
ATOM     23  C   LIG    1       -0.078   5.328   0.029  0.00  0.00    +0.210 A 
ATOM     24  N   LIG    1        0.965   6.125   0.023  0.00  0.00    -0.280 NA
ATOM     25  N   LIG    1        0.564   7.347   0.032  0.00  0.00    -0.290 NA
ATOM     26  C   LIG    1       -0.739   7.379   0.044  0.00  0.00    +0.420 A 
ATOM     27  O   LIG    1       -1.177   6.108   0.038  0.00  0.00    -0.220 OA
ENDBRANCH  21  23
ENDBRANCH  15  17
ENDBRANCH   1  15
TORSDOF 6
