REMARK  Name = ZINCpk00000eamFg.0
REMARK                            x       y       z     vdW  Elec       q    Type
REMARK                         _______ _______ _______ _____ _____    ______ ____
ROOT
ATOM      1  C   LIG    1       -2.650   1.582   2.448  0.00  0.00    +0.150 A 
ATOM      2  C   LIG    1       -3.976   1.244   2.635  0.00  0.00    +0.040 A 
ATOM      3  C   LIG    1       -4.624   0.427   1.704  0.00  0.00    -0.040 A 
ATOM      4  C   LIG    1       -3.929  -0.040   0.586  0.00  0.00    +0.000 A 
ATOM      5  C   LIG    1       -2.607   0.305   0.403  0.00  0.00    +0.060 A 
ATOM      6  C   LIG    1       -1.964   1.117   1.327  0.00  0.00    +0.130 A 
ENDROOT
BRANCH   4   7
ATOM      7  N   LIG    1       -4.611  -0.905  -0.402  0.00  0.00    +0.030 N 
ATOM      8  O   LIG    1       -5.739  -1.309  -0.182  0.00  0.00    -0.140 OA
ATOM      9  O   LIG    1       -4.045  -1.214  -1.435  0.00  0.00    -0.150 OA
ENDBRANCH   4   7
BRANCH   1  11
ATOM     10  C   LIG    1       -2.779   2.812   4.480  0.00  0.00    +0.250 C 
ATOM     11  O   LIG    1       -2.015   2.372   3.355  0.00  0.00    -0.290 OA
ENDBRANCH   1  11
BRANCH   3  12
ATOM     12  C   LIG    1       -6.038   0.059   1.902  0.00  0.00    +0.510 C 
ATOM     13  O   LIG    1       -6.854   0.289   1.031  0.00  0.00    -0.450 OA
BRANCH  12  14
ATOM     14  O   LIG    1       -6.426  -0.534   3.048  0.00  0.00    -0.320 OA
BRANCH  14  15
ATOM     15  C   LIG    1       -7.834  -0.868   3.174  0.00  0.00    +0.280 C 
BRANCH  15  16
ATOM     16  C   LIG    1       -8.079  -1.518   4.511  0.00  0.00    +0.530 C 
ATOM     17  N   LIG    1       -9.321  -1.916   4.850  0.00  0.00    -0.730 N 
ATOM     18  H   LIG    1      -10.058  -1.784   4.233  0.00  0.00    +0.410 HD
ATOM     19  O   LIG    1       -7.157  -1.683   5.282  0.00  0.00    -0.500 OA
BRANCH  17  20
ATOM     20  C   LIG    1       -9.559  -2.548   6.150  0.00  0.00    +0.320 C 
BRANCH  20  21
ATOM     21  C   LIG    1      -11.042  -2.900   6.282  0.00  0.00    +0.450 C 
ATOM     22  F   LIG    1      -11.809  -1.734   6.183  0.00  0.00    -0.180 F 
ATOM     23  F   LIG    1      -11.269  -3.504   7.524  0.00  0.00    -0.170 F 
ATOM     24  F   LIG    1      -11.404  -3.785   5.260  0.00  0.00    -0.180 F 
ENDBRANCH  20  21
ENDBRANCH  17  20
ENDBRANCH  15  16
ENDBRANCH  14  15
ENDBRANCH  12  14
ENDBRANCH   3  12
BRANCH   6  25
ATOM     25  O   LIG    1       -0.662   1.454   1.142  0.00  0.00    -0.290 OA
ATOM     26  C   LIG    1       -0.017   0.938  -0.025  0.00  0.00    +0.260 C 
ENDBRANCH   6  25
TORSDOF 9
