REMARK  Name = ZINCah0000006laW.0
REMARK                            x       y       z     vdW  Elec       q    Type
REMARK                         _______ _______ _______ _____ _____    ______ ____
ROOT
ATOM      1  C   LIG    1       -0.013   1.086   0.008  0.00  0.00    +0.120 C 
ATOM      2  C   LIG    1       -0.718   1.572   1.248  0.00  0.00    -0.260 A 
ATOM      3  C   LIG    1       -2.042   1.824   1.364  0.00  0.00    +0.270 A 
ATOM      4  N   LIG    1       -2.276   2.236   2.628  0.00  0.00    -0.440 N 
ATOM      5  N   LIG    1       -1.054   2.248   3.313  0.00  0.00    -0.340 NA
ATOM      6  C   LIG    1       -0.117   1.849   2.486  0.00  0.00    +0.360 A 
ENDROOT
BRANCH   4   7
ATOM      7  C   LIG    1       -3.578   2.612   3.183  0.00  0.00    +0.670 C 
ATOM      8  F   LIG    1       -4.451   1.521   3.105  0.00  0.00    -0.180 F 
ATOM      9  F   LIG    1       -4.104   3.683   2.454  0.00  0.00    -0.180 F 
ENDBRANCH   4   7
BRANCH   6  10
ATOM     10  N   LIG    1        1.245   1.722   2.786  0.00  0.00    -0.840 N 
ATOM     11  H   LIG    1        1.568   1.938   3.675  0.00  0.00    +0.410 HD
ATOM     12  H   LIG    1        1.865   1.418   2.105  0.00  0.00    +0.410 HD
ENDBRANCH   6  10
TORSDOF 2
