REMARK  Name = ZINCrH000004tlNR.0
REMARK                            x       y       z     vdW  Elec       q    Type
REMARK                         _______ _______ _______ _____ _____    ______ ____
ROOT
ATOM      1  C   LIG    1       -0.944   3.685   3.728  0.00  0.00    +0.380 A 
ATOM      2  N   LIG    1       -1.625   4.096   4.770  0.00  0.00    -0.540 NA
ATOM      3  C   LIG    1       -2.000   3.243   5.752  0.00  0.00    +0.170 A 
ATOM      4  C   LIG    1       -2.722   3.682   6.865  0.00  0.00    +0.020 A 
ATOM      5  C   LIG    1       -3.084   2.782   7.841  0.00  0.00    +0.060 A 
ATOM      6  C   LIG    1       -2.741   1.440   7.734  0.00  0.00    -0.010 A 
ATOM      7  C   LIG    1       -2.030   0.983   6.647  0.00  0.00    +0.100 A 
ATOM      8  C   LIG    1       -1.652   1.877   5.647  0.00  0.00    -0.200 A 
ATOM      9  C   LIG    1       -0.893   1.443   4.466  0.00  0.00    +0.550 A 
ATOM     10  O   LIG    1       -0.566   0.280   4.319  0.00  0.00    -0.510 OA
ATOM     11  N   LIG    1       -0.573   2.384   3.547  0.00  0.00    -0.530 N 
ENDROOT
BRANCH   1  12
ATOM     12  S   LIG    1       -0.491   4.866   2.501  0.00  0.00    +0.050 S 
BRANCH  12  13
ATOM     13  C   LIG    1       -1.210   6.362   3.225  0.00  0.00    +0.140 C 
BRANCH  13  17
ATOM     14  C   LIG    1       -0.443   9.697   0.660  0.00  0.00    -0.020 A 
ATOM     15  C   LIG    1       -1.603   8.937   0.494  0.00  0.00    +0.070 A 
ATOM     16  C   LIG    1       -1.843   7.862   1.325  0.00  0.00    +0.040 A 
ATOM     17  C   LIG    1       -0.939   7.537   2.320  0.00  0.00    -0.050 A 
ATOM     18  C   LIG    1        0.209   8.289   2.493  0.00  0.00    +0.040 A 
ATOM     19  C   LIG    1        0.465   9.363   1.666  0.00  0.00    +0.070 A 
BRANCH  14  21
ATOM     20  N   LIG    1        0.016  11.700  -0.879  0.00  0.00    -0.410 NA
ATOM     21  C   LIG    1       -0.187  10.814  -0.199  0.00  0.00    +0.250 C 
ENDBRANCH  14  21
ENDBRANCH  13  17
ENDBRANCH  12  13
ENDBRANCH   1  12
BRANCH  11  22
ATOM     22  C   LIG    1        0.184   2.003   2.352  0.00  0.00    +0.330 C 
BRANCH  22  23
ATOM     23  C   LIG    1       -0.788   1.610   1.237  0.00  0.00    +0.140 C 
ATOM     24  C   LIG    1       -0.013   1.086   0.008  0.00  0.00    +0.010 C 
ATOM     25  C   LIG    1       -0.811   1.623  -1.201  0.00  0.00    +0.010 C 
ATOM     26  C   LIG    1       -1.978   2.408  -0.561  0.00  0.00    +0.200 C 
ATOM     27  O   LIG    1       -1.501   2.772   0.753  0.00  0.00    -0.350 OA
ENDBRANCH  22  23
ENDBRANCH  11  22
TORSDOF 6
