REMARK  Name = ZINCvU0000000I9r.0
REMARK                            x       y       z     vdW  Elec       q    Type
REMARK                         _______ _______ _______ _____ _____    ______ ____
ROOT
ATOM      1  C   LIG    1        4.408   4.625  -2.679  0.00  0.00    -0.030 A 
ATOM      2  C   LIG    1        5.038   5.210  -3.696  0.00  0.00    -0.020 A 
ATOM      3  S   LIG    1        4.255   4.848  -5.222  0.00  0.00    +0.190 S 
ATOM      4  C   LIG    1        3.025   3.865  -4.442  0.00  0.00    +0.120 A 
ATOM      5  N   LIG    1        1.988   3.187  -4.950  0.00  0.00    -0.530 NA
ATOM      6  C   LIG    1        1.178   2.505  -4.173  0.00  0.00    +0.560 A 
ATOM      7  N   LIG    1        1.344   2.447  -2.864  0.00  0.00    -0.580 NA
ATOM      8  C   LIG    1        2.339   3.089  -2.270  0.00  0.00    +0.500 A 
ATOM      9  C   LIG    1        3.242   3.840  -3.063  0.00  0.00    -0.220 A 
ENDROOT
BRANCH   1  14
ATOM     10 CL   LIG    1        6.214   5.179   3.003  0.00  0.00    -0.060 Cl
ATOM     11  C   LIG    1        5.690   5.018   1.356  0.00  0.00    -0.030 A 
ATOM     12  C   LIG    1        6.553   4.500   0.405  0.00  0.00    +0.040 A 
ATOM     13  C   LIG    1        6.142   4.370  -0.906  0.00  0.00    +0.050 A 
ATOM     14  C   LIG    1        4.855   4.762  -1.272  0.00  0.00    -0.030 A 
ATOM     15  C   LIG    1        3.992   5.288  -0.312  0.00  0.00    +0.030 A 
ATOM     16  C   LIG    1        4.411   5.409   0.997  0.00  0.00    +0.030 A 
ENDBRANCH   1  14
BRANCH   8  17
ATOM     17  N   LIG    1        2.498   3.023  -0.897  0.00  0.00    -0.700 N 
ATOM     18  H   LIG    1        3.279   3.418  -0.480  0.00  0.00    +0.410 HD
BRANCH  17  19
ATOM     19  C   LIG    1        1.486   2.356  -0.074  0.00  0.00    +0.290 C 
BRANCH  19  20
ATOM     20  C   LIG    1        1.790   0.882  -0.001  0.00  0.00    -0.070 A 
ATOM     21  C   LIG    1        0.762  -0.040  -0.063  0.00  0.00    +0.040 A 
ATOM     22  C   LIG    1        1.041  -1.392   0.004  0.00  0.00    +0.000 A 
ATOM     23  C   LIG    1        2.349  -1.823   0.132  0.00  0.00    +0.000 A 
ATOM     24  C   LIG    1        3.377  -0.901   0.194  0.00  0.00    +0.000 A 
ATOM     25  C   LIG    1        3.098   0.451   0.126  0.00  0.00    +0.000 A 
ENDBRANCH  19  20
BRANCH  19  26
ATOM     26  C   LIG    1        1.502   2.950   1.335  0.00  0.00    +0.180 C 
BRANCH  26  27
ATOM     27  N   LIG    1        0.429   2.345   2.135  0.00  0.00    -0.520 NA
ATOM     28  C   LIG    1       -0.888   2.843   1.711  0.00  0.00    +0.140 C 
ATOM     29  C   LIG    1       -1.978   2.143   2.527  0.00  0.00    +0.220 C 
ATOM     30  O   LIG    1       -1.739   2.363   3.920  0.00  0.00    -0.380 OA
ATOM     31  C   LIG    1       -0.466   1.890   4.367  0.00  0.00    +0.220 C 
ATOM     32  C   LIG    1        0.640   2.587   3.569  0.00  0.00    +0.150 C 
ENDBRANCH  26  27
ENDBRANCH  19  26
ENDBRANCH  17  19
ENDBRANCH   8  17
TORSDOF 6
