REMARK  Name = ZINCqH0000002nn2.0
REMARK                            x       y       z     vdW  Elec       q    Type
REMARK                         _______ _______ _______ _____ _____    ______ ____
ROOT
ATOM      1  N   LIG    1       -0.018   1.465   0.010  0.00  0.00    -0.660 NA
ATOM      2  H   LIG    1        0.919   1.839   0.003  0.00  0.00    +0.350 HD
ENDROOT
BRANCH   1   3
ATOM      3  C   LIG    1        0.002  -0.004   0.002  0.00  0.00    +0.130 C 
ATOM      4  C   LIG    1        0.630  -0.498  -1.303  0.00  0.00    +0.030 C 
BRANCH   3   5
ATOM      5  C   LIG    1       -1.407  -0.526   0.111  0.00  0.00    +0.480 C 
ATOM      6  O   LIG    1       -1.724  -1.537  -0.471  0.00  0.00    -0.510 OA
BRANCH   5   7
ATOM      7  O   LIG    1       -2.311   0.132   0.854  0.00  0.00    -0.340 OA
BRANCH   7   8
ATOM      8  C   LIG    1       -3.650  -0.429   0.913  0.00  0.00    +0.200 C 
ATOM      9  C   LIG    1       -4.532   0.451   1.800  0.00  0.00    +0.070 C 
ENDBRANCH   7   8
ENDBRANCH   5   7
ENDBRANCH   3   5
BRANCH   3  10
ATOM     10  C   LIG    1        0.826  -0.509   1.188  0.00  0.00    +0.050 C 
BRANCH  10  11
ATOM     11  C   LIG    1        0.847  -2.039   1.180  0.00  0.00    +0.000 C 
BRANCH  11  12
ATOM     12  C   LIG    1        1.671  -2.545   2.366  0.00  0.00    +0.000 C 
BRANCH  12  13
ATOM     13  C   LIG    1        1.691  -4.074   2.357  0.00  0.00    +0.000 C 
BRANCH  13  15
ATOM     14  C   LIG    1        2.536  -6.110   3.535  0.00  0.00    +0.000 C 
ATOM     15  C   LIG    1        2.515  -4.580   3.543  0.00  0.00    -0.010 C 
ENDBRANCH  13  15
ENDBRANCH  12  13
ENDBRANCH  11  12
ENDBRANCH  10  11
ENDBRANCH   3  10
ENDBRANCH   1   3
BRANCH   1  16
ATOM     16  C   LIG    1       -0.802   1.987  -1.117  0.00  0.00    +0.190 C 
BRANCH  16  17
ATOM     17  C   LIG    1       -0.799   3.516  -1.075  0.00  0.00    -0.010 C 
ATOM     18  C   LIG    1       -1.905   4.114  -0.186  0.00  0.00    +0.300 C 
ATOM     19  N   LIG    1       -2.096   5.105  -1.266  0.00  0.00    -0.640 N 
ATOM     20  C   LIG    1       -2.586   6.359  -1.320  0.00  0.00    +0.670 C 
ATOM     21  O   LIG    1       -2.619   6.953  -2.380  0.00  0.00    -0.570 OA
ATOM     22  C   LIG    1       -1.533   4.170  -2.260  0.00  0.00    +0.320 C 
BRANCH  20  23
ATOM     23  O   LIG    1       -3.037   6.955  -0.200  0.00  0.00    -0.360 OA
BRANCH  23  24
ATOM     24  C   LIG    1       -3.550   8.306  -0.333  0.00  0.00    +0.140 C 
ATOM     25  C   LIG    1       -2.446   9.220  -0.869  0.00  0.00    +0.040 C 
ATOM     26  C   LIG    1       -4.014   8.813   1.034  0.00  0.00    +0.080 C 
ATOM     27  C   LIG    1       -4.731   8.310  -1.306  0.00  0.00    +0.040 C 
ENDBRANCH  23  24
ENDBRANCH  20  23
ENDBRANCH  16  17
ENDBRANCH   1  16
TORSDOF 13
