REMARK  Name = ZINCrH000004sy7W.0
REMARK                            x       y       z     vdW  Elec       q    Type
REMARK                         _______ _______ _______ _____ _____    ______ ____
ROOT
ATOM      1  C   LIG    1        0.399   3.408   7.425  0.00  0.00    +0.160 C 
ATOM      2  C   LIG    1        0.725   2.057   8.008  0.00  0.00    +0.200 A 
ATOM      3  N   LIG    1        0.182   1.685   9.146  0.00  0.00    -0.460 NA
ATOM      4  C   LIG    1        0.456   0.495   9.680  0.00  0.00    +0.290 A 
ATOM      5  C   LIG    1        0.018  -0.138  10.863  0.00  0.00    -0.190 A 
ATOM      6  C   LIG    1       -0.850   0.243  11.896  0.00  0.00    +0.110 A 
ATOM      7  C   LIG    1       -1.081  -0.608  12.935  0.00  0.00    -0.040 A 
ATOM      8  C   LIG    1       -0.465  -1.857  12.987  0.00  0.00    +0.070 A 
ATOM      9  C   LIG    1        0.383  -2.262  12.004  0.00  0.00    +0.000 A 
ATOM     10  C   LIG    1        0.648  -1.410  10.912  0.00  0.00    +0.140 A 
ATOM     11  N   LIG    1        1.412  -1.532   9.832  0.00  0.00    -0.340 NA
ATOM     12  N   LIG    1        1.310  -0.370   9.057  0.00  0.00    -0.260 N 
ATOM     13  C   LIG    1        1.885  -0.015   7.873  0.00  0.00    +0.190 A 
ATOM     14  C   LIG    1        2.825  -0.960   7.169  0.00  0.00    +0.170 C 
ATOM     15  C   LIG    1        1.606   1.201   7.338  0.00  0.00    -0.170 A 
ENDROOT
BRANCH  15  16
ATOM     16  C   LIG    1        2.233   1.622   6.034  0.00  0.00    +0.140 C 
BRANCH  16  17
ATOM     17  C   LIG    1        1.279   1.298   4.882  0.00  0.00    +0.060 C 
BRANCH  17  18
ATOM     18  C   LIG    1        1.906   1.719   3.578  0.00  0.00    +0.510 C 
ATOM     19  N   LIG    1        1.243   1.530   2.420  0.00  0.00    -0.670 N 
ATOM     20  H   LIG    1        0.337   1.184   2.430  0.00  0.00    +0.420 HD
ATOM     21  O   LIG    1        3.007   2.228   3.571  0.00  0.00    -0.520 OA
BRANCH  19  22
ATOM     22  C   LIG    1        1.863   1.835   1.200  0.00  0.00    +0.120 A 
ATOM     23  C   LIG    1        2.740   2.906   1.114  0.00  0.00    +0.030 A 
ATOM     24  C   LIG    1        3.345   3.208  -0.091  0.00  0.00    +0.020 A 
ATOM     25  C   LIG    1        3.083   2.441  -1.211  0.00  0.00    +0.010 A 
ATOM     26  C   LIG    1        2.215   1.368  -1.132  0.00  0.00    +0.000 A 
ATOM     27  C   LIG    1        1.603   1.059   0.072  0.00  0.00    +0.080 A 
BRANCH  27  28
ATOM     28  O   LIG    1        0.749   0.005   0.152  0.00  0.00    -0.500 OA
ATOM     29  H   LIG    1        1.176  -0.832   0.381  0.00  0.00    +0.390 HD
ENDBRANCH  27  28
ENDBRANCH  19  22
ENDBRANCH  17  18
ENDBRANCH  16  17
ENDBRANCH  15  16
TORSDOF 5
