REMARK  Name = ZINCpe00000VRWES.0
REMARK                            x       y       z     vdW  Elec       q    Type
REMARK                         _______ _______ _______ _____ _____    ______ ____
ROOT
ATOM      1  N   LIG    1       -0.367   0.529   2.473  0.00  0.00    -0.510 NA
ENDROOT
BRANCH   1   2
ATOM      2  C   LIG    1       -0.637   1.455   1.366  0.00  0.00    +0.210 C 
ATOM      3  C   LIG    1       -1.838   0.945   0.528  0.00  0.00    -0.290 C 
ATOM      4  S   LIG    1       -2.354   2.443  -0.393  0.00  0.00    +2.390 S 
ATOM      5  C   LIG    1       -1.646   3.671   0.763  0.00  0.00    -0.340 C 
ATOM      6  O   LIG    1       -3.771   2.542  -0.376  0.00  0.00    -0.930 OA
ATOM      7  O   LIG    1       -1.653   2.502  -1.628  0.00  0.00    -0.930 OA
ATOM      8  C   LIG    1       -1.046   2.839   1.914  0.00  0.00    +0.170 C 
BRANCH   8   9
ATOM      9  O   LIG    1        0.106   3.504   2.437  0.00  0.00    -0.520 OA
ATOM     10  H   LIG    1       -0.065   4.405   2.743  0.00  0.00    +0.380 HD
ENDBRANCH   8   9
ENDBRANCH   1   2
BRANCH   1  11
ATOM     11  C   LIG    1        1.042   0.596   2.884  0.00  0.00    +0.330 C 
BRANCH  11  13
ATOM     12  C   LIG    1        2.543   0.437   0.820  0.00  0.00    -0.230 A 
ATOM     13  C   LIG    1        1.894  -0.132   1.877  0.00  0.00    +0.100 A 
ATOM     14  O   LIG    1        2.139  -1.445   1.864  0.00  0.00    -0.160 OA
ATOM     15  C   LIG    1        2.935  -1.774   0.835  0.00  0.00    +0.180 A 
ATOM     16  C   LIG    1        3.235  -0.667   0.139  0.00  0.00    -0.010 A 
BRANCH  12  17
ATOM     17  C   LIG    1        2.550   1.860   0.441  0.00  0.00    +0.520 C 
ATOM     18  O   LIG    1        1.970   2.676   1.131  0.00  0.00    -0.470 OA
BRANCH  17  20
ATOM     19  C   LIG    1        3.165   3.676  -0.982  0.00  0.00    +0.260 C 
ATOM     20  O   LIG    1        3.200   2.258  -0.670  0.00  0.00    -0.350 OA
ENDBRANCH  17  20
ENDBRANCH  12  17
ENDBRANCH  11  13
ENDBRANCH   1  11
BRANCH   1  21
ATOM     21  C   LIG    1       -1.260   0.792   3.609  0.00  0.00    +0.300 C 
BRANCH  21  22
ATOM     22  C   LIG    1       -2.672   0.423   3.234  0.00  0.00    -0.030 A 
ATOM     23  C   LIG    1       -3.202  -0.813   3.279  0.00  0.00    -0.020 A 
ATOM     24  C   LIG    1       -4.542  -0.700   2.844  0.00  0.00    -0.070 A 
ATOM     25  C   LIG    1       -4.752   0.598   2.560  0.00  0.00    +0.180 A 
ATOM     26  O   LIG    1       -3.618   1.274   2.803  0.00  0.00    -0.190 OA
ENDBRANCH  21  22
ENDBRANCH   1  21
TORSDOF 8
