REMARK  Name = ZINCqH0000037Wng.0
REMARK                            x       y       z     vdW  Elec       q    Type
REMARK                         _______ _______ _______ _____ _____    ______ ____
ROOT
ATOM      1  C   LIG    1       -0.863  -0.590   1.568  0.00  0.00    +0.500 C 
ATOM      2  N   LIG    1       -0.239  -1.779   1.682  0.00  0.00    -0.660 N 
ATOM      3  H   LIG    1        0.065  -2.245   0.887  0.00  0.00    +0.420 HD
ATOM      4  O   LIG    1       -1.281  -0.027   2.558  0.00  0.00    -0.480 OA
ENDROOT
BRANCH   1  11
ATOM      5  C   LIG    1        2.218   5.178   0.776  0.00  0.00    +0.090 C 
ATOM      6  C   LIG    1        1.105   4.166   0.678  0.00  0.00    -0.110 A 
ATOM      7  C   LIG    1        1.363   2.893   0.202  0.00  0.00    +0.060 A 
ATOM      8  C   LIG    1        0.344   1.971   0.112  0.00  0.00    -0.170 A 
ATOM      9  C   LIG    1       -0.951   2.304   0.489  0.00  0.00    +0.110 A 
ATOM     10  O   LIG    1       -1.802   1.257   0.310  0.00  0.00    -0.270 OA
ATOM     11  C   LIG    1       -1.042   0.040   0.210  0.00  0.00    +0.220 C 
ATOM     12  C   LIG    1       -1.202   3.587   0.971  0.00  0.00    +0.000 A 
ATOM     13  C   LIG    1        0.314   0.528  -0.351  0.00  0.00    +0.100 C 
ATOM     14  C   LIG    1       -0.179   4.507   1.063  0.00  0.00    -0.050 A 
ATOM     15  C   LIG    1       -0.462   5.892   1.585  0.00  0.00    +0.100 C 
ENDBRANCH   1  11
BRANCH   2  16
ATOM     16  C   LIG    1       -0.030  -2.338   2.942  0.00  0.00    +0.300 A 
ATOM     17  C   LIG    1       -0.491  -3.544   3.374  0.00  0.00    -0.220 A 
ATOM     18  C   LIG    1       -0.057  -3.723   4.691  0.00  0.00    +0.260 A 
ATOM     19  N   LIG    1        0.632  -2.668   5.047  0.00  0.00    -0.270 NA
ATOM     20  C   LIG    1       -1.321  -4.515   2.574  0.00  0.00    +0.130 C 
ATOM     21  N   LIG    1        0.667  -1.777   3.967  0.00  0.00    -0.320 N 
BRANCH  21  22
ATOM     22  C   LIG    1        1.307  -0.530   3.945  0.00  0.00    +0.160 A 
ATOM     23  C   LIG    1        1.914  -0.080   2.781  0.00  0.00    -0.010 A 
ATOM     24  C   LIG    1        2.539   1.152   2.761  0.00  0.00    +0.040 A 
ATOM     25  C   LIG    1        2.571   1.931   3.903  0.00  0.00    +0.010 A 
ATOM     26  C   LIG    1        1.972   1.482   5.066  0.00  0.00    +0.030 A 
ATOM     27  C   LIG    1        1.341   0.254   5.090  0.00  0.00    +0.020 A 
ENDBRANCH  21  22
ENDBRANCH   2  16
TORSDOF 3
