REMARK  Name = ZINCnE000008Je2k.0
REMARK                            x       y       z     vdW  Elec       q    Type
REMARK                         _______ _______ _______ _____ _____    ______ ____
ROOT
ATOM      1  N   LIG    1       -1.202  -0.724   0.010  0.00  0.00    -0.450 N 
ATOM      2  C   LIG    1       -1.893  -1.118  -1.078  0.00  0.00    +0.400 A 
ATOM      3  N   LIG    1       -2.985  -1.782  -0.644  0.00  0.00    -0.380 NA
ATOM      4  N   LIG    1       -2.948  -1.776   0.757  0.00  0.00    -0.290 NA
ATOM      5  S   LIG    1       -1.463  -0.832  -2.710  0.00  0.00    -0.770 S 
ATOM      6  C   LIG    1       -1.882  -1.143   1.129  0.00  0.00    +0.160 A 
ENDROOT
BRANCH   1  12
ATOM      7  C   LIG    1       -0.017   1.389   0.010  0.00  0.00    +0.150 A 
ATOM      8  C   LIG    1        1.175   2.095   0.002  0.00  0.00    -0.080 A 
ATOM      9  C   LIG    1        2.380   1.416  -0.013  0.00  0.00    +0.060 A 
ATOM     10  C   LIG    1        2.400   0.034  -0.021  0.00  0.00    -0.020 A 
ATOM     11  C   LIG    1        1.214  -0.677  -0.013  0.00  0.00    +0.070 A 
ATOM     12  C   LIG    1        0.002  -0.004   0.002  0.00  0.00    +0.110 A 
BRANCH   7  14
ATOM     13  C   LIG    1       -1.145   3.482   0.026  0.00  0.00    +0.240 C 
ATOM     14  O   LIG    1       -1.202   2.054   0.019  0.00  0.00    -0.300 OA
ENDBRANCH   7  14
ENDBRANCH   1  12
BRANCH   6  15
ATOM     15  C   LIG    1       -1.456  -0.904   2.555  0.00  0.00    +0.320 C 
BRANCH  15  16
ATOM     16  O   LIG    1       -2.413  -1.486   3.442  0.00  0.00    -0.280 OA
BRANCH  16  17
ATOM     17  C   LIG    1       -2.177  -1.360   4.774  0.00  0.00    +0.140 A 
ATOM     18  C   LIG    1       -1.047  -0.689   5.218  0.00  0.00    -0.080 A 
ATOM     19  C   LIG    1       -0.809  -0.561   6.574  0.00  0.00    +0.030 A 
ATOM     20  C   LIG    1       -1.696  -1.102   7.486  0.00  0.00    -0.040 A 
ATOM     21  C   LIG    1       -2.823  -1.772   7.045  0.00  0.00    +0.040 A 
ATOM     22  C   LIG    1       -3.069  -1.896   5.692  0.00  0.00    -0.110 A 
ATOM     23  C   LIG    1       -4.301  -2.620   5.213  0.00  0.00    +0.100 C 
ENDBRANCH  16  17
ENDBRANCH  15  16
ENDBRANCH   6  15
TORSDOF 5
