REMARK  Name = ZINCrD0000074coZ.0
REMARK                            x       y       z     vdW  Elec       q    Type
REMARK                         _______ _______ _______ _____ _____    ______ ____
ROOT
ATOM      1  C   LIG    1        3.495   6.499  -2.539  0.00  0.00    -0.310 A 
ATOM      2  C   LIG    1        4.596   7.005  -3.235  0.00  0.00    +0.400 A 
ATOM      3  N   LIG    1        5.925   6.650  -3.200  0.00  0.00    -0.620 N 
ATOM      4  H   LIG    1        6.212   5.933  -2.612  0.00  0.00    +0.440 HD
ATOM      5  C   LIG    1        6.837   7.282  -3.968  0.00  0.00    +0.560 A 
ATOM      6  C   LIG    1        6.378   8.369  -4.851  0.00  0.00    -0.170 A 
ATOM      7  C   LIG    1        7.266   9.063  -5.670  0.00  0.00    +0.130 A 
ATOM      8  C   LIG    1        6.795  10.074  -6.481  0.00  0.00    +0.020 A 
ATOM      9  C   LIG    1        5.447  10.399  -6.484  0.00  0.00    +0.090 A 
ATOM     10  C   LIG    1        4.557   9.719  -5.677  0.00  0.00    +0.030 A 
ATOM     11  C   LIG    1        5.013   8.699  -4.855  0.00  0.00    +0.190 A 
ATOM     12  O   LIG    1        8.010   6.963  -3.931  0.00  0.00    -0.480 OA
ATOM     13  N   LIG    1        4.140   7.995  -4.031  0.00  0.00    -0.320 N 
ATOM     14  N   LIG    1        2.756   8.115  -3.840  0.00  0.00    -0.270 NA
ATOM     15  C   LIG    1        2.365   7.232  -2.966  0.00  0.00    +0.370 A 
ENDROOT
BRANCH   1  16
ATOM     16  C   LIG    1        3.510   5.410  -1.557  0.00  0.00    +0.550 C 
ATOM     17  O   LIG    1        4.555   4.854  -1.281  0.00  0.00    -0.520 OA
BRANCH  16  18
ATOM     18  O   LIG    1        2.363   5.025  -0.961  0.00  0.00    -0.330 OA
BRANCH  18  20
ATOM     19  C   LIG    1        2.712   4.515   1.394  0.00  0.00    +0.050 C 
ATOM     20  C   LIG    1        2.452   3.940   0.000  0.00  0.00    +0.250 C 
BRANCH  20  21
ATOM     21  C   LIG    1        1.158   3.168   0.008  0.00  0.00    -0.170 A 
ATOM     22  C   LIG    1        1.177   1.784   0.000  0.00  0.00    +0.140 A 
ATOM     23  C   LIG    1       -0.013   1.076   0.008  0.00  0.00    -0.010 A 
ATOM     24  C   LIG    1       -1.219   1.750   0.017  0.00  0.00    +0.100 A 
ATOM     25  C   LIG    1       -1.239   3.132   0.031  0.00  0.00    -0.020 A 
ATOM     26  F   LIG    1        2.356   1.125  -0.015  0.00  0.00    -0.130 F 
ATOM     27  C   LIG    1       -0.051   3.843   0.023  0.00  0.00    +0.160 A 
ATOM     28  F   LIG    1       -0.071   5.193   0.031  0.00  0.00    -0.120 F 
ENDBRANCH  20  21
ENDBRANCH  18  20
ENDBRANCH  16  18
ENDBRANCH   1  16
TORSDOF 4
