REMARK  Name = ZINCqH0000050I3P.0
REMARK                            x       y       z     vdW  Elec       q    Type
REMARK                         _______ _______ _______ _____ _____    ______ ____
ROOT
ATOM      1  C   LIG    1       -2.164   0.907  -1.435  0.00  0.00    +0.500 C 
ATOM      2  O   LIG    1       -2.926   0.233  -0.782  0.00  0.00    -0.490 OA
ENDROOT
BRANCH   1   3
ATOM      3  C   LIG    1       -1.150   1.781  -0.743  0.00  0.00    +0.000 C 
ATOM      4  C   LIG    1       -0.013   1.086   0.008  0.00  0.00    +0.100 C 
ATOM      5  C   LIG    1       -1.136   1.773   0.788  0.00  0.00    +0.040 C 
BRANCH   5   6
ATOM      6  C   LIG    1       -0.806   3.066   1.487  0.00  0.00    -0.010 A 
ATOM      7  C   LIG    1        0.412   3.681   1.267  0.00  0.00    +0.020 A 
ATOM      8  C   LIG    1        0.714   4.867   1.909  0.00  0.00    +0.060 A 
ATOM      9  C   LIG    1       -0.203   5.440   2.770  0.00  0.00    +0.020 A 
ATOM     10  C   LIG    1       -1.422   4.826   2.991  0.00  0.00    +0.070 A 
ATOM     11  C   LIG    1       -1.726   3.642   2.345  0.00  0.00    -0.170 A 
BRANCH  11  12
ATOM     12  C   LIG    1       -3.056   2.975   2.581  0.00  0.00    +0.510 C 
ATOM     13  F   LIG    1       -2.851   1.698   3.113  0.00  0.00    -0.170 F 
ATOM     14  F   LIG    1       -3.746   2.869   1.368  0.00  0.00    -0.170 F 
ATOM     15  F   LIG    1       -3.808   3.740   3.479  0.00  0.00    -0.180 F 
ENDBRANCH  11  12
ENDBRANCH   5   6
ENDBRANCH   1   3
BRANCH   1  16
ATOM     16  O   LIG    1       -2.220   0.876  -2.775  0.00  0.00    -0.330 OA
BRANCH  16  17
ATOM     17  C   LIG    1       -3.222   0.011  -3.373  0.00  0.00    +0.300 C 
BRANCH  17  20
ATOM     18  N   LIG    1       -3.975  -0.614  -5.645  0.00  0.00    -0.620 N 
ATOM     19  H   LIG    1       -4.634  -1.194  -5.233  0.00  0.00    +0.430 HD
ATOM     20  C   LIG    1       -3.136   0.107  -4.875  0.00  0.00    +0.520 C 
ATOM     21  O   LIG    1       -2.312   0.832  -5.390  0.00  0.00    -0.480 OA
BRANCH  18  26
ATOM     22  C   LIG    1       -5.241  -1.656 -10.223  0.00  0.00    +0.160 C 
ATOM     23  C   LIG    1       -4.439  -0.971  -9.146  0.00  0.00    +0.090 A 
ATOM     24  C   LIG    1       -3.456  -0.110  -9.416  0.00  0.00    -0.130 A 
ATOM     25  S   LIG    1       -2.786   0.452  -7.887  0.00  0.00    +0.250 S 
ATOM     26  C   LIG    1       -3.896  -0.526  -7.030  0.00  0.00    +0.240 A 
ATOM     27  N   LIG    1       -4.649  -1.178  -7.859  0.00  0.00    -0.510 NA
ENDBRANCH  18  26
ENDBRANCH  17  20
ENDBRANCH  16  17
ENDBRANCH   1  16
TORSDOF 7
