REMARK  Name = ZINCkj00000a7JpP.0
REMARK                            x       y       z     vdW  Elec       q    Type
REMARK                         _______ _______ _______ _____ _____    ______ ____
ROOT
ATOM      1  C   LIG    1       -1.890   0.870  -6.584  0.00  0.00    +0.370 C 
ATOM      2  N   LIG    1       -0.506   0.749  -6.120  0.00  0.00    -0.390 N 
ATOM      3  N   LIG    1        0.598   0.383  -6.906  0.00  0.00    -0.520 N 
ATOM      4  H   LIG    1        0.580   0.165  -7.851  0.00  0.00    +0.440 HD
ATOM      5  C   LIG    1        1.691   0.390  -6.111  0.00  0.00    +0.540 A 
ATOM      6  C   LIG    1        1.271   0.762  -4.820  0.00  0.00    -0.310 A 
ATOM      7  C   LIG    1        2.105   0.922  -3.572  0.00  0.00    +0.140 C 
ATOM      8  C   LIG    1        1.275   1.712  -2.551  0.00  0.00    +0.180 C 
ATOM      9  N   LIG    1       -0.065   1.119  -2.440  0.00  0.00    -0.530 NA
ATOM     10  C   LIG    1       -0.872   1.382  -3.644  0.00  0.00    +0.290 C 
ATOM     11  O   LIG    1        2.830   0.125  -6.449  0.00  0.00    -0.540 OA
ATOM     12  C   LIG    1       -0.067   0.971  -4.853  0.00  0.00    +0.170 A 
ENDROOT
BRANCH   9  13
ATOM     13  C   LIG    1       -0.753   1.593  -1.232  0.00  0.00    +0.200 C 
BRANCH  13  14
ATOM     14  C   LIG    1       -0.013   1.086   0.008  0.00  0.00    +0.040 C 
BRANCH  14  15
ATOM     15  C   LIG    1       -0.729   1.579   1.267  0.00  0.00    +0.250 C 
BRANCH  15  16
ATOM     16  N   LIG    1       -0.018   1.093   2.457  0.00  0.00    -0.380 N 
ATOM     17  C   LIG    1       -0.095  -0.372   2.506  0.00  0.00    +0.250 C 
ATOM     18  C   LIG    1        0.712  -0.890   3.699  0.00  0.00    +0.050 C 
ATOM     19  C   LIG    1        0.135  -0.304   4.990  0.00  0.00    +0.030 C 
ATOM     20  C   LIG    1        0.151   1.225   4.898  0.00  0.00    +0.050 C 
ATOM     21  C   LIG    1       -0.635   1.664   3.660  0.00  0.00    +0.250 C 
ATOM     22  H   LIG    1        0.949   1.375   2.409  0.00  0.00    +0.420 HD
ENDBRANCH  15  16
ENDBRANCH  14  15
ENDBRANCH  13  14
ENDBRANCH   9  13
TORSDOF 4
