REMARK  Name = ZINCfA000001wzNN.2
REMARK                            x       y       z     vdW  Elec       q    Type
REMARK                         _______ _______ _______ _____ _____    ______ ____
ROOT
ATOM      1  C   LIG    1       -3.302  -2.188   2.846  0.00  0.00    +0.070 C 
ATOM      2  C   LIG    1       -2.218  -2.978   3.585  0.00  0.00    +0.060 C 
ATOM      3  C   LIG    1       -0.896  -2.209   3.507  0.00  0.00    +0.070 C 
ATOM      4  C   LIG    1       -0.539  -1.968   2.038  0.00  0.00    +0.250 C 
ATOM      5  N   LIG    1       -1.601  -1.185   1.395  0.00  0.00    -0.380 N 
ATOM      6  H   LIG    1       -1.731  -0.321   1.899  0.00  0.00    +0.430 HD
ATOM      7  F   LIG    1       -3.501  -0.959   3.485  0.00  0.00    -0.180 F 
ATOM      8  C   LIG    1       -2.856  -1.947   1.402  0.00  0.00    +0.270 C 
ENDROOT
BRANCH   1  10
ATOM      9  F   LIG    1       -5.076  -3.105   4.164  0.00  0.00    -0.190 F 
ATOM     10  C   LIG    1       -4.609  -2.983   2.851  0.00  0.00    +0.260 C 
ENDBRANCH   1  10
BRANCH   5  11
ATOM     11  C   LIG    1       -1.217  -0.889   0.008  0.00  0.00    +0.370 C 
BRANCH  11  12
ATOM     12  C   LIG    1        0.002  -0.004   0.002  0.00  0.00    -0.290 A 
ATOM     13  C   LIG    1        1.265  -0.434  -0.012  0.00  0.00    +0.080 A 
ATOM     14  C   LIG    1        2.222   0.566  -0.016  0.00  0.00    +0.010 A 
ATOM     15  C   LIG    1        1.736   1.808  -0.005  0.00  0.00    +0.020 A 
ATOM     16  S   LIG    1       -0.022   1.755   0.012  0.00  0.00    +0.160 S 
ENDBRANCH  11  12
ENDBRANCH   5  11
TORSDOF 3
