REMARK  Name = ZINCfA000001wzNN.1
REMARK                            x       y       z     vdW  Elec       q    Type
REMARK                         _______ _______ _______ _____ _____    ______ ____
ROOT
ATOM      1  C   LIG    1        1.420   1.548  -2.370  0.00  0.00    +0.070 C 
ATOM      2  C   LIG    1        1.470   3.078  -2.329  0.00  0.00    +0.060 C 
ATOM      3  C   LIG    1        0.691   3.572  -1.107  0.00  0.00    +0.070 C 
ATOM      4  C   LIG    1       -0.742   3.040  -1.173  0.00  0.00    +0.260 C 
ATOM      5  N   LIG    1       -0.723   1.572  -1.182  0.00  0.00    -0.380 N 
ATOM      6  H   LIG    1       -1.670   1.225  -1.173  0.00  0.00    +0.430 HD
ATOM      7  F   LIG    1        2.058   1.030  -1.238  0.00  0.00    -0.180 F 
ATOM      8  C   LIG    1       -0.040   1.091  -2.389  0.00  0.00    +0.280 C 
ENDROOT
BRANCH   1  10
ATOM      9  F   LIG    1        3.488   1.371  -3.561  0.00  0.00    -0.190 F 
ATOM     10  C   LIG    1        2.129   1.047  -3.630  0.00  0.00    +0.260 C 
ENDBRANCH   1  10
BRANCH   5  11
ATOM     11  C   LIG    1       -0.013   1.086   0.008  0.00  0.00    +0.350 C 
BRANCH  11  12
ATOM     12  C   LIG    1       -0.816   1.412   1.241  0.00  0.00    -0.290 A 
ATOM     13  C   LIG    1       -1.745   0.624   1.784  0.00  0.00    +0.080 A 
ATOM     14  C   LIG    1       -2.351   1.134   2.919  0.00  0.00    +0.010 A 
ATOM     15  C   LIG    1       -1.920   2.340   3.293  0.00  0.00    +0.010 A 
ATOM     16  S   LIG    1       -0.676   2.893   2.179  0.00  0.00    +0.140 S 
ENDBRANCH  11  12
ENDBRANCH   5  11
TORSDOF 3
