REMARK  Name = ZINCrm000000EdT1.1
REMARK                            x       y       z     vdW  Elec       q    Type
REMARK                         _______ _______ _______ _____ _____    ______ ____
ROOT
ATOM      1  C   LIG    1       -1.900   1.231  -3.301  0.00  0.00    -0.110 A 
ATOM      2  C   LIG    1       -2.228   2.584  -3.391  0.00  0.00    +0.050 A 
ATOM      3  C   LIG    1       -2.987   3.038  -4.450  0.00  0.00    +0.040 A 
ATOM      4  C   LIG    1       -3.432   2.153  -5.415  0.00  0.00    -0.130 A 
ATOM      5  C   LIG    1       -3.116   0.809  -5.330  0.00  0.00    +0.060 A 
ATOM      6  C   LIG    1       -2.353   0.343  -4.279  0.00  0.00    +0.100 A 
ENDROOT
BRANCH   1  12
ATOM      7  N   LIG    1        2.332   2.703  -1.080  0.00  0.00    -0.380 N 
ATOM      8  C   LIG    1        1.670   2.979  -2.362  0.00  0.00    +0.260 C 
ATOM      9  C   LIG    1        0.152   2.858  -2.188  0.00  0.00    +0.310 C 
ATOM     10  N   LIG    1       -0.152   1.538  -1.615  0.00  0.00    -0.630 N 
ATOM     11  C   LIG    1        0.588   1.116  -0.415  0.00  0.00    +0.330 C 
ATOM     12  C   LIG    1       -1.082   0.738  -2.172  0.00  0.00    +0.570 C 
ATOM     13  O   LIG    1       -1.249  -0.389  -1.747  0.00  0.00    -0.490 OA
ATOM     14  C   LIG    1        2.085   1.314  -0.673  0.00  0.00    +0.270 C 
ATOM     15  H   LIG    1        1.966   3.328  -0.376  0.00  0.00    +0.430 HD
BRANCH   7  16
ATOM     16  C   LIG    1        3.777   2.921  -1.222  0.00  0.00    +0.270 C 
BRANCH  16  17
ATOM     17  C   LIG    1        4.030   4.329  -1.765  0.00  0.00    +0.190 C 
BRANCH  17  19
ATOM     18  C   LIG    1        6.634   4.721  -2.022  0.00  0.00    +0.120 C 
ATOM     19  C   LIG    1        5.479   4.547  -1.908  0.00  0.00    -0.250 C 
ENDBRANCH  17  19
ENDBRANCH  16  17
ENDBRANCH   7  16
ENDBRANCH   1  12
BRANCH   4  20
ATOM     20  C   LIG    1       -4.266   2.656  -6.566  0.00  0.00    +0.320 C 
BRANCH  20  21
ATOM     21  N   LIG    1       -5.688   2.595  -6.205  0.00  0.00    -0.380 N 
ATOM     22  C   LIG    1       -6.490   3.197  -7.276  0.00  0.00    +0.250 C 
ATOM     23  C   LIG    1       -7.965   3.211  -6.867  0.00  0.00    +0.070 C 
ATOM     24  C   LIG    1       -8.434   1.774  -6.626  0.00  0.00    +0.000 C 
ATOM     25  C   LIG    1       -7.543   1.129  -5.560  0.00  0.00    +0.070 C 
ATOM     26  C   LIG    1       -6.083   1.194  -6.016  0.00  0.00    +0.250 C 
ATOM     27  H   LIG    1       -5.838   3.104  -5.346  0.00  0.00    +0.420 HD
BRANCH  24  28
ATOM     28  C   LIG    1       -9.885   1.784  -6.141  0.00  0.00    +0.190 C 
BRANCH  28  29
ATOM     29  O   LIG    1      -10.731   2.278  -7.181  0.00  0.00    -0.570 OA
ATOM     30  H   LIG    1      -11.668   2.312  -6.944  0.00  0.00    +0.400 HD
ENDBRANCH  28  29
ENDBRANCH  24  28
ENDBRANCH  20  21
ENDBRANCH   4  20
TORSDOF 8
