REMARK  Name = ZINCpk00000y6w0m.0
REMARK                            x       y       z     vdW  Elec       q    Type
REMARK                         _______ _______ _______ _____ _____    ______ ____
ROOT
ATOM      1  C   LIG    1        0.002  -0.004   0.002  0.00  0.00    +0.560 A 
ATOM      2  N   LIG    1        1.251  -0.425  -0.012  0.00  0.00    -0.540 NA
ATOM      3  C   LIG    1        2.083   0.618  -0.015  0.00  0.00    +0.350 A 
ATOM      4  C   LIG    1        1.308   1.773  -0.001  0.00  0.00    -0.180 A 
ATOM      5  C   LIG    1        1.944   3.027  -0.000  0.00  0.00    +0.590 A 
ATOM      6  N   LIG    1        3.292   3.083  -0.013  0.00  0.00    -0.550 N 
ATOM      7  C   LIG    1        4.032   1.961  -0.026  0.00  0.00    +0.710 A 
ATOM      8  O   LIG    1        5.244   2.050  -0.037  0.00  0.00    -0.540 OA
ATOM      9  C   LIG    1        3.959   4.387  -0.013  0.00  0.00    +0.340 C 
ATOM     10  O   LIG    1        1.285   4.052   0.011  0.00  0.00    -0.520 OA
ATOM     11  N   LIG    1        3.463   0.741  -0.027  0.00  0.00    -0.510 N 
ATOM     12  C   LIG    1        4.304  -0.459  -0.041  0.00  0.00    +0.340 C 
ATOM     13  N   LIG    1       -0.016   1.355   0.009  0.00  0.00    -0.450 N 
ENDROOT
BRANCH   1  14
ATOM     14  N   LIG    1       -1.110  -0.814   0.008  0.00  0.00    -0.700 N 
ATOM     15  H   LIG    1       -1.997  -0.421   0.019  0.00  0.00    +0.410 HD
BRANCH  14  17
ATOM     16  C   LIG    1       -2.335  -2.931   0.009  0.00  0.00    +0.030 C 
ATOM     17  C   LIG    1       -0.955  -2.271  -0.001  0.00  0.00    +0.280 C 
ENDBRANCH  14  17
ENDBRANCH   1  14
BRANCH  13  18
ATOM     18  C   LIG    1       -1.204   2.213   0.020  0.00  0.00    +0.310 C 
BRANCH  18  19
ATOM     19  C   LIG    1       -1.609   2.505   1.466  0.00  0.00    +0.020 C 
BRANCH  19  20
ATOM     20  C   LIG    1       -2.850   3.401   1.477  0.00  0.00    +0.080 C 
BRANCH  20  21
ATOM     21  C   LIG    1       -3.249   3.688   2.902  0.00  0.00    -0.080 A 
ATOM     22  C   LIG    1       -4.138   2.852   3.552  0.00  0.00    +0.000 A 
ATOM     23  C   LIG    1       -4.501   3.113   4.860  0.00  0.00    +0.000 A 
ATOM     24  C   LIG    1       -3.983   4.215   5.514  0.00  0.00    +0.000 A 
ATOM     25  C   LIG    1       -3.098   5.053   4.863  0.00  0.00    +0.000 A 
ATOM     26  C   LIG    1       -2.731   4.790   3.556  0.00  0.00    +0.010 A 
ENDBRANCH  20  21
ENDBRANCH  19  20
ENDBRANCH  18  19
ENDBRANCH  13  18
TORSDOF 6
