REMARK  Name = ZINCpe00000bSR5t.1
REMARK                            x       y       z     vdW  Elec       q    Type
REMARK                         _______ _______ _______ _____ _____    ______ ____
ROOT
ATOM      1  C   LIG    1        2.304  -2.751  -0.065  0.00  0.00    +0.290 C 
ENDROOT
BRANCH   1   2
ATOM      2  C   LIG    1        2.180  -4.276  -0.029  0.00  0.00    +0.210 C 
ATOM      3  C   LIG    1        3.576  -4.898   0.046  0.00  0.00    +0.050 C 
BRANCH   2   5
ATOM      4  C   LIG    1        1.994  -4.413  -2.455  0.00  0.00    +0.530 C 
ATOM      5  N   LIG    1        1.504  -4.740  -1.243  0.00  0.00    -0.730 N 
ATOM      6  H   LIG    1        0.703  -5.283  -1.174  0.00  0.00    +0.400 HD
ATOM      7  O   LIG    1        3.044  -3.812  -2.542  0.00  0.00    -0.510 OA
BRANCH   4   9
ATOM      8  C   LIG    1       -0.148  -4.145  -3.676  0.00  0.00    +0.020 C 
ATOM      9  C   LIG    1        1.238  -4.794  -3.701  0.00  0.00    +0.170 C 
BRANCH   9  10
ATOM     10  N   LIG    1        1.975  -4.327  -4.883  0.00  0.00    -0.520 NA
ATOM     11  C   LIG    1        2.117  -2.865  -4.872  0.00  0.00    +0.190 C 
ATOM     12  C   LIG    1        1.329  -4.784  -6.121  0.00  0.00    +0.190 C 
ENDBRANCH   9  10
ENDBRANCH   4   9
ENDBRANCH   2   5
BRANCH   2  13
ATOM     13  C   LIG    1        1.369  -4.693   1.199  0.00  0.00    -0.060 C 
ATOM     14  C   LIG    1        2.126  -5.343   2.359  0.00  0.00    +0.040 C 
ATOM     15  C   LIG    1        1.214  -6.191   1.468  0.00  0.00    +0.030 C 
ENDBRANCH   2  13
ENDBRANCH   1   2
BRANCH   1  16
ATOM     16  N   LIG    1        0.967  -2.155  -0.138  0.00  0.00    -0.690 N 
ATOM     17  H   LIG    1        0.182  -2.724  -0.155  0.00  0.00    +0.410 HD
BRANCH  16  18
ATOM     18  C   LIG    1        0.825  -0.778  -0.181  0.00  0.00    +0.460 A 
ATOM     19  C   LIG    1        1.949   0.053  -0.157  0.00  0.00    -0.060 A 
ATOM     20  C   LIG    1        1.751   1.429  -0.203  0.00  0.00    +0.170 A 
ATOM     21  N   LIG    1        0.506   1.901  -0.268  0.00  0.00    -0.530 NA
ATOM     22  C   LIG    1       -0.527   1.084  -0.289  0.00  0.00    +0.410 A 
ATOM     23 CL   LIG    1       -2.126   1.752  -0.382  0.00  0.00    +0.030 Cl
ATOM     24  N   LIG    1       -0.382  -0.227  -0.247  0.00  0.00    -0.560 NA
BRANCH  20  25
ATOM     25  C   LIG    1        2.909   2.358  -0.180  0.00  0.00    +0.580 C 
ATOM     26  O   LIG    1        4.040   1.918  -0.121  0.00  0.00    -0.520 OA
ATOM     27  N   LIG    1        2.705   3.690  -0.225  0.00  0.00    -0.830 N 
ATOM     28  H   LIG    1        3.462   4.297  -0.211  0.00  0.00    +0.410 HD
ATOM     29  H   LIG    1        1.802   4.041  -0.273  0.00  0.00    +0.410 HD
ENDBRANCH  20  25
ENDBRANCH  16  18
ENDBRANCH   1  16
TORSDOF 8
