REMARK  Name = ZINCrH000004tmMT.0
REMARK                            x       y       z     vdW  Elec       q    Type
REMARK                         _______ _______ _______ _____ _____    ______ ____
ROOT
ATOM      1  C   LIG    1       -1.369   7.622  -0.170  0.00  0.00    -0.120 A 
ATOM      2  C   LIG    1       -0.208   8.398  -0.175  0.00  0.00    +0.100 A 
ATOM      3  C   LIG    1       -0.300   9.770  -0.283  0.00  0.00    +0.010 A 
ATOM      4  C   LIG    1       -1.539  10.379  -0.376  0.00  0.00    +0.080 A 
ATOM      5  C   LIG    1       -2.694   9.616  -0.366  0.00  0.00    -0.110 A 
ATOM      6  C   LIG    1       -2.616   8.243  -0.264  0.00  0.00    +0.110 A 
ENDROOT
BRANCH   1   7
ATOM      7  C   LIG    1       -1.278   6.152  -0.060  0.00  0.00    +0.510 C 
ATOM      8  O   LIG    1       -2.291   5.480  -0.051  0.00  0.00    -0.480 OA
BRANCH   7   9
ATOM      9  O   LIG    1       -0.073   5.556   0.031  0.00  0.00    -0.290 OA
BRANCH   9  13
ATOM     10  C   LIG    1       -0.014   1.428  -0.038  0.00  0.00    -0.020 A 
ATOM     11  C   LIG    1        0.307   2.114   1.136  0.00  0.00    +0.100 A 
ATOM     12  C   LIG    1        0.291   3.491   1.153  0.00  0.00    +0.040 A 
ATOM     13  C   LIG    1       -0.054   4.199   0.008  0.00  0.00    +0.110 A 
ATOM     14  C   LIG    1       -0.379   3.521  -1.161  0.00  0.00    +0.020 A 
ATOM     15  C   LIG    1       -0.360   2.143  -1.188  0.00  0.00    +0.090 A 
BRANCH  10  17
ATOM     16  N   LIG    1        0.021  -1.139  -0.081  0.00  0.00    -0.410 NA
ATOM     17  C   LIG    1        0.006  -0.003  -0.062  0.00  0.00    +0.250 C 
ENDBRANCH  10  17
ENDBRANCH   9  13
ENDBRANCH   7   9
ENDBRANCH   1   7
BRANCH   5  18
ATOM     18  C   LIG    1       -4.039  10.288  -0.467  0.00  0.00    -0.260 C 
BRANCH  18  19
ATOM     19  S   LIG    1       -4.645  10.681   1.197  0.00  0.00    +2.490 S 
ATOM     20  O   LIG    1       -3.850  11.698   1.790  0.00  0.00    -0.930 OA
ATOM     21  O   LIG    1       -4.961   9.491   1.907  0.00  0.00    -0.920 OA
BRANCH  19  22
ATOM     22  C   LIG    1       -6.206  11.452   0.926  0.00  0.00    -0.660 A 
ATOM     23  C   LIG    1       -6.281  12.824   0.769  0.00  0.00    +0.110 A 
ATOM     24  C   LIG    1       -7.505  13.428   0.551  0.00  0.00    -0.010 A 
ATOM     25  C   LIG    1       -8.655  12.663   0.501  0.00  0.00    +0.070 A 
ATOM     26  C   LIG    1       -8.580  11.292   0.664  0.00  0.00    +0.000 A 
ATOM     27  C   LIG    1       -7.356  10.687   0.876  0.00  0.00    +0.120 A 
ENDBRANCH  19  22
ENDBRANCH  18  19
ENDBRANCH   5  18
TORSDOF 7
