REMARK  Name = ZINCpk00000ebKlZ.0
REMARK                            x       y       z     vdW  Elec       q    Type
REMARK                         _______ _______ _______ _____ _____    ______ ____
ROOT
ATOM      1  C   LIG    1       -1.335   5.611  -0.644  0.00  0.00    +0.320 C 
ENDROOT
BRANCH   1   2
ATOM      2  C   LIG    1       -0.134   6.521  -0.658  0.00  0.00    -0.110 A 
ATOM      3  C   LIG    1        0.448   6.914   0.532  0.00  0.00    +0.040 A 
ATOM      4  C   LIG    1        1.550   7.749   0.519  0.00  0.00    +0.010 A 
ATOM      5  C   LIG    1        2.070   8.190  -0.683  0.00  0.00    +0.010 A 
ATOM      6  C   LIG    1        1.487   7.795  -1.873  0.00  0.00    +0.010 A 
ATOM      7  C   LIG    1        0.389   6.957  -1.861  0.00  0.00    -0.080 A 
BRANCH   7   8
ATOM      8  C   LIG    1       -0.243   6.523  -3.159  0.00  0.00    +0.340 C 
BRANCH   8   9
ATOM      9  N   LIG    1        0.446   7.170  -4.278  0.00  0.00    -0.620 N 
ATOM     10  C   LIG    1        0.004   8.418  -4.912  0.00  0.00    +0.250 C 
ATOM     11  C   LIG    1        1.229   8.932  -5.703  0.00  0.00    +0.040 C 
ATOM     12  C   LIG    1        2.002   7.620  -5.972  0.00  0.00    +0.050 C 
ATOM     13  C   LIG    1        1.561   6.696  -4.859  0.00  0.00    +0.510 C 
ATOM     14  O   LIG    1        2.131   5.674  -4.538  0.00  0.00    -0.510 OA
ENDBRANCH   8   9
ENDBRANCH   7   8
ENDBRANCH   1   2
BRANCH   1  16
ATOM     15  C   LIG    1       -1.823   3.247  -0.977  0.00  0.00    +0.510 C 
ATOM     16  N   LIG    1       -0.912   4.239  -0.936  0.00  0.00    -0.730 N 
ATOM     17  H   LIG    1        0.024   4.045  -1.101  0.00  0.00    +0.410 HD
ATOM     18  O   LIG    1       -2.994   3.490  -0.771  0.00  0.00    -0.520 OA
BRANCH  15  25
ATOM     19  O   LIG    1        0.904   2.662  -3.857  0.00  0.00    -0.520 OA
ATOM     20  C   LIG    1       -0.104   2.646  -3.183  0.00  0.00    +0.510 C 
ATOM     21  C   LIG    1       -1.282   3.518  -3.566  0.00  0.00    +0.040 C 
ATOM     22  C   LIG    1       -2.400   2.617  -4.097  0.00  0.00    +0.030 C 
ATOM     23  C   LIG    1       -3.239   2.074  -2.956  0.00  0.00    +0.010 C 
ATOM     24  C   LIG    1       -2.493   1.111  -2.050  0.00  0.00    +0.050 C 
ATOM     25  C   LIG    1       -1.388   1.836  -1.278  0.00  0.00    +0.250 C 
ATOM     26  N   LIG    1       -0.172   1.860  -2.107  0.00  0.00    -0.730 N 
ATOM     27  H   LIG    1        0.584   1.302  -1.870  0.00  0.00    +0.410 HD
ENDBRANCH  15  25
ENDBRANCH   1  16
TORSDOF 5
