REMARK  Name = ZINCrH00000No4Rz.1
REMARK                            x       y       z     vdW  Elec       q    Type
REMARK                         _______ _______ _______ _____ _____    ______ ____
ROOT
ATOM      1  N   LIG    1        6.953  -0.274  -1.198  0.00  0.00    -0.540 NA
ATOM      2  C   LIG    1        6.328  -0.657  -2.472  0.00  0.00    +0.180 C 
ATOM      3  C   LIG    1        7.152  -0.091  -3.631  0.00  0.00    +0.170 C 
ATOM      4  N   LIG    1        8.527  -0.602  -3.548  0.00  0.00    -0.530 NA
ATOM      5  C   LIG    1        9.151  -0.219  -2.273  0.00  0.00    +0.180 C 
ATOM      6  C   LIG    1        8.328  -0.785  -1.114  0.00  0.00    +0.180 C 
ENDROOT
BRANCH   1   7
ATOM      7  C   LIG    1        6.149  -0.736  -0.058  0.00  0.00    +0.210 C 
BRANCH   7   9
ATOM      8  C   LIG    1        3.695  -0.685  -0.036  0.00  0.00    +0.000 C 
ATOM      9  C   LIG    1        4.832  -0.004  -0.043  0.00  0.00    -0.010 C 
BRANCH   8  13
ATOM     10  C   LIG    1       -0.017   1.379   0.010  0.00  0.00    +0.000 A 
ATOM     11  C   LIG    1        1.168   2.093   0.002  0.00  0.00    +0.000 A 
ATOM     12  C   LIG    1        2.377   1.429  -0.013  0.00  0.00    +0.010 A 
ATOM     13  C   LIG    1        2.403   0.034  -0.020  0.00  0.00    -0.060 A 
ATOM     14  C   LIG    1        1.204  -0.681  -0.013  0.00  0.00    +0.010 A 
ATOM     15  C   LIG    1        0.002  -0.004   0.002  0.00  0.00    +0.000 A 
ENDBRANCH   8  13
ENDBRANCH   7   9
ENDBRANCH   1   7
BRANCH   4  16
ATOM     16  C   LIG    1        9.331  -0.140  -4.687  0.00  0.00    +0.230 C 
BRANCH  16  17
ATOM     17  C   LIG    1        8.800  -0.754  -5.957  0.00  0.00    -0.090 A 
ATOM     18  C   LIG    1        9.300  -1.966  -6.399  0.00  0.00    +0.060 A 
ATOM     19  C   LIG    1        8.812  -2.533  -7.560  0.00  0.00    -0.010 A 
ATOM     20  C   LIG    1        7.827  -1.881  -8.289  0.00  0.00    +0.160 A 
ATOM     21  C   LIG    1        7.331  -0.662  -7.846  0.00  0.00    +0.020 A 
ATOM     22  C   LIG    1        7.819  -0.102  -6.681  0.00  0.00    +0.040 A 
BRANCH  20  23
ATOM     23  N   LIG    1        7.333  -2.452  -9.470  0.00  0.00    -0.320 N 
ATOM     24  C   LIG    1        7.731  -3.625 -10.014  0.00  0.00    +0.230 A 
ATOM     25  C   LIG    1        7.012  -3.819 -11.144  0.00  0.00    -0.100 A 
ATOM     26  C   LIG    1        6.153  -2.726 -11.302  0.00  0.00    +0.250 A 
ATOM     27  N   LIG    1        6.345  -1.907 -10.300  0.00  0.00    -0.290 NA
ENDBRANCH  20  23
ENDBRANCH  16  17
ENDBRANCH   4  16
TORSDOF 6
