REMARK  Name = ZINCrH00000No4RZ.0
REMARK                            x       y       z     vdW  Elec       q    Type
REMARK                         _______ _______ _______ _____ _____    ______ ____
ROOT
ATOM      1  N   LIG    1       -2.372   1.261  -0.564  0.00  0.00    -0.720 N 
ATOM      2  H   LIG    1       -2.310   0.296  -0.484  0.00  0.00    +0.410 HD
ATOM      3  C   LIG    1       -3.415   1.818  -1.211  0.00  0.00    +0.560 C 
ATOM      4  O   LIG    1       -3.493   3.028  -1.310  0.00  0.00    -0.520 OA
ENDROOT
BRANCH   3   5
ATOM      5  C   LIG    1       -4.455   0.966  -1.795  0.00  0.00    -0.040 C 
ATOM      6  C   LIG    1       -5.499   1.524  -2.442  0.00  0.00    +0.180 C 
BRANCH   6   7
ATOM      7  C   LIG    1       -6.541   0.670  -3.027  0.00  0.00    +0.120 A 
ATOM      8  N   LIG    1       -7.579   1.103  -3.666  0.00  0.00    -0.440 NA
ATOM      9  C   LIG    1       -8.443   0.205  -4.143  0.00  0.00    +0.080 A 
ATOM     10  C   LIG    1       -9.639   0.424  -4.867  0.00  0.00    +0.080 A 
ATOM     11  C   LIG    1      -10.400  -0.626  -5.277  0.00  0.00    +0.030 A 
ATOM     12  C   LIG    1      -10.022  -1.932  -4.994  0.00  0.00    +0.050 A 
ATOM     13  C   LIG    1       -8.865  -2.179  -4.291  0.00  0.00    +0.050 A 
ATOM     14  C   LIG    1       -8.070  -1.117  -3.862  0.00  0.00    -0.170 A 
ATOM     15  S   LIG    1       -6.553  -1.087  -2.966  0.00  0.00    +0.080 S 
ENDBRANCH   6   7
ENDBRANCH   3   5
BRANCH   1  16
ATOM     16  C   LIG    1       -1.332   2.112   0.020  0.00  0.00    +0.460 C 
BRANCH  16  20
ATOM     17  C   LIG    1        2.355  -0.049   0.170  0.00  0.00    +0.180 A 
ATOM     18  C   LIG    1        1.146  -0.729   0.213  0.00  0.00    -0.100 A 
ATOM     19  C   LIG    1       -0.044  -0.027   0.167  0.00  0.00    +0.100 A 
ATOM     20  C   LIG    1       -0.033   1.351   0.077  0.00  0.00    -0.180 A 
ATOM     21  C   LIG    1        1.174   2.035   0.033  0.00  0.00    +0.190 A 
ATOM     22  C   LIG    1        2.369   1.334   0.080  0.00  0.00    -0.100 A 
BRANCH  17  24
ATOM     23  C   LIG    1        3.435  -2.163   0.310  0.00  0.00    +0.240 C 
ATOM     24  O   LIG    1        3.525  -0.740   0.216  0.00  0.00    -0.310 OA
ENDBRANCH  17  24
BRANCH  21  25
ATOM     25  O   LIG    1        1.184   3.391  -0.056  0.00  0.00    -0.310 OA
ATOM     26  C   LIG    1        2.462   4.029  -0.097  0.00  0.00    +0.250 C 
ENDBRANCH  21  25
ENDBRANCH  16  20
BRANCH  16  27
ATOM     27  C   LIG    1       -1.729   2.508   1.381  0.00  0.00    +0.200 C 
ATOM     28  N   LIG    1       -2.035   2.814   2.432  0.00  0.00    -0.410 NA
ENDBRANCH  16  27
ENDBRANCH   1  16
TORSDOF 7
