REMARK  Name = ZINCrH000004qjHv.0
REMARK                            x       y       z     vdW  Elec       q    Type
REMARK                         _______ _______ _______ _____ _____    ______ ____
ROOT
ATOM      1  C   LIG    1        4.058  10.681  -2.884  0.00  0.00    +0.150 C 
ATOM      2  C   LIG    1        3.017  10.516  -1.807  0.00  0.00    +0.210 A 
ATOM      3  C   LIG    1        2.709   9.260  -1.321  0.00  0.00    -0.150 A 
ATOM      4  C   LIG    1        1.737   9.152  -0.322  0.00  0.00    +0.450 A 
ATOM      5  N   LIG    1        1.143  10.254   0.121  0.00  0.00    -0.570 NA
ATOM      6  C   LIG    1        1.471  11.441  -0.368  0.00  0.00    +0.400 A 
ATOM      7  N   LIG    1        2.389  11.573  -1.316  0.00  0.00    -0.550 NA
ENDROOT
BRANCH   6   8
ATOM      8  C   LIG    1        0.791  12.652   0.153  0.00  0.00    -0.040 A 
ATOM      9  C   LIG    1       -0.181  12.535   1.145  0.00  0.00    +0.140 A 
ATOM     10  C   LIG    1       -0.807  13.666   1.630  0.00  0.00    +0.030 A 
ATOM     11  C   LIG    1       -0.479  14.911   1.126  0.00  0.00    +0.120 A 
ATOM     12  C   LIG    1        0.481  15.032   0.137  0.00  0.00    -0.050 A 
ATOM     13  C   LIG    1        1.117  13.909  -0.351  0.00  0.00    +0.160 A 
BRANCH  12  14
ATOM     14  N   LIG    1        0.827  16.369  -0.397  0.00  0.00    +0.030 N 
ATOM     15  O   LIG    1        0.266  17.360   0.033  0.00  0.00    -0.160 OA
ATOM     16  O   LIG    1        1.672  16.476  -1.268  0.00  0.00    -0.150 OA
ENDBRANCH  12  14
ENDBRANCH   6   8
BRANCH   4  17
ATOM     17  N   LIG    1        1.395   7.912   0.195  0.00  0.00    -0.710 N 
ATOM     18  H   LIG    1        0.720   7.845   0.888  0.00  0.00    +0.410 HD
BRANCH  17  19
ATOM     19  C   LIG    1        2.054   6.703  -0.305  0.00  0.00    +0.300 C 
BRANCH  19  20
ATOM     20  C   LIG    1        1.498   5.480   0.426  0.00  0.00    +0.170 C 
ATOM     21  C   LIG    1        2.260   4.199   0.011  0.00  0.00    +0.100 C 
ATOM     22  C   LIG    1        1.153   3.163   0.006  0.00  0.00    -0.180 A 
ATOM     23  C   LIG    1        1.175   1.786   0.000  0.00  0.00    +0.060 A 
ATOM     24  C   LIG    1       -0.013   1.076   0.008  0.00  0.00    -0.020 A 
ATOM     25  C   LIG    1       -1.218   1.753   0.017  0.00  0.00    +0.050 A 
ATOM     26  C   LIG    1       -1.242   3.133   0.026  0.00  0.00    -0.010 A 
ATOM     27  C   LIG    1       -0.052   3.855   0.014  0.00  0.00    +0.100 A 
ATOM     28  O   LIG    1        0.153   5.201   0.003  0.00  0.00    -0.300 OA
ENDBRANCH  19  20
ENDBRANCH  17  19
ENDBRANCH   4  17
TORSDOF 5
