REMARK  Name = ZINCah0000002Jdj.0
REMARK                            x       y       z     vdW  Elec       q    Type
REMARK                         _______ _______ _______ _____ _____    ______ ____
ROOT
ATOM      1  C   LIG    1       -0.013   1.086   0.008  0.00  0.00    +0.170 C 
ENDROOT
BRANCH   1   2
ATOM      2  C   LIG    1       -0.729   1.579   1.267  0.00  0.00    -0.010 C 
ATOM      3  C   LIG    1       -0.603   3.113   1.380  0.00  0.00    +0.030 C 
ATOM      4  C   LIG    1       -0.438   3.369   2.899  0.00  0.00    +0.010 C 
ATOM      5  C   LIG    1        0.452   2.184   3.351  0.00  0.00    +0.010 C 
ATOM      6  C   LIG    1       -0.059   0.989   2.520  0.00  0.00    +0.010 C 
ENDBRANCH   1   2
BRANCH   1   7
ATOM      7  O   LIG    1       -0.704   1.559  -1.150  0.00  0.00    -0.380 OA
BRANCH   7   8
ATOM      8  C   LIG    1       -0.114   1.152  -2.386  0.00  0.00    +0.180 C 
BRANCH   8   9
ATOM      9  C   LIG    1       -0.932   1.713  -3.551  0.00  0.00    +0.190 C 
BRANCH   9  10
ATOM     10  O   LIG    1       -0.853   3.140  -3.545  0.00  0.00    -0.570 OA
ATOM     11  H   LIG    1       -1.349   3.564  -4.258  0.00  0.00    +0.380 HD
ENDBRANCH   9  10
ENDBRANCH   8   9
ENDBRANCH   7   8
ENDBRANCH   1   7
TORSDOF 5
