REMARK  Name = ZINCpe000000Wsmq.0
REMARK                            x       y       z     vdW  Elec       q    Type
REMARK                         _______ _______ _______ _____ _____    ______ ____
ROOT
ATOM      1  N   LIG    1       -3.489  -0.342   4.002  0.00  0.00    -0.560 N 
ATOM      2  C   LIG    1       -2.128   0.061   4.376  0.00  0.00    +0.310 C 
ATOM      3  C   LIG    1       -1.766   1.222   3.422  0.00  0.00    +0.010 C 
ATOM      4  C   LIG    1       -3.162   1.779   3.058  0.00  0.00    +0.080 C 
ATOM      5  C   LIG    1       -4.095   0.606   3.266  0.00  0.00    +0.520 C 
ATOM      6  O   LIG    1       -5.225   0.532   2.833  0.00  0.00    -0.520 OA
ENDROOT
BRANCH   3   7
ATOM      7  C   LIG    1       -1.054   0.710   2.197  0.00  0.00    +0.520 C 
ATOM      8  N   LIG    1       -0.709   1.564   1.212  0.00  0.00    -0.610 N 
ATOM      9  C   LIG    1       -0.013   1.086   0.008  0.00  0.00    +0.300 C 
ATOM     10  C   LIG    1       -0.762   1.597  -1.227  0.00  0.00    +0.170 C 
ATOM     11  N   LIG    1       -0.913   3.056  -1.135  0.00  0.00    -0.540 NA
ATOM     12  C   LIG    1       -1.732   3.434   0.024  0.00  0.00    +0.170 C 
ATOM     13  C   LIG    1       -1.472   3.606  -2.377  0.00  0.00    +0.190 C 
ATOM     14  C   LIG    1       -1.023   2.998   1.310  0.00  0.00    +0.270 C 
ATOM     15  O   LIG    1       -0.790  -0.469   2.096  0.00  0.00    -0.520 OA
ENDBRANCH   3   7
BRANCH   1  20
ATOM     16  C   LIG    1       -5.383  -2.863   5.904  0.00  0.00    +0.100 A 
ATOM     17  C   LIG    1       -5.249  -3.970   5.080  0.00  0.00    -0.020 A 
ATOM     18  C   LIG    1       -4.533  -3.876   3.901  0.00  0.00    -0.030 A 
ATOM     19  C   LIG    1       -3.952  -2.672   3.537  0.00  0.00    +0.110 A 
ATOM     20  C   LIG    1       -4.080  -1.559   4.365  0.00  0.00    +0.150 A 
ATOM     21  C   LIG    1       -4.799  -1.657   5.547  0.00  0.00    +0.040 A 
BRANCH  16  23
ATOM     22  C   LIG    1       -6.663  -4.231   7.369  0.00  0.00    +0.250 C 
ATOM     23  O   LIG    1       -6.088  -2.959   7.063  0.00  0.00    -0.320 OA
ENDBRANCH  16  23
BRANCH  19  24
ATOM     24  O   LIG    1       -3.253  -2.579   2.374  0.00  0.00    -0.300 OA
ATOM     25  C   LIG    1       -3.163  -3.759   1.574  0.00  0.00    +0.230 C 
ENDBRANCH  19  24
ENDBRANCH   1  20
TORSDOF 4
