REMARK  Name = ZINCpk00000y6ytX.0
REMARK                            x       y       z     vdW  Elec       q    Type
REMARK                         _______ _______ _______ _____ _____    ______ ____
ROOT
ATOM      1  N   LIG    1        3.268   5.000  -1.149  0.00  0.00    -0.530 NA
ATOM      2  C   LIG    1        2.151   5.127  -2.093  0.00  0.00    +0.160 C 
ATOM      3  C   LIG    1        2.602   4.674  -3.483  0.00  0.00    +0.030 C 
ATOM      4  C   LIG    1        3.780   5.540  -3.939  0.00  0.00    -0.040 C 
ATOM      5  C   LIG    1        4.912   5.428  -2.914  0.00  0.00    +0.060 C 
ATOM      6  C   LIG    1        4.394   5.859  -1.540  0.00  0.00    +0.170 C 
ENDROOT
BRANCH   1   7
ATOM      7  C   LIG    1        2.834   5.294   0.224  0.00  0.00    +0.240 C 
BRANCH   7  13
ATOM      8  C   LIG    1        1.547   3.228   0.833  0.00  0.00    +0.180 A 
ATOM      9  C   LIG    1        0.354   2.564   1.092  0.00  0.00    -0.070 A 
ATOM     10  C   LIG    1       -0.843   3.241   1.019  0.00  0.00    +0.120 A 
ATOM     11  C   LIG    1       -0.857   4.600   0.694  0.00  0.00    -0.070 A 
ATOM     12  C   LIG    1        0.345   5.264   0.434  0.00  0.00    +0.110 A 
ATOM     13  C   LIG    1        1.538   4.579   0.504  0.00  0.00    -0.120 A 
BRANCH   8  15
ATOM     14  C   LIG    1        2.662   1.171   1.245  0.00  0.00    +0.240 C 
ATOM     15  O   LIG    1        2.725   2.557   0.901  0.00  0.00    -0.290 OA
ENDBRANCH   8  15
BRANCH  11  16
ATOM     16  C   LIG    1       -2.099   5.309   0.622  0.00  0.00    +0.250 C 
ATOM     17  N   LIG    1       -3.084   5.871   0.565  0.00  0.00    -0.420 NA
ENDBRANCH  11  16
ENDBRANCH   7  13
ENDBRANCH   1   7
BRANCH   4  18
ATOM     18  C   LIG    1        4.276   5.054  -5.303  0.00  0.00    +0.220 C 
BRANCH  18  19
ATOM     19  C   LIG    1        3.201   5.278  -6.336  0.00  0.00    +0.490 C 
ATOM     20  N   LIG    1        2.115   4.480  -6.362  0.00  0.00    -0.700 N 
ATOM     21  H   LIG    1        1.992   3.806  -5.676  0.00  0.00    +0.400 HD
ATOM     22  O   LIG    1        3.314   6.175  -7.144  0.00  0.00    -0.530 OA
BRANCH  20  23
ATOM     23  C   LIG    1        1.121   4.631  -7.427  0.00  0.00    +0.210 C 
ATOM     24  C   LIG    1       -0.355   4.596  -7.026  0.00  0.00    +0.010 C 
ATOM     25  C   LIG    1        0.264   3.412  -7.772  0.00  0.00    +0.020 C 
ENDBRANCH  20  23
ENDBRANCH  18  19
BRANCH  18  26
ATOM     26  O   LIG    1        5.449   5.783  -5.670  0.00  0.00    -0.530 OA
ATOM     27  H   LIG    1        5.313   6.738  -5.739  0.00  0.00    +0.390 HD
ENDBRANCH  18  26
ENDBRANCH   4  18
TORSDOF 8
