REMARK  Name = ZINCrH00000tj1g9.0
REMARK                            x       y       z     vdW  Elec       q    Type
REMARK                         _______ _______ _______ _____ _____    ______ ____
ROOT
ATOM      1  C   LIG    1       -2.037   1.182   1.679  0.00  0.00    +0.160 A 
ATOM      2  C   LIG    1       -3.001   0.956   0.704  0.00  0.00    +0.000 A 
ATOM      3  C   LIG    1       -4.261   0.519   1.064  0.00  0.00    +0.070 A 
ATOM      4  C   LIG    1       -4.571   0.316   2.395  0.00  0.00    -0.020 A 
ATOM      5  C   LIG    1       -3.613   0.545   3.376  0.00  0.00    +0.160 A 
ATOM      6  C   LIG    1       -2.345   0.979   3.017  0.00  0.00    +0.010 A 
ENDROOT
BRANCH   5   7
ATOM      7  N   LIG    1       -3.927   0.339   4.723  0.00  0.00    -0.670 N 
ATOM      8  H   LIG    1       -4.543  -0.367   4.974  0.00  0.00    +0.410 HD
ATOM      9  C   LIG    1       -3.375   1.122   5.671  0.00  0.00    +0.570 C 
ATOM     10  O   LIG    1       -2.680   2.066   5.350  0.00  0.00    -0.510 OA
BRANCH   9  11
ATOM     11  C   LIG    1       -3.615   0.832   7.100  0.00  0.00    -0.190 A 
ATOM     12  C   LIG    1       -3.042   1.633   8.095  0.00  0.00    +0.140 A 
ATOM     13  C   LIG    1       -3.302   1.323   9.418  0.00  0.00    -0.030 A 
ATOM     14  C   LIG    1       -4.102   0.234   9.713  0.00  0.00    +0.300 A 
ATOM     15  N   LIG    1       -4.624  -0.508   8.754  0.00  0.00    -0.490 NA
ATOM     16  C   LIG    1       -4.411  -0.249   7.481  0.00  0.00    +0.300 A 
ENDBRANCH   9  11
ENDBRANCH   5   7
BRANCH   1  17
ATOM     17  N   LIG    1       -0.762   1.619   1.313  0.00  0.00    -1.060 N 
ATOM     18  H   LIG    1       -0.345   2.353   1.791  0.00  0.00    +0.430 HD
BRANCH  17  19
ATOM     19  S   LIG    1        0.039   0.884   0.064  0.00  0.00    +2.690 S 
ATOM     20  O   LIG    1       -0.858   0.878  -1.039  0.00  0.00    -0.950 OA
ATOM     21  O   LIG    1        1.330   1.475   0.012  0.00  0.00    -0.950 OA
BRANCH  19  26
ATOM     22  C   LIG    1        0.866  -4.886   1.620  0.00  0.00    +0.100 C 
ATOM     23  C   LIG    1        0.659  -3.445   1.232  0.00  0.00    -0.030 A 
ATOM     24  C   LIG    1       -0.521  -3.055   0.627  0.00  0.00    -0.010 A 
ATOM     25  C   LIG    1       -0.711  -1.732   0.271  0.00  0.00    +0.120 A 
ATOM     26  C   LIG    1        0.280  -0.801   0.519  0.00  0.00    -0.680 A 
ATOM     27  C   LIG    1        1.462  -1.192   1.119  0.00  0.00    +0.120 A 
ATOM     28  C   LIG    1        1.650  -2.513   1.480  0.00  0.00    -0.110 A 
ATOM     29  C   LIG    1        2.937  -2.939   2.139  0.00  0.00    +0.100 C 
ENDBRANCH  19  26
ENDBRANCH  17  19
ENDBRANCH   1  17
TORSDOF 5
