REMARK  Name = ZINCqH0000037gNA.1
REMARK                            x       y       z     vdW  Elec       q    Type
REMARK                         _______ _______ _______ _____ _____    ______ ____
ROOT
ATOM      1  N   LIG    1       -2.947   0.765   1.404  0.00  0.00    -0.680 NA
ATOM      2  H   LIG    1       -2.232   0.269   1.915  0.00  0.00    +0.340 HD
ENDROOT
BRANCH   1   4
ATOM      3  C   LIG    1       -3.958  -1.464   1.323  0.00  0.00    +0.010 C 
ATOM      4  C   LIG    1       -4.223   0.038   1.445  0.00  0.00    +0.220 C 
BRANCH   4   5
ATOM      5  C   LIG    1       -4.921   0.321   2.751  0.00  0.00    -0.070 A 
ATOM      6  C   LIG    1       -4.192   0.383   3.923  0.00  0.00    +0.040 A 
ATOM      7  C   LIG    1       -4.828   0.647   5.122  0.00  0.00    +0.020 A 
ATOM      8  C   LIG    1       -6.201   0.838   5.152  0.00  0.00    +0.050 A 
ATOM      9  O   LIG    1       -6.814   1.088   6.342  0.00  0.00    -0.310 OA
ATOM     10  C   LIG    1       -8.131   1.646   6.281  0.00  0.00    +0.220 C 
ATOM     11  C   LIG    1       -8.941   0.855   5.246  0.00  0.00    +0.220 C 
ATOM     12  O   LIG    1       -8.282   0.965   3.980  0.00  0.00    -0.310 OA
ATOM     13  C   LIG    1       -6.934   0.772   3.974  0.00  0.00    +0.050 A 
ATOM     14  C   LIG    1       -6.290   0.512   2.774  0.00  0.00    +0.020 A 
ENDBRANCH   4   5
ENDBRANCH   1   4
BRANCH   1  15
ATOM     15  C   LIG    1       -2.528   1.016   0.019  0.00  0.00    +0.250 C 
BRANCH  15  16
ATOM     16  C   LIG    1       -1.218   1.761   0.017  0.00  0.00    -0.200 A 
ATOM     17  C   LIG    1       -0.013   1.076   0.008  0.00  0.00    +0.330 A 
ATOM     18  N   LIG    1        1.118   1.760   0.001  0.00  0.00    -0.510 NA
ATOM     19  C   LIG    1        1.108   3.086   0.008  0.00  0.00    +0.360 A 
ATOM     20  N   LIG    1       -0.027   3.771   0.023  0.00  0.00    -0.510 NA
ATOM     21  C   LIG    1       -1.192   3.148   0.031  0.00  0.00    +0.350 A 
BRANCH  19  22
ATOM     22  C   LIG    1        2.397   3.820  -0.000  0.00  0.00    -0.050 A 
ATOM     23  C   LIG    1        3.601   3.119  -0.010  0.00  0.00    +0.070 A 
ATOM     24  C   LIG    1        4.798   3.807  -0.024  0.00  0.00    +0.000 A 
ATOM     25  C   LIG    1        4.803   5.190  -0.016  0.00  0.00    +0.030 A 
ATOM     26  C   LIG    1        3.611   5.891  -0.001  0.00  0.00    +0.000 A 
ATOM     27  C   LIG    1        2.408   5.214   0.007  0.00  0.00    +0.070 A 
ENDBRANCH  19  22
ENDBRANCH  15  16
ENDBRANCH   1  15
TORSDOF 5
