REMARK  Name = ZINCpk00000y3i5X.0
REMARK                            x       y       z     vdW  Elec       q    Type
REMARK                         _______ _______ _______ _____ _____    ______ ____
ROOT
ATOM      1  C   LIG    1       -1.502  -0.344   6.896  0.00  0.00    +0.040 C 
ATOM      2  C   LIG    1       -0.138   0.315   7.109  0.00  0.00    +0.190 C 
ATOM      3  C   LIG    1        0.805  -0.073   5.963  0.00  0.00    +0.030 C 
ATOM      4  C   LIG    1        2.206   0.434   6.313  0.00  0.00    +0.040 C 
ATOM      5  C   LIG    1        2.124   1.866   6.778  0.00  0.00    -0.110 A 
ATOM      6  C   LIG    1        3.296   2.604   6.830  0.00  0.00    +0.010 A 
ATOM      7  C   LIG    1        3.279   3.917   7.256  0.00  0.00    -0.010 A 
ATOM      8  C   LIG    1        2.086   4.503   7.635  0.00  0.00    +0.010 A 
ATOM      9  C   LIG    1        0.915   3.777   7.583  0.00  0.00    +0.030 A 
ATOM     10  C   LIG    1        0.926   2.450   7.151  0.00  0.00    +0.110 A 
ATOM     11  N   LIG    1       -0.291   1.771   7.117  0.00  0.00    -0.470 N 
ENDROOT
BRANCH   4  12
ATOM     12  C   LIG    1        3.088   0.352   5.094  0.00  0.00    +0.530 C 
ATOM     13  O   LIG    1        2.627   0.580   3.995  0.00  0.00    -0.540 OA
ATOM     14  N   LIG    1        4.389   0.027   5.225  0.00  0.00    -0.860 N 
ATOM     15  H   LIG    1        4.940  -0.096   4.436  0.00  0.00    +0.400 HD
ATOM     16  H   LIG    1        4.775  -0.085   6.108  0.00  0.00    +0.400 HD
ENDBRANCH   4  12
BRANCH  11  17
ATOM     17  C   LIG    1       -1.112   2.220   5.984  0.00  0.00    +0.230 C 
BRANCH  17  18
ATOM     18  C   LIG    1       -1.634   3.607   6.260  0.00  0.00    +0.520 C 
ATOM     19  N   LIG    1       -1.989   4.409   5.238  0.00  0.00    -0.690 N 
ATOM     20  H   LIG    1       -1.910   4.094   4.324  0.00  0.00    +0.410 HD
ATOM     21  C   LIG    1       -2.456   5.649   5.485  0.00  0.00    +0.700 C 
ATOM     22  N   LIG    1       -2.811   6.452   4.462  0.00  0.00    -0.730 N 
ATOM     23  H   LIG    1       -2.732   6.136   3.548  0.00  0.00    +0.400 HD
ATOM     24  O   LIG    1       -2.555   6.044   6.630  0.00  0.00    -0.520 OA
ATOM     25  O   LIG    1       -1.733   4.001   7.403  0.00  0.00    -0.440 OA
BRANCH  22  26
ATOM     26  C   LIG    1       -3.318   7.800   4.730  0.00  0.00    +0.180 C 
ATOM     27  C   LIG    1       -3.646   8.494   3.407  0.00  0.00    +0.040 C 
ATOM     28  C   LIG    1       -4.583   7.708   5.586  0.00  0.00    +0.030 C 
ATOM     29  C   LIG    1       -2.254   8.605   5.479  0.00  0.00    +0.030 C 
ENDBRANCH  22  26
ENDBRANCH  17  18
ENDBRANCH  11  17
TORSDOF 4
