REMARK  Name = ZINCvU00000006DM.0
REMARK                            x       y       z     vdW  Elec       q    Type
REMARK                         _______ _______ _______ _____ _____    ______ ____
ROOT
ATOM      1  C   LIG    1       -1.396   4.187   0.149  0.00  0.00    +0.140 A 
ATOM      2  N   LIG    1       -0.097   3.999   0.150  0.00  0.00    -0.280 NA
ATOM      3  N   LIG    1        0.168   2.742   0.141  0.00  0.00    -0.270 NA
ATOM      4  C   LIG    1       -0.947   2.048   0.133  0.00  0.00    +0.280 A 
ATOM      5  N   LIG    1       -1.984   2.952   0.132  0.00  0.00    -0.440 N 
ENDROOT
BRANCH   4   6
ATOM      6  C   LIG    1       -1.065   0.576   0.120  0.00  0.00    -0.110 A 
ATOM      7  C   LIG    1       -2.209  -0.147   0.233  0.00  0.00    +0.260 A 
ATOM      8  N   LIG    1       -1.919  -1.480   0.175  0.00  0.00    -0.580 N 
ATOM      9  H   LIG    1       -2.574  -2.193   0.231  0.00  0.00    +0.420 HD
ATOM     10  C   LIG    1       -0.561  -1.666   0.032  0.00  0.00    +0.090 A 
ATOM     11  C   LIG    1        0.239  -2.799  -0.070  0.00  0.00    -0.010 A 
ATOM     12  C   LIG    1        1.604  -2.666  -0.208  0.00  0.00    +0.040 A 
ATOM     13  C   LIG    1        2.192  -1.410  -0.248  0.00  0.00    -0.010 A 
ATOM     14  C   LIG    1        1.417  -0.276  -0.150  0.00  0.00    +0.070 A 
ATOM     15  C   LIG    1        0.035  -0.394  -0.009  0.00  0.00    -0.070 A 
ENDBRANCH   4   6
BRANCH   5  16
ATOM     16  C   LIG    1       -3.419   2.654   0.119  0.00  0.00    +0.190 C 
ATOM     17  C   LIG    1       -4.385   3.835   0.011  0.00  0.00    +0.080 C 
ATOM     18  C   LIG    1       -4.240   3.082   1.336  0.00  0.00    +0.060 C 
ENDBRANCH   5  16
BRANCH   1  19
ATOM     19  S   LIG    1       -2.228   5.740   0.160  0.00  0.00    +0.090 S 
BRANCH  19  21
ATOM     20  C   LIG    1       -0.024   6.705  -1.135  0.00  0.00    +0.080 C 
ATOM     21  C   LIG    1       -0.805   6.858   0.172  0.00  0.00    +0.000 C 
BRANCH  21  22
ATOM     22  C   LIG    1       -1.285   8.281   0.306  0.00  0.00    +0.540 C 
ATOM     23  N   LIG    1       -0.440   9.239   0.737  0.00  0.00    -0.660 N 
ATOM     24  H   LIG    1        0.496   9.032   0.879  0.00  0.00    +0.420 HD
ATOM     25  O   LIG    1       -2.430   8.563   0.026  0.00  0.00    -0.500 OA
BRANCH  23  26
ATOM     26  C   LIG    1       -0.916  10.534   0.979  0.00  0.00    +0.150 A 
ATOM     27  C   LIG    1       -2.203  10.723   1.461  0.00  0.00    +0.030 A 
ATOM     28  C   LIG    1       -2.669  12.003   1.704  0.00  0.00    +0.120 A 
ATOM     29  C   LIG    1       -1.854  13.095   1.458  0.00  0.00    +0.010 A 
ATOM     30  C   LIG    1       -0.572  12.910   0.973  0.00  0.00    +0.050 A 
ATOM     31  F   LIG    1       -3.920  12.188   2.178  0.00  0.00    -0.130 F 
ATOM     32  C   LIG    1       -0.100  11.633   0.733  0.00  0.00    +0.070 A 
ATOM     33  F   LIG    1        1.152  11.453   0.258  0.00  0.00    -0.130 F 
ENDBRANCH  23  26
ENDBRANCH  21  22
ENDBRANCH  19  21
ENDBRANCH   1  19
TORSDOF 6
