REMARK  Name = ZINCqH0000034mGw.0
REMARK                            x       y       z     vdW  Elec       q    Type
REMARK                         _______ _______ _______ _____ _____    ______ ____
ROOT
ATOM      1  C   LIG    1       -2.152   0.877   1.500  0.00  0.00    +0.330 C 
ENDROOT
BRANCH   1   2
ATOM      2  C   LIG    1       -3.170   1.736   2.206  0.00  0.00    -0.080 A 
ATOM      3  C   LIG    1       -2.865   2.303   3.428  0.00  0.00    +0.020 A 
ATOM      4  C   LIG    1       -3.796   3.091   4.079  0.00  0.00    +0.030 A 
ATOM      5  C   LIG    1       -5.039   3.313   3.507  0.00  0.00    +0.050 A 
ATOM      6  O   LIG    1       -5.947   4.088   4.161  0.00  0.00    -0.310 OA
ATOM      7  C   LIG    1       -7.040   4.591   3.386  0.00  0.00    +0.220 C 
ATOM      8  C   LIG    1       -7.603   3.439   2.543  0.00  0.00    +0.220 C 
ATOM      9  O   LIG    1       -6.558   2.953   1.694  0.00  0.00    -0.310 OA
ATOM     10  C   LIG    1       -5.345   2.744   2.276  0.00  0.00    +0.050 A 
ATOM     11  C   LIG    1       -4.405   1.958   1.627  0.00  0.00    +0.040 A 
ENDBRANCH   1   2
BRANCH   1  13
ATOM     12  C   LIG    1       -0.900  -1.128   2.091  0.00  0.00    +0.600 C 
ATOM     13  N   LIG    1       -1.460   0.035   2.478  0.00  0.00    -0.720 N 
ATOM     14  H   LIG    1       -1.404   0.315   3.406  0.00  0.00    +0.400 HD
ATOM     15  O   LIG    1       -0.970  -1.478   0.928  0.00  0.00    -0.550 OA
BRANCH  12  19
ATOM     16  N   LIG    1        0.925  -3.622   4.000  0.00  0.00    -0.440 N 
ATOM     17  C   LIG    1        0.663  -2.739   5.007  0.00  0.00    +0.010 A 
ATOM     18  C   LIG    1       -0.030  -1.702   4.506  0.00  0.00    -0.030 A 
ATOM     19  C   LIG    1       -0.204  -1.974   3.075  0.00  0.00    -0.240 A 
ATOM     20  C   LIG    1        1.080  -2.902   6.446  0.00  0.00    +0.120 C 
ATOM     21  C   LIG    1        0.406  -3.176   2.841  0.00  0.00    +0.110 A 
ATOM     22  C   LIG    1        0.485  -3.879   1.510  0.00  0.00    +0.140 C 
BRANCH  16  24
ATOM     23  C   LIG    1        0.682  -6.004   4.495  0.00  0.00    +0.030 C 
ATOM     24  C   LIG    1        1.661  -4.878   4.159  0.00  0.00    +0.270 C 
ENDBRANCH  16  24
ENDBRANCH  12  19
ENDBRANCH   1  13
BRANCH   1  25
ATOM     25  C   LIG    1       -1.136   1.773   0.788  0.00  0.00    -0.070 C 
ATOM     26  C   LIG    1       -0.013   1.086   0.008  0.00  0.00    +0.030 C 
ATOM     27  C   LIG    1       -1.150   1.781  -0.743  0.00  0.00    +0.020 C 
ENDBRANCH   1  25
TORSDOF 5
