REMARK  Name = ZINCvU00000008Gd.0
REMARK                            x       y       z     vdW  Elec       q    Type
REMARK                         _______ _______ _______ _____ _____    ______ ____
ROOT
ATOM      1  C   LIG    1       -7.107   1.294   0.018  0.00  0.00    +0.150 A 
ATOM      2  N   LIG    1       -7.360   0.117   0.542  0.00  0.00    -0.290 NA
ATOM      3  N   LIG    1       -8.614  -0.147   0.441  0.00  0.00    -0.270 NA
ATOM      4  C   LIG    1       -9.233   0.836  -0.149  0.00  0.00    +0.200 A 
ATOM      5  N   LIG    1       -8.297   1.794  -0.436  0.00  0.00    -0.410 N 
ENDROOT
BRANCH   5   6
ATOM      6  C   LIG    1       -8.513   3.029  -1.065  0.00  0.00    +0.100 A 
ATOM      7  C   LIG    1       -9.254   4.014  -0.428  0.00  0.00    +0.030 A 
ATOM      8  C   LIG    1       -9.461   5.231  -1.049  0.00  0.00    +0.040 A 
ATOM      9  C   LIG    1       -8.938   5.464  -2.307  0.00  0.00    +0.030 A 
ATOM     10  C   LIG    1       -8.204   4.482  -2.947  0.00  0.00    +0.040 A 
ATOM     11  C   LIG    1       -7.990   3.265  -2.329  0.00  0.00    +0.040 A 
ENDBRANCH   5   6
BRANCH   1  12
ATOM     12  S   LIG    1       -5.535   2.083  -0.077  0.00  0.00    +0.100 S 
BRANCH  12  13
ATOM     13  C   LIG    1       -4.504   0.826   0.720  0.00  0.00    +0.110 C 
BRANCH  13  16
ATOM     14  N   LIG    1       -2.120   0.519   1.304  0.00  0.00    -0.720 N 
ATOM     15  H   LIG    1       -2.355  -0.344   1.679  0.00  0.00    +0.400 HD
ATOM     16  C   LIG    1       -3.073   1.297   0.753  0.00  0.00    +0.540 C 
ATOM     17  O   LIG    1       -2.779   2.376   0.284  0.00  0.00    -0.510 OA
BRANCH  14  18
ATOM     18  C   LIG    1       -0.729   0.977   1.336  0.00  0.00    +0.340 C 
BRANCH  18  19
ATOM     19  C   LIG    1       -0.004   0.302   2.471  0.00  0.00    -0.190 A 
ATOM     20  C   LIG    1        0.883   0.890   3.276  0.00  0.00    +0.020 A 
ATOM     21  C   LIG    1        1.420   0.069   4.252  0.00  0.00    +0.010 A 
ATOM     22  C   LIG    1        0.970  -1.187   4.240  0.00  0.00    -0.030 A 
ATOM     23  S   LIG    1       -0.203  -1.381   2.944  0.00  0.00    +0.100 S 
ENDBRANCH  18  19
BRANCH  18  25
ATOM     24  C   LIG    1        1.408   1.103   0.047  0.00  0.00    +0.030 C 
ATOM     25  C   LIG    1       -0.045   0.625   0.013  0.00  0.00    -0.030 C 
ATOM     26  C   LIG    1       -0.781   1.310  -1.140  0.00  0.00    +0.030 C 
ENDBRANCH  18  25
ENDBRANCH  14  18
ENDBRANCH  13  16
ENDBRANCH  12  13
ENDBRANCH   1  12
BRANCH   4  27
ATOM     27  C   LIG    1      -10.707   0.909  -0.454  0.00  0.00    +0.260 C 
BRANCH  27  28
ATOM     28  C   LIG    1      -10.986   0.202  -1.756  0.00  0.00    -0.190 A 
ATOM     29  C   LIG    1      -11.280  -1.093  -1.880  0.00  0.00    +0.040 A 
ATOM     30  C   LIG    1      -11.501  -1.519  -3.179  0.00  0.00    +0.000 A 
ATOM     31  C   LIG    1      -11.377  -0.572  -4.109  0.00  0.00    -0.040 A 
ATOM     32  S   LIG    1      -10.966   0.958  -3.344  0.00  0.00    +0.100 S 
ENDBRANCH  27  28
ENDBRANCH   4  27
TORSDOF 9
