REMARK  Name = ZINCah0000002lgh.0
REMARK                            x       y       z     vdW  Elec       q    Type
REMARK                         _______ _______ _______ _____ _____    ______ ____
ROOT
ATOM      1  C   LIG    1       -0.017   1.428   0.010  0.00  0.00    +0.020 A 
ATOM      2  C   LIG    1       -1.233   2.112   0.019  0.00  0.00    +0.030 A 
ATOM      3  C   LIG    1       -1.245   3.492   0.033  0.00  0.00    +0.030 A 
ATOM      4  C   LIG    1       -0.055   4.197   0.026  0.00  0.00    -0.090 A 
ATOM      5  C   LIG    1        1.154   3.524   0.010  0.00  0.00    +0.030 A 
ATOM      6  C   LIG    1        1.180   2.145   0.002  0.00  0.00    +0.030 A 
ENDROOT
BRANCH   1   8
ATOM      7  C   LIG    1        0.018  -1.178  -0.004  0.00  0.00    +0.060 C 
ATOM      8  C   LIG    1        0.002  -0.004   0.002  0.00  0.00    -0.160 C 
ENDBRANCH   1   8
BRANCH   4   9
ATOM      9  C   LIG    1       -0.075   5.703   0.034  0.00  0.00    +0.230 C 
BRANCH   9  10
ATOM     10  O   LIG    1       -0.095   6.187  -1.310  0.00  0.00    -0.570 OA
ATOM     11  H   LIG    1       -0.109   7.151  -1.382  0.00  0.00    +0.380 HD
ENDBRANCH   9  10
ENDBRANCH   4   9
TORSDOF 3
