REMARK  Name = ZINCpe000000XqQi.0
REMARK                            x       y       z     vdW  Elec       q    Type
REMARK                         _______ _______ _______ _____ _____    ______ ____
ROOT
ATOM      1  C   LIG    1        0.580   1.584  -0.122  0.00  0.00    +0.060 C 
ATOM      2  C   LIG    1       -0.345   1.837   1.070  0.00  0.00    +0.230 C 
ATOM      3  C   LIG    1        0.310   1.308   2.350  0.00  0.00    +0.180 C 
ATOM      4  N   LIG    1       -0.509   1.690   3.509  0.00  0.00    -0.530 NA
ATOM      5  C   LIG    1       -0.575   3.150   3.657  0.00  0.00    +0.170 C 
ATOM      6  C   LIG    1       -1.266   3.754   2.430  0.00  0.00    +0.290 C 
ATOM      7  N   LIG    1       -0.571   3.282   1.222  0.00  0.00    -0.600 N 
ATOM      8  C   LIG    1       -0.153   4.151   0.281  0.00  0.00    +0.600 C 
ATOM      9  O   LIG    1        0.320   3.738  -0.759  0.00  0.00    -0.510 OA
ENDROOT
BRANCH   8  10
ATOM     10  C   LIG    1       -0.269   5.611   0.515  0.00  0.00    -0.020 A 
ATOM     11  N   LIG    1       -0.882   6.202   1.510  0.00  0.00    -0.320 NA
ATOM     12  O   LIG    1       -0.803   7.406   1.426  0.00  0.00    +0.120 OA
ATOM     13  C   LIG    1       -0.113   7.785   0.342  0.00  0.00    -0.060 A 
ATOM     14  C   LIG    1        0.268   6.652  -0.292  0.00  0.00    +0.040 A 
BRANCH  13  15
ATOM     15  C   LIG    1        0.187   9.199  -0.085  0.00  0.00    +0.460 C 
BRANCH  15  16
ATOM     16  N   LIG    1       -0.885   9.683  -0.959  0.00  0.00    -0.380 N 
ATOM     17  C   LIG    1       -1.617  10.801  -0.772  0.00  0.00    +0.240 A 
ATOM     18  C   LIG    1       -2.496  10.894  -1.797  0.00  0.00    -0.120 A 
ATOM     19  C   LIG    1       -2.300   9.790  -2.634  0.00  0.00    +0.240 A 
ATOM     20  N   LIG    1       -1.335   9.064  -2.132  0.00  0.00    -0.290 NA
ENDBRANCH  15  16
ENDBRANCH  13  15
ENDBRANCH   8  10
BRANCH   4  21
ATOM     21  C   LIG    1       -0.010   1.058   4.737  0.00  0.00    +0.150 C 
BRANCH  21  22
ATOM     22  C   LIG    1       -0.221  -0.455   4.655  0.00  0.00    +0.130 C 
ATOM     23  C   LIG    1       -1.680  -0.748   4.301  0.00  0.00    +0.060 C 
ATOM     24  C   LIG    1        0.113  -1.091   6.006  0.00  0.00    +0.020 C 
BRANCH  22  25
ATOM     25  O   LIG    1        0.633  -1.001   3.647  0.00  0.00    -0.550 OA
ATOM     26  H   LIG    1        1.575  -0.852   3.808  0.00  0.00    +0.370 HD
ENDBRANCH  22  25
ENDBRANCH  21  22
ENDBRANCH   4  21
TORSDOF 6
