REMARK  Name = ZINCqH00000505rD.0
REMARK                            x       y       z     vdW  Elec       q    Type
REMARK                         _______ _______ _______ _____ _____    ______ ____
ROOT
ATOM      1  C   LIG    1        0.182   3.079   6.723  0.00  0.00    +0.260 C 
ENDROOT
BRANCH   1   2
ATOM      2  C   LIG    1       -0.016   1.877   7.611  0.00  0.00    -0.130 A 
ATOM      3  C   LIG    1        0.572   0.670   7.280  0.00  0.00    +0.040 A 
ATOM      4  C   LIG    1        0.393  -0.431   8.096  0.00  0.00    +0.010 A 
ATOM      5  C   LIG    1       -0.379  -0.328   9.238  0.00  0.00    +0.030 A 
ATOM      6  C   LIG    1       -0.971   0.877   9.565  0.00  0.00    +0.010 A 
ATOM      7  C   LIG    1       -0.789   1.980   8.751  0.00  0.00    +0.030 A 
ENDBRANCH   1   2
BRANCH   1  10
ATOM      8  N   LIG    1        1.800   4.161   8.250  0.00  0.00    -0.620 N 
ATOM      9  H   LIG    1        1.135   4.090   8.953  0.00  0.00    +0.420 HD
ATOM     10  C   LIG    1        1.523   3.702   7.013  0.00  0.00    +0.540 C 
ATOM     11  O   LIG    1        2.354   3.791   6.134  0.00  0.00    -0.480 OA
BRANCH   8  15
ATOM     12  C   LIG    1        6.445   5.932   7.872  0.00  0.00    +0.190 C 
ATOM     13  C   LIG    1        5.077   5.512   8.345  0.00  0.00    -0.020 A 
ATOM     14  C   LIG    1        4.114   4.915   7.605  0.00  0.00    -0.040 A 
ATOM     15  C   LIG    1        3.041   4.738   8.518  0.00  0.00    +0.250 A 
ATOM     16  N   LIG    1        3.448   5.229   9.660  0.00  0.00    -0.390 NA
ATOM     17  O   LIG    1        4.576   5.657   9.580  0.00  0.00    +0.100 OA
ENDBRANCH   8  15
ENDBRANCH   1  10
BRANCH   1  18
ATOM     18  O   LIG    1        0.130   2.667   5.332  0.00  0.00    -0.310 OA
BRANCH  18  19
ATOM     19  C   LIG    1       -1.078   2.681   4.734  0.00  0.00    +0.550 C 
ATOM     20  O   LIG    1       -2.061   3.027   5.359  0.00  0.00    -0.500 OA
BRANCH  19  21
ATOM     21  C   LIG    1       -1.206   2.276   3.325  0.00  0.00    -0.230 A 
ATOM     22  C   LIG    1       -2.348   2.234   2.579  0.00  0.00    +0.100 A 
ATOM     23  O   LIG    1       -2.034   1.818   1.349  0.00  0.00    -0.170 OA
ATOM     24  C   LIG    1       -0.718   1.572   1.248  0.00  0.00    -0.010 A 
ATOM     25  C   LIG    1       -0.013   1.086   0.008  0.00  0.00    +0.170 C 
ATOM     26  C   LIG    1       -3.729   2.600   3.059  0.00  0.00    +0.190 C 
ATOM     27  C   LIG    1       -0.130   1.833   2.425  0.00  0.00    +0.000 A 
ENDBRANCH  19  21
ENDBRANCH  18  19
ENDBRANCH   1  18
TORSDOF 6
