REMARK  Name = ZINCqH0000033s5R.0
REMARK                            x       y       z     vdW  Elec       q    Type
REMARK                         _______ _______ _______ _____ _____    ______ ____
ROOT
ATOM      1  C   LIG    1       -2.233   5.083   0.047  0.00  0.00    +0.520 C 
ATOM      2  N   LIG    1       -0.907   4.839   0.034  0.00  0.00    -0.620 N 
ATOM      3  H   LIG    1       -0.278   5.578   0.032  0.00  0.00    +0.430 HD
ATOM      4  O   LIG    1       -3.019   4.159   0.051  0.00  0.00    -0.490 OA
ENDROOT
BRANCH   1  10
ATOM      5  C   LIG    1       -2.078   9.669  -1.356  0.00  0.00    +0.650 C 
ATOM      6  N   LIG    1       -2.848   8.569  -1.234  0.00  0.00    -0.590 N 
ATOM      7  C   LIG    1       -4.309   8.686  -1.137  0.00  0.00    +0.290 C 
ATOM      8  C   LIG    1       -4.782   7.941   0.115  0.00  0.00    +0.020 C 
ATOM      9  C   LIG    1       -4.268   6.500   0.071  0.00  0.00    +0.060 C 
ATOM     10  C   LIG    1       -2.738   6.503   0.059  0.00  0.00    +0.000 C 
ATOM     11  C   LIG    1       -2.242   7.231  -1.194  0.00  0.00    +0.310 C 
ATOM     12  O   LIG    1       -0.870   9.559  -1.434  0.00  0.00    -0.570 OA
BRANCH   5  13
ATOM     13  O   LIG    1       -2.647  10.889  -1.391  0.00  0.00    -0.370 OA
BRANCH  13  15
ATOM     14  C   LIG    1       -2.578  13.318  -1.545  0.00  0.00    +0.070 C 
ATOM     15  C   LIG    1       -1.756  12.028  -1.524  0.00  0.00    +0.220 C 
ENDBRANCH  13  15
ENDBRANCH   5  13
ENDBRANCH   1  10
BRANCH   2  16
ATOM     16  C   LIG    1       -0.441   3.530   0.024  0.00  0.00    +0.270 A 
ATOM     17  N   LIG    1        0.807   3.179   0.011  0.00  0.00    -0.500 NA
ATOM     18  C   LIG    1        1.066   1.879   0.002  0.00  0.00    +0.130 A 
ATOM     19  C   LIG    1       -0.013   1.076   0.008  0.00  0.00    -0.110 A 
ATOM     20  S   LIG    1       -1.454   2.089   0.019  0.00  0.00    +0.210 S 
BRANCH  18  21
ATOM     21  C   LIG    1        2.451   1.347  -0.014  0.00  0.00    -0.030 A 
ATOM     22  C   LIG    1        2.671  -0.029  -0.017  0.00  0.00    +0.070 A 
ATOM     23  C   LIG    1        3.960  -0.520  -0.037  0.00  0.00    -0.010 A 
ATOM     24  C   LIG    1        5.036   0.354  -0.043  0.00  0.00    +0.100 A 
ATOM     25  C   LIG    1        4.822   1.722  -0.034  0.00  0.00    -0.020 A 
ATOM     26  F   LIG    1        6.297  -0.131  -0.057  0.00  0.00    -0.140 F 
ATOM     27  C   LIG    1        3.536   2.222  -0.019  0.00  0.00    +0.080 A 
ENDBRANCH  18  21
ENDBRANCH   2  16
TORSDOF 5
