REMARK  Name = ZINCnE000001TBW2.0
REMARK                            x       y       z     vdW  Elec       q    Type
REMARK                         _______ _______ _______ _____ _____    ______ ____
ROOT
ATOM      1  C   LIG    1        6.739   0.741   2.460  0.00  0.00    -0.110 C 
ATOM      2  C   LIG    1        5.280   0.653   2.924  0.00  0.00    +0.260 C 
ATOM      3  O   LIG    1        4.436   0.748   1.776  0.00  0.00    -0.320 OA
ATOM      4  C   LIG    1        4.669   1.757   0.898  0.00  0.00    +0.160 A 
ATOM      5  C   LIG    1        5.865   2.451   0.885  0.00  0.00    -0.150 A 
ATOM      6  C   LIG    1        6.064   3.466  -0.037  0.00  0.00    +0.060 A 
ATOM      7  C   LIG    1        5.075   3.796  -0.945  0.00  0.00    -0.030 A 
ATOM      8  C   LIG    1        3.878   3.110  -0.944  0.00  0.00    +0.060 A 
ATOM      9  C   LIG    1        3.664   2.091  -0.021  0.00  0.00    -0.110 A 
ATOM     10  C   LIG    1        6.970   2.130   1.859  0.00  0.00    +0.110 C 
ENDROOT
BRANCH   9  11
ATOM     11  C   LIG    1        2.377   1.355  -0.013  0.00  0.00    +0.030 A 
ATOM     12  C   LIG    1        2.349  -0.043  -0.020  0.00  0.00    +0.040 A 
ATOM     13  C   LIG    1        1.130  -0.688  -0.013  0.00  0.00    +0.280 A 
ATOM     14  N   LIG    1        0.002  -0.004   0.002  0.00  0.00    -0.450 NA
ATOM     15  C   LIG    1       -0.016   1.315   0.009  0.00  0.00    +0.030 A 
ATOM     16  C   LIG    1        1.158   2.039   0.002  0.00  0.00    +0.030 A 
BRANCH  15  17
ATOM     17  C   LIG    1       -1.337   2.041   0.019  0.00  0.00    +0.520 C 
ATOM     18  F   LIG    1       -1.483   2.760  -1.171  0.00  0.00    -0.170 F 
ATOM     19  F   LIG    1       -1.376   2.923   1.105  0.00  0.00    -0.170 F 
ATOM     20  F   LIG    1       -2.377   1.113   0.134  0.00  0.00    -0.160 F 
ENDBRANCH  15  17
ENDBRANCH   9  11
BRANCH   1  22
ATOM     21  O   LIG    1        7.318  -0.182   4.560  0.00  0.00    -0.690 OA
ATOM     22  C   LIG    1        7.660   0.537   3.636  0.00  0.00    +0.500 C 
ATOM     23  O   LIG    1        8.745   1.092   3.664  0.00  0.00    -0.690 OA
ENDBRANCH   1  22
TORSDOF 3
