REMARK  Name = ZINCqH0000051sLM.0
REMARK                            x       y       z     vdW  Elec       q    Type
REMARK                         _______ _______ _______ _____ _____    ______ ____
ROOT
ATOM      1  O   LIG    1        3.036  -2.322  -1.392  0.00  0.00    -0.490 OA
ATOM      2  C   LIG    1        3.887  -1.813  -0.687  0.00  0.00    +0.600 C 
ATOM      3  N   LIG    1        3.627  -0.656  -0.046  0.00  0.00    -0.660 N 
ATOM      4  H   LIG    1        4.330  -0.208   0.450  0.00  0.00    +0.420 HD
ENDROOT
BRANCH   3   5
ATOM      5  C   LIG    1        2.343  -0.100  -0.098  0.00  0.00    +0.160 A 
ATOM      6  C   LIG    1        1.229  -0.928  -0.126  0.00  0.00    +0.030 A 
ATOM      7  C   LIG    1       -0.037  -0.379  -0.176  0.00  0.00    +0.050 A 
ATOM      8  C   LIG    1       -0.196   0.999  -0.200  0.00  0.00    +0.070 A 
ATOM      9  C   LIG    1        0.917   1.827  -0.172  0.00  0.00    +0.050 A 
ATOM     10  C   LIG    1        2.184   1.280  -0.121  0.00  0.00    +0.010 A 
BRANCH   8  11
ATOM     11  O   LIG    1       -1.443   1.539  -0.257  0.00  0.00    -0.230 OA
BRANCH  11  12
ATOM     12  C   LIG    1       -2.264   1.354   0.804  0.00  0.00    +0.490 A 
ATOM     13  N   LIG    1       -1.868   0.578   1.800  0.00  0.00    -0.560 NA
ATOM     14  C   LIG    1       -2.643   0.381   2.854  0.00  0.00    +0.360 A 
ATOM     15  C   LIG    1       -3.887   0.990   2.901  0.00  0.00    -0.110 A 
ATOM     16  C   LIG    1       -4.272   1.792   1.839  0.00  0.00    +0.370 A 
ATOM     17  N   LIG    1       -3.445   1.951   0.818  0.00  0.00    -0.520 NA
ENDBRANCH  11  12
ENDBRANCH   8  11
ENDBRANCH   3   5
BRANCH   2  18
ATOM     18  C   LIG    1        5.196  -2.459  -0.533  0.00  0.00    -0.060 A 
ATOM     19  C   LIG    1        5.608  -3.650  -1.122  0.00  0.00    +0.130 A 
ATOM     20  O   LIG    1        6.875  -3.860  -0.709  0.00  0.00    -0.180 OA
ATOM     21  C   LIG    1        7.225  -2.850   0.103  0.00  0.00    +0.460 A 
ATOM     22  N   LIG    1        6.239  -2.012   0.216  0.00  0.00    -0.460 NA
BRANCH  19  23
ATOM     23  C   LIG    1        4.823  -4.506  -2.016  0.00  0.00    +0.020 A 
ATOM     24  C   LIG    1        5.247  -5.671  -2.589  0.00  0.00    +0.010 A 
ATOM     25  C   LIG    1        4.177  -6.154  -3.362  0.00  0.00    -0.070 A 
ATOM     26  C   LIG    1        3.164  -5.271  -3.234  0.00  0.00    +0.210 A 
ATOM     27  O   LIG    1        3.557  -4.278  -2.421  0.00  0.00    -0.110 OA
ENDBRANCH  19  23
ENDBRANCH   2  18
TORSDOF 5
