REMARK  Name = ZINCpk00000y6z5S.0
REMARK                            x       y       z     vdW  Elec       q    Type
REMARK                         _______ _______ _______ _____ _____    ______ ____
ROOT
ATOM      1  C   LIG    1        5.735   3.738  -0.644  0.00  0.00    +0.060 C 
ATOM      2  C   LIG    1        4.495   4.452  -0.043  0.00  0.00    +0.080 C 
ATOM      3  C   LIG    1        3.434   3.332  -0.016  0.00  0.00    +0.230 C 
ATOM      4  N   LIG    1        4.152   2.049  -0.024  0.00  0.00    -0.620 N 
ATOM      5  C   LIG    1        3.580   0.829  -0.025  0.00  0.00    +0.610 C 
ATOM      6  O   LIG    1        4.276  -0.169  -0.037  0.00  0.00    -0.510 OA
ATOM      7  C   LIG    1        5.602   2.319  -0.037  0.00  0.00    +0.300 C 
ENDROOT
BRANCH   1  10
ATOM      8  C   LIG    1        8.350   5.156   1.532  0.00  0.00    +0.640 A 
ATOM      9  N   LIG    1        7.243   4.581   1.106  0.00  0.00    -0.590 NA
ATOM     10  C   LIG    1        7.011   4.401  -0.192  0.00  0.00    +0.240 A 
ATOM     11  C   LIG    1        7.930   4.810  -1.114  0.00  0.00    -0.190 A 
ATOM     12  C   LIG    1        9.111   5.430  -0.669  0.00  0.00    +0.540 A 
ATOM     13  O   LIG    1        9.951   5.813  -1.466  0.00  0.00    -0.540 OA
ATOM     14  N   LIG    1        9.299   5.590   0.659  0.00  0.00    -0.660 N 
ATOM     15  H   LIG    1       10.107   6.012   0.989  0.00  0.00    +0.410 HD
BRANCH   8  17
ATOM     16  C   LIG    1        7.485   4.971   3.822  0.00  0.00    +0.330 C 
ATOM     17  N   LIG    1        8.548   5.322   2.877  0.00  0.00    -0.590 N 
ATOM     18  C   LIG    1        9.822   5.849   3.370  0.00  0.00    +0.310 C 
ENDBRANCH   8  17
ENDBRANCH   1  10
BRANCH   5  19
ATOM     19  C   LIG    1        2.114   0.703  -0.011  0.00  0.00    -0.040 A 
ATOM     20  C   LIG    1        1.381  -0.471  -0.010  0.00  0.00    +0.030 A 
ATOM     21  C   LIG    1        0.043  -0.071   0.006  0.00  0.00    +0.060 A 
ATOM     22  N   LIG    1        0.015   1.237   0.013  0.00  0.00    -0.260 NA
ATOM     23  N   LIG    1        1.204   1.722   0.004  0.00  0.00    -0.380 N 
ATOM     24  H   LIG    1        1.423   2.667   0.007  0.00  0.00    +0.440 HD
BRANCH  21  25
ATOM     25  C   LIG    1       -1.156  -0.985   0.013  0.00  0.00    +0.040 C 
ATOM     26  C   LIG    1       -0.932  -2.447  -0.376  0.00  0.00    +0.030 C 
ATOM     27  C   LIG    1       -1.659  -1.501  -1.336  0.00  0.00    +0.030 C 
ENDBRANCH  21  25
ENDBRANCH   5  19
TORSDOF 4
