REMARK  Name = ZINCpk00000HIsYD.0
REMARK                            x       y       z     vdW  Elec       q    Type
REMARK                         _______ _______ _______ _____ _____    ______ ____
ROOT
ATOM      1  N   LIG    1       -8.021   3.375   2.159  0.00  0.00    -0.560 NA
ATOM      2  C   LIG    1       -6.887   4.296   2.099  0.00  0.00    +0.190 C 
ATOM      3  C   LIG    1       -6.066   4.152   3.362  0.00  0.00    +0.030 C 
ATOM      4  C   LIG    1       -4.946   3.116   3.141  0.00  0.00    +0.260 C 
ATOM      5  N   LIG    1       -5.431   1.970   2.347  0.00  0.00    -0.600 N 
ATOM      6  C   LIG    1       -6.728   1.363   2.569  0.00  0.00    +0.290 C 
ATOM      7  C   LIG    1       -4.636   1.466   1.383  0.00  0.00    +0.520 C 
ATOM      8  O   LIG    1       -5.046   0.585   0.658  0.00  0.00    -0.530 OA
ATOM      9  C   LIG    1       -7.789   2.062   1.687  0.00  0.00    +0.190 C 
ENDROOT
BRANCH   7  10
ATOM     10  C   LIG    1       -3.237   1.997   1.206  0.00  0.00    -0.020 C 
ATOM     11  C   LIG    1       -3.296   3.395   0.587  0.00  0.00    +0.060 C 
BRANCH  10  12
ATOM     12  C   LIG    1       -2.450   1.064   0.284  0.00  0.00    +0.350 C 
BRANCH  12  13
ATOM     13  N   LIG    1       -1.057   1.514   0.207  0.00  0.00    -0.370 N 
ATOM     14  C   LIG    1        0.034   0.767   0.476  0.00  0.00    +0.220 A 
ATOM     15  C   LIG    1        1.124   1.545   0.283  0.00  0.00    -0.120 A 
ATOM     16  C   LIG    1        0.683   2.812  -0.113  0.00  0.00    +0.220 A 
ATOM     17  N   LIG    1       -0.624   2.796  -0.156  0.00  0.00    -0.290 NA
ENDBRANCH  12  13
ENDBRANCH  10  12
ENDBRANCH   7  10
BRANCH   1  18
ATOM     18  C   LIG    1       -9.209   3.961   1.523  0.00  0.00    +0.310 C 
BRANCH  18  23
ATOM     19  N   LIG    1      -11.198   3.487   3.034  0.00  0.00    -0.440 N 
ATOM     20  C   LIG    1      -12.209   2.565   3.070  0.00  0.00    +0.120 A 
ATOM     21  C   LIG    1      -12.031   1.749   2.014  0.00  0.00    +0.140 A 
ATOM     22  N   LIG    1      -10.943   2.165   1.348  0.00  0.00    -0.490 NA
ATOM     23  C   LIG    1      -10.437   3.203   1.956  0.00  0.00    +0.210 A 
BRANCH  19  25
ATOM     24  C   LIG    1      -11.623   5.860   3.449  0.00  0.00    +0.030 C 
ATOM     25  C   LIG    1      -10.982   4.579   3.987  0.00  0.00    +0.290 C 
ENDBRANCH  19  25
ENDBRANCH  18  23
ENDBRANCH   1  18
TORSDOF 6
