REMARK  Name = ZINCpe00000gLFRb.0
REMARK                            x       y       z     vdW  Elec       q    Type
REMARK                         _______ _______ _______ _____ _____    ______ ____
ROOT
ATOM      1  C   LIG    1       -2.706   2.890  -5.157  0.00  0.00    +0.510 C 
ATOM      2  O   LIG    1       -2.473   3.961  -5.680  0.00  0.00    -0.490 OA
ENDROOT
BRANCH   1   3
ATOM      3  C   LIG    1       -2.046   2.528  -3.887  0.00  0.00    -0.060 A 
ATOM      4  C   LIG    1       -1.152   3.415  -3.284  0.00  0.00    +0.080 A 
ATOM      5  C   LIG    1       -0.538   3.071  -2.097  0.00  0.00    +0.140 A 
ATOM      6  C   LIG    1       -0.806   1.849  -1.505  0.00  0.00    -0.630 A 
ATOM      7  C   LIG    1       -1.687   0.963  -2.100  0.00  0.00    +0.140 A 
ATOM      8  C   LIG    1       -2.312   1.297  -3.284  0.00  0.00    +0.080 A 
BRANCH   6   9
ATOM      9  S   LIG    1       -0.017   1.417   0.010  0.00  0.00    +2.470 S 
ATOM     10  O   LIG    1        1.190   2.166   0.002  0.00  0.00    -0.880 OA
ATOM     11  O   LIG    1        0.002  -0.004   0.002  0.00  0.00    -0.880 OA
BRANCH   9  12
ATOM     12  C   LIG    1       -1.139   2.031   1.296  0.00  0.00    -0.050 C 
ATOM     13  F   LIG    1       -2.387   1.412   1.161  0.00  0.00    -0.160 F 
ATOM     14  F   LIG    1       -1.289   3.416   1.161  0.00  0.00    -0.160 F 
ENDBRANCH   9  12
ENDBRANCH   6   9
ENDBRANCH   1   3
BRANCH   1  15
ATOM     15  O   LIG    1       -3.568   2.032  -5.737  0.00  0.00    -0.330 OA
BRANCH  15  16
ATOM     16  C   LIG    1       -4.180   2.454  -6.984  0.00  0.00    +0.270 C 
BRANCH  16  22
ATOM     17  N   LIG    1       -7.301   0.753 -10.221  0.00  0.00    -0.730 N 
ATOM     18  H   LIG    1       -7.196   1.572 -10.729  0.00  0.00    +0.400 HD
ATOM     19  C   LIG    1       -6.619   0.580  -9.072  0.00  0.00    +0.700 C 
ATOM     20  N   LIG    1       -5.790   1.546  -8.629  0.00  0.00    -0.690 N 
ATOM     21  H   LIG    1       -5.684   2.366  -9.137  0.00  0.00    +0.410 HD
ATOM     22  C   LIG    1       -5.107   1.374  -7.479  0.00  0.00    +0.520 C 
ATOM     23  O   LIG    1       -5.239   0.350  -6.844  0.00  0.00    -0.440 OA
ATOM     24  O   LIG    1       -6.751  -0.446  -8.435  0.00  0.00    -0.520 OA
BRANCH  17  25
ATOM     25  C   LIG    1       -8.202  -0.297 -10.703  0.00  0.00    +0.320 C 
BRANCH  25  27
ATOM     26  C   LIG    1       -8.740  -0.615 -13.063  0.00  0.00    +0.050 C 
ATOM     27  C   LIG    1       -8.837   0.141 -11.997  0.00  0.00    -0.060 C 
ENDBRANCH  25  27
ENDBRANCH  17  25
ENDBRANCH  16  22
ENDBRANCH  15  16
ENDBRANCH   1  15
TORSDOF 8
