REMARK  Name = ZINCvU0000000CJo.0
REMARK                            x       y       z     vdW  Elec       q    Type
REMARK                         _______ _______ _______ _____ _____    ______ ____
ROOT
ATOM      1  O   LIG    1        2.513  -2.319  -0.211  0.00  0.00    -0.510 OA
ATOM      2  C   LIG    1        3.613  -1.832  -0.057  0.00  0.00    +0.510 C 
ATOM      3  N   LIG    1        3.762  -0.493  -0.051  0.00  0.00    -0.660 N 
ATOM      4  H   LIG    1        4.645  -0.103   0.050  0.00  0.00    +0.420 HD
ENDROOT
BRANCH   3   5
ATOM      5  C   LIG    1        2.642   0.337  -0.191  0.00  0.00    +0.120 A 
ATOM      6  C   LIG    1        1.487  -0.148  -0.785  0.00  0.00    +0.060 A 
ATOM      7  C   LIG    1        0.383   0.673  -0.922  0.00  0.00    +0.000 A 
ATOM      8  C   LIG    1        0.427   1.978  -0.467  0.00  0.00    +0.030 A 
ATOM      9  C   LIG    1        1.576   2.469   0.127  0.00  0.00    -0.040 A 
ATOM     10  C   LIG    1        2.686   1.653   0.268  0.00  0.00    +0.090 A 
BRANCH  10  11
ATOM     11  O   LIG    1        3.816   2.134   0.851  0.00  0.00    -0.260 OA
BRANCH  11  12
ATOM     12  C   LIG    1        3.781   3.390   1.369  0.00  0.00    +0.080 A 
ATOM     13  C   LIG    1        4.411   4.433   0.705  0.00  0.00    +0.010 A 
ATOM     14  C   LIG    1        4.370   5.709   1.231  0.00  0.00    +0.030 A 
ATOM     15  C   LIG    1        3.712   5.946   2.424  0.00  0.00    +0.010 A 
ATOM     16  C   LIG    1        3.088   4.907   3.090  0.00  0.00    +0.030 A 
ATOM     17  C   LIG    1        3.121   3.630   2.565  0.00  0.00    +0.000 A 
ENDBRANCH  11  12
ENDBRANCH  10  11
ENDBRANCH   3   5
BRANCH   2  18
ATOM     18  C   LIG    1        4.814  -2.725   0.127  0.00  0.00    +0.300 C 
BRANCH  18  19
ATOM     19  N   LIG    1        4.391  -4.127   0.082  0.00  0.00    -0.720 N 
ATOM     20  H   LIG    1        3.456  -4.348  -0.051  0.00  0.00    +0.420 HD
BRANCH  19  21
ATOM     21  C   LIG    1        5.337  -5.148   0.230  0.00  0.00    +0.260 A 
ATOM     22  C   LIG    1        6.675  -4.835   0.414  0.00  0.00    -0.050 A 
ATOM     23  C   LIG    1        7.608  -5.846   0.566  0.00  0.00    +0.020 A 
ATOM     24  C   LIG    1        7.210  -7.170   0.523  0.00  0.00    -0.030 A 
ATOM     25  C   LIG    1        5.878  -7.491   0.335  0.00  0.00    +0.050 A 
ATOM     26 CL   LIG    1        9.282  -5.452   0.803  0.00  0.00    -0.070 Cl
ATOM     27  C   LIG    1        4.937  -6.484   0.188  0.00  0.00    +0.010 A 
BRANCH  27  28
ATOM     28  N   LIG    1        3.587  -6.807  -0.003  0.00  0.00    -0.490 N 
ATOM     29  C   LIG    1        3.043  -7.507   1.169  0.00  0.00    +0.160 C 
ATOM     30  C   LIG    1        1.554  -7.787   0.944  0.00  0.00    +0.220 C 
ATOM     31  O   LIG    1        1.394  -8.541  -0.261  0.00  0.00    -0.380 OA
ATOM     32  C   LIG    1        1.913  -7.888  -1.423  0.00  0.00    +0.220 C 
ATOM     33  C   LIG    1        3.404  -7.609  -1.221  0.00  0.00    +0.160 C 
ENDBRANCH  27  28
ENDBRANCH  19  21
ENDBRANCH  18  19
ENDBRANCH   2  18
TORSDOF 7
