REMARK  Name = ZINCrD0000074kuU.0
REMARK                            x       y       z     vdW  Elec       q    Type
REMARK                         _______ _______ _______ _____ _____    ______ ____
ROOT
ATOM      1  C   LIG    1       -4.043   5.519  -0.683  0.00  0.00    +0.160 C 
ATOM      2  C   LIG    1       -4.130   5.688  -2.202  0.00  0.00    +0.070 C 
ENDROOT
BRANCH   1   3
ATOM      3  C   LIG    1       -4.169   6.867  -0.020  0.00  0.00    +0.450 C 
ATOM      4  O   LIG    1       -3.185   7.411   0.439  0.00  0.00    -0.420 OA
BRANCH   3   7
ATOM      5  C   LIG    1       -6.094   6.673   2.402  0.00  0.00    +0.150 C 
ATOM      6  C   LIG    1       -6.319   7.439   1.123  0.00  0.00    +0.150 A 
ATOM      7  C   LIG    1       -5.434   7.499   0.067  0.00  0.00    -0.280 A 
ATOM      8  C   LIG    1       -6.068   8.359  -0.951  0.00  0.00    -0.060 A 
ATOM      9  C   LIG    1       -5.687   8.803  -2.214  0.00  0.00    +0.030 A 
ATOM     10  C   LIG    1       -6.531   9.622  -2.933  0.00  0.00    +0.000 A 
ATOM     11  C   LIG    1       -7.754  10.004  -2.401  0.00  0.00    +0.030 A 
ATOM     12  C   LIG    1       -8.146   9.565  -1.155  0.00  0.00    +0.000 A 
ATOM     13  C   LIG    1       -7.306   8.741  -0.413  0.00  0.00    +0.090 A 
ATOM     14  N   LIG    1       -7.414   8.168   0.838  0.00  0.00    -0.570 N 
ATOM     15  H   LIG    1       -8.175   8.275   1.430  0.00  0.00    +0.420 HD
ENDBRANCH   3   7
ENDBRANCH   1   3
BRANCH   1  16
ATOM     16  O   LIG    1       -2.765   4.925  -0.335  0.00  0.00    -0.320 OA
BRANCH  16  17
ATOM     17  C   LIG    1       -2.710   3.580  -0.282  0.00  0.00    +0.490 C 
ATOM     18  O   LIG    1       -3.703   2.922  -0.521  0.00  0.00    -0.480 OA
BRANCH  17  19
ATOM     19  C   LIG    1       -1.443   2.906   0.066  0.00  0.00    -0.040 A 
ATOM     20  C   LIG    1       -0.275   3.652   0.237  0.00  0.00    +0.080 A 
ATOM     21  C   LIG    1        0.905   3.016   0.562  0.00  0.00    +0.060 A 
ATOM     22  C   LIG    1        0.933   1.642   0.719  0.00  0.00    +0.040 A 
ATOM     23  C   LIG    1       -0.220   0.896   0.551  0.00  0.00    +0.130 A 
ATOM     24  C   LIG    1       -1.406   1.518   0.221  0.00  0.00    -0.610 A 
BRANCH  24  25
ATOM     25  S   LIG    1       -2.872   0.566   0.001  0.00  0.00    +2.510 S 
ATOM     26  O   LIG    1       -3.842   1.226   0.802  0.00  0.00    -0.910 OA
ATOM     27  O   LIG    1       -2.470  -0.767   0.287  0.00  0.00    -0.950 OA
ATOM     28  C   LIG    1       -3.269   0.748  -1.760  0.00  0.00    -0.250 C 
ENDBRANCH  24  25
ENDBRANCH  17  19
ENDBRANCH  16  17
ENDBRANCH   1  16
TORSDOF 6
