REMARK  Name = ZINCpk00000xI0yV.0
REMARK                            x       y       z     vdW  Elec       q    Type
REMARK                         _______ _______ _______ _____ _____    ______ ____
ROOT
ATOM      1  C   LIG    1       -2.637   0.935   2.114  0.00  0.00    +0.140 C 
ATOM      2  C   LIG    1       -3.352   2.261   2.080  0.00  0.00    -0.100 A 
ATOM      3  C   LIG    1       -4.640   2.357   2.515  0.00  0.00    +0.140 A 
ATOM      4  C   LIG    1       -5.293   3.597   2.477  0.00  0.00    +0.000 A 
ATOM      5  C   LIG    1       -4.647   4.689   2.008  0.00  0.00    +0.290 A 
ATOM      6  N   LIG    1       -3.360   4.602   1.566  0.00  0.00    -0.440 N 
ATOM      7  C   LIG    1       -2.750   5.712   1.092  0.00  0.00    +0.550 A 
ATOM      8  C   LIG    1       -1.415   5.603   0.625  0.00  0.00    -0.360 A 
ATOM      9  C   LIG    1       -0.768   4.349   0.717  0.00  0.00    +0.510 A 
ATOM     10  N   LIG    1        0.545   4.234   0.313  0.00  0.00    -0.490 N 
ATOM     11  C   LIG    1        1.005   5.144  -0.631  0.00  0.00    +0.470 A 
ATOM     12  C   LIG    1        0.474   6.519  -0.558  0.00  0.00    -0.190 A 
ATOM     13  N   LIG    1        1.870   4.797  -1.550  0.00  0.00    -0.720 NA
ATOM     14  H   LIG    1        2.177   5.450  -2.199  0.00  0.00    +0.360 HD
ATOM     15  N   LIG    1       -1.429   3.304   1.189  0.00  0.00    -0.530 NA
ATOM     16  C   LIG    1       -0.753   6.709   0.068  0.00  0.00    +0.260 A 
ATOM     17  O   LIG    1       -3.333   6.781   1.067  0.00  0.00    -0.500 OA
ATOM     18  C   LIG    1       -2.694   3.408   1.599  0.00  0.00    +0.440 A 
ENDROOT
BRANCH  12  19
ATOM     19  C   LIG    1        1.201   7.622  -1.109  0.00  0.00    +0.270 C 
ATOM     20  N   LIG    1        1.778   8.498  -1.547  0.00  0.00    -0.420 NA
ENDBRANCH  12  19
BRANCH  10  21
ATOM     21  C   LIG    1        1.423   3.197   0.862  0.00  0.00    +0.330 C 
BRANCH  21  22
ATOM     22  C   LIG    1        1.326   1.937  -0.000  0.00  0.00    +0.160 C 
ATOM     23  C   LIG    1        2.192   0.804   0.604  0.00  0.00    +0.010 C 
ATOM     24  C   LIG    1        1.480  -0.451   0.029  0.00  0.00    +0.010 C 
ATOM     25  C   LIG    1        0.002  -0.004   0.002  0.00  0.00    +0.180 C 
ATOM     26  O   LIG    1       -0.017   1.428   0.010  0.00  0.00    -0.350 OA
ENDBRANCH  21  22
ENDBRANCH  10  21
TORSDOF 3
