REMARK  Name = ZINCtV00001bB36w.0
REMARK                            x       y       z     vdW  Elec       q    Type
REMARK                         _______ _______ _______ _____ _____    ______ ____
ROOT
ATOM      1  C   LIG    1       -6.089   0.858  -0.048  0.00  0.00    -0.130 A 
ATOM      2  C   LIG    1       -6.629  -0.417  -0.015  0.00  0.00    +0.010 A 
ATOM      3  O   LIG    1       -5.635  -1.321   0.037  0.00  0.00    -0.140 OA
ATOM      4  C   LIG    1       -4.428  -0.721   0.041  0.00  0.00    +0.080 A 
ATOM      5  C   LIG    1       -3.128  -1.216   0.086  0.00  0.00    -0.030 A 
ATOM      6  C   LIG    1       -2.058  -0.350   0.078  0.00  0.00    +0.080 A 
ATOM      7  C   LIG    1       -2.258   1.027   0.025  0.00  0.00    +0.120 A 
ATOM      8  C   LIG    1       -3.541   1.540  -0.013  0.00  0.00    -0.050 A 
ATOM      9 BR   LIG    1       -3.817   3.410  -0.076  0.00  0.00    -0.010 Br
ATOM     10  C   LIG    1       -2.892  -2.704   0.142  0.00  0.00    +0.130 C 
ATOM     11  C   LIG    1       -4.631   0.670  -0.011  0.00  0.00    -0.080 A 
ENDROOT
BRANCH   1  12
ATOM     12  C   LIG    1       -6.822   2.138  -0.107  0.00  0.00    +0.540 C 
ATOM     13  O   LIG    1       -7.102   2.629  -1.183  0.00  0.00    -0.470 OA
BRANCH  12  14
ATOM     14  O   LIG    1       -7.182   2.762   1.032  0.00  0.00    -0.340 OA
BRANCH  14  16
ATOM     15  C   LIG    1       -8.221   4.571   2.287  0.00  0.00    +0.070 C 
ATOM     16  C   LIG    1       -7.901   4.016   0.898  0.00  0.00    +0.210 C 
ENDBRANCH  14  16
ENDBRANCH  12  14
ENDBRANCH   1  12
BRANCH   2  17
ATOM     17  C   LIG    1       -8.062  -0.732  -0.035  0.00  0.00    +0.570 C 
ATOM     18  O   LIG    1       -8.429  -1.888  -0.003  0.00  0.00    -0.410 OA
ENDBRANCH   2  17
BRANCH   7  19
ATOM     19  O   LIG    1       -1.190   1.868   0.018  0.00  0.00    -0.280 OA
BRANCH  19  20
ATOM     20  C   LIG    1       -0.787   2.356   1.207  0.00  0.00    +0.510 C 
ATOM     21  O   LIG    1       -1.311   1.967   2.232  0.00  0.00    -0.470 OA
BRANCH  20  22
ATOM     22  C   LIG    1        0.297   3.358   1.266  0.00  0.00    -0.100 A 
ATOM     23  C   LIG    1        0.905   3.802   0.090  0.00  0.00    +0.110 A 
ATOM     24  C   LIG    1        1.913   4.743   0.151  0.00  0.00    -0.040 A 
ATOM     25  C   LIG    1        2.330   5.238   1.376  0.00  0.00    +0.100 A 
ATOM     26  C   LIG    1        1.734   4.797   2.546  0.00  0.00    -0.040 A 
ATOM     27 CL   LIG    1        2.263   5.424   4.076  0.00  0.00    -0.040 Cl
ATOM     28 CL   LIG    1        2.666   5.303  -1.310  0.00  0.00    -0.040 Cl
ATOM     29  C   LIG    1        0.721   3.861   2.497  0.00  0.00    +0.120 A 
ENDBRANCH  20  22
ENDBRANCH  19  20
ENDBRANCH   7  19
TORSDOF 7
