REMARK  Name = ZINCpe000000SYLv.0
REMARK                            x       y       z     vdW  Elec       q    Type
REMARK                         _______ _______ _______ _____ _____    ______ ____
ROOT
ATOM      1  C   LIG    1       -7.878   6.746  -5.323  0.00  0.00    -0.090 A 
ATOM      2  C   LIG    1       -8.229   6.201  -4.102  0.00  0.00    +0.020 A 
ATOM      3  C   LIG    1       -7.343   6.250  -3.043  0.00  0.00    +0.030 A 
ATOM      4  C   LIG    1       -6.105   6.843  -3.204  0.00  0.00    -0.100 A 
ATOM      5  C   LIG    1       -5.756   7.393  -4.424  0.00  0.00    +0.030 A 
ATOM      6  C   LIG    1       -6.640   7.340  -5.485  0.00  0.00    +0.020 A 
ENDROOT
BRANCH   1   7
ATOM      7  C   LIG    1       -8.845   6.692  -6.478  0.00  0.00    -0.300 C 
BRANCH   7   8
ATOM      8  S   LIG    1       -9.891   8.174  -6.461  0.00  0.00    +2.610 S 
ATOM      9  O   LIG    1       -9.124   9.329  -6.770  0.00  0.00    -0.950 OA
ATOM     10  O   LIG    1      -10.766   8.152  -5.341  0.00  0.00    -0.950 OA
BRANCH   8  11
ATOM     11  N   LIG    1      -10.893   7.987  -7.766  0.00  0.00    -1.120 NA
ATOM     12  H   LIG    1      -10.838   8.604  -8.512  0.00  0.00    +0.420 HD
BRANCH  11  14
ATOM     13  C   LIG    1      -13.137   7.353  -8.504  0.00  0.00    +0.040 C 
ATOM     14  C   LIG    1      -11.864   6.890  -7.794  0.00  0.00    +0.230 C 
ATOM     15  C   LIG    1      -11.265   5.699  -8.545  0.00  0.00    +0.020 C 
ENDBRANCH  11  14
ENDBRANCH   8  11
ENDBRANCH   7   8
ENDBRANCH   1   7
BRANCH   4  16
ATOM     16  C   LIG    1       -5.138   6.897  -2.050  0.00  0.00    +0.320 C 
BRANCH  16  17
ATOM     17  N   LIG    1       -4.293   5.700  -2.064  0.00  0.00    -0.720 N 
ATOM     18  H   LIG    1       -4.414   5.030  -2.755  0.00  0.00    +0.400 HD
ATOM     19  C   LIG    1       -3.349   5.530  -1.118  0.00  0.00    +0.520 C 
ATOM     20  O   LIG    1       -3.198   6.369  -0.254  0.00  0.00    -0.540 OA
BRANCH  19  21
ATOM     21  C   LIG    1       -2.480   4.299  -1.133  0.00  0.00    +0.060 C 
BRANCH  21  22
ATOM     22  C   LIG    1       -1.498   4.354   0.040  0.00  0.00    +0.360 C 
BRANCH  22  23
ATOM     23  N   LIG    1       -0.654   3.157   0.025  0.00  0.00    -0.380 N 
ATOM     24  C   LIG    1        0.690   3.119   0.012  0.00  0.00    +0.480 A 
ATOM     25  N   LIG    1        1.061   1.865   0.002  0.00  0.00    -0.550 NA
ATOM     26  C   LIG    1       -0.013   1.076   0.008  0.00  0.00    +0.420 A 
ATOM     27  N   LIG    1       -1.087   1.821   0.017  0.00  0.00    -0.320 NA
ENDBRANCH  22  23
ENDBRANCH  21  22
ENDBRANCH  19  21
ENDBRANCH  16  17
ENDBRANCH   4  16
TORSDOF 9
