REMARK  Name = ZINCqH0000005kq0.0
REMARK                            x       y       z     vdW  Elec       q    Type
REMARK                         _______ _______ _______ _____ _____    ______ ____
ROOT
ATOM      1  C   LIG    1        0.032   2.458  -0.515  0.00  0.00    +0.250 C 
ATOM      2  C   LIG    1       -0.680   3.009   0.722  0.00  0.00    +0.010 C 
ATOM      3  C   LIG    1       -1.802   2.049   1.131  0.00  0.00    +0.270 C 
ATOM      4  N   LIG    1       -2.683   1.832  -0.025  0.00  0.00    -0.600 N 
ATOM      5  C   LIG    1       -2.088   1.389  -1.293  0.00  0.00    +0.300 C 
ATOM      6  C   LIG    1       -4.011   2.037   0.076  0.00  0.00    +0.600 C 
ATOM      7  O   LIG    1       -4.732   1.838  -0.884  0.00  0.00    -0.530 OA
ATOM      8  C   LIG    1       -0.963   2.356  -1.674  0.00  0.00    +0.000 C 
ENDROOT
BRANCH   6   9
ATOM      9  C   LIG    1       -4.588   2.498   1.343  0.00  0.00    -0.300 A 
ATOM     10  C   LIG    1       -4.088   2.263   2.582  0.00  0.00    +0.280 A 
ATOM     11  N   LIG    1       -4.791   2.791   3.553  0.00  0.00    -0.450 NA
ATOM     12  C   LIG    1       -5.857   3.448   3.227  0.00  0.00    +0.040 A 
ATOM     13  S   LIG    1       -6.058   3.451   1.529  0.00  0.00    +0.250 S 
BRANCH  12  14
ATOM     14  C   LIG    1       -6.789   4.115   4.205  0.00  0.00    +0.240 C 
ATOM     15  C   LIG    1       -6.139   5.393   4.781  0.00  0.00    +0.030 C 
ATOM     16  C   LIG    1       -6.596   5.414   6.257  0.00  0.00    +0.010 C 
ATOM     17  C   LIG    1       -7.468   4.147   6.398  0.00  0.00    +0.210 C 
ATOM     18  O   LIG    1       -7.011   3.264   5.350  0.00  0.00    -0.350 OA
ENDBRANCH  12  14
ENDBRANCH   6   9
BRANCH   1  20
ATOM     19  C   LIG    1        0.835   4.722  -1.333  0.00  0.00    +0.280 C 
ATOM     20  N   LIG    1        1.127   3.357  -0.889  0.00  0.00    -0.630 N 
BRANCH  20  21
ATOM     21  C   LIG    1        2.449   2.912  -0.823  0.00  0.00    +0.220 A 
ATOM     22  C   LIG    1        3.494   3.795  -1.065  0.00  0.00    -0.080 A 
ATOM     23  C   LIG    1        4.800   3.353  -0.994  0.00  0.00    +0.050 A 
ATOM     24  C   LIG    1        5.069   2.030  -0.692  0.00  0.00    -0.060 A 
ATOM     25  C   LIG    1        4.031   1.147  -0.455  0.00  0.00    +0.050 A 
ATOM     26  C   LIG    1        2.722   1.584  -0.520  0.00  0.00    -0.080 A 
ENDBRANCH  20  21
ENDBRANCH   1  20
TORSDOF 4
