REMARK  Name = ZINCrD000000AqSk.0
REMARK                            x       y       z     vdW  Elec       q    Type
REMARK                         _______ _______ _______ _____ _____    ______ ____
ROOT
ATOM      1  O   LIG    1       -3.567   1.978  -0.566  0.00  0.00    -0.480 OA
ATOM      2  C   LIG    1       -3.610   3.140  -0.224  0.00  0.00    +0.520 C 
ATOM      3  N   LIG    1       -2.469   3.806   0.045  0.00  0.00    -0.550 N 
ATOM      4  C   LIG    1       -2.494   5.247   0.330  0.00  0.00    +0.280 C 
ATOM      5  C   LIG    1       -1.350   5.900  -0.456  0.00  0.00    +0.260 C 
ATOM      6  C   LIG    1       -0.020   5.345   0.052  0.00  0.00    +0.100 C 
ATOM      7  C   LIG    1       -0.045   3.839   0.057  0.00  0.00    -0.110 A 
ATOM      8  C   LIG    1        1.156   3.149   0.064  0.00  0.00    +0.040 A 
ATOM      9  C   LIG    1        1.166   1.768   0.073  0.00  0.00    +0.000 A 
ATOM     10  C   LIG    1       -0.024   1.064   0.076  0.00  0.00    +0.030 A 
ATOM     11  C   LIG    1       -1.226   1.744   0.063  0.00  0.00    +0.020 A 
ATOM     12  C   LIG    1       -1.239   3.134   0.058  0.00  0.00    +0.150 A 
ENDROOT
BRANCH   5  13
ATOM     13  N   LIG    1       -1.384   7.351  -0.258  0.00  0.00    -0.370 N 
ATOM     14  C   LIG    1       -0.841   8.024   0.779  0.00  0.00    +0.220 A 
ATOM     15  C   LIG    1       -1.086   9.341   0.590  0.00  0.00    -0.120 A 
ATOM     16  C   LIG    1       -1.812   9.477  -0.598  0.00  0.00    +0.240 A 
ATOM     17  N   LIG    1       -1.992   8.285  -1.107  0.00  0.00    -0.290 NA
ENDBRANCH   5  13
BRANCH   2  18
ATOM     18  C   LIG    1       -4.938   3.841  -0.101  0.00  0.00    +0.240 C 
BRANCH  18  19
ATOM     19  O   LIG    1       -5.994   2.903  -0.317  0.00  0.00    -0.280 OA
BRANCH  19  20
ATOM     20  C   LIG    1       -7.266   3.377  -0.240  0.00  0.00    +0.090 A 
ATOM     21  C   LIG    1       -7.492   4.716   0.038  0.00  0.00    +0.000 A 
ATOM     22  C   LIG    1       -8.786   5.197   0.115  0.00  0.00    +0.030 A 
ATOM     23  C   LIG    1       -9.857   4.342  -0.085  0.00  0.00    +0.100 A 
ATOM     24  C   LIG    1       -9.634   3.004  -0.363  0.00  0.00    +0.010 A 
ATOM     25  F   LIG    1      -11.120   4.814  -0.008  0.00  0.00    -0.130 F 
ATOM     26  C   LIG    1       -8.341   2.521  -0.446  0.00  0.00    +0.110 A 
ATOM     27  F   LIG    1       -8.123   1.216  -0.722  0.00  0.00    -0.120 F 
ENDBRANCH  19  20
ENDBRANCH  18  19
ENDBRANCH   2  18
TORSDOF 4
