REMARK  Name = ZINCpk00000l0c6i.0
REMARK                            x       y       z     vdW  Elec       q    Type
REMARK                         _______ _______ _______ _____ _____    ______ ____
ROOT
ATOM      1  O   LIG    1        4.578   0.601  -1.468  0.00  0.00    -0.330 OA
ENDROOT
BRANCH   1   2
ATOM      2  C   LIG    1        5.873   0.938  -1.577  0.00  0.00    +0.470 C 
ATOM      3  O   LIG    1        6.285   1.936  -1.036  0.00  0.00    -0.490 OA
BRANCH   2   4
ATOM      4  C   LIG    1        6.812   0.071  -2.376  0.00  0.00    +0.110 C 
BRANCH   4   5
ATOM      5  C   LIG    1        8.217   0.675  -2.341  0.00  0.00    -0.040 C 
ATOM      6  C   LIG    1        8.703   0.753  -0.892  0.00  0.00    +0.030 C 
ATOM      7  C   LIG    1       10.108   1.357  -0.857  0.00  0.00    -0.010 C 
ATOM      8  C   LIG    1       10.074   2.763  -1.460  0.00  0.00    +0.010 C 
ATOM      9  C   LIG    1        9.589   2.685  -2.909  0.00  0.00    -0.010 C 
ATOM     10  C   LIG    1       10.542   1.805  -3.720  0.00  0.00    +0.010 C 
ATOM     11  C   LIG    1       10.576   0.399  -3.116  0.00  0.00    -0.010 C 
ATOM     12  C   LIG    1       11.062   0.477  -1.668  0.00  0.00    +0.010 C 
ATOM     13  C   LIG    1        8.183   2.081  -2.944  0.00  0.00    +0.030 C 
ATOM     14  C   LIG    1        9.171  -0.205  -3.151  0.00  0.00    +0.020 C 
ENDBRANCH   4   5
ENDBRANCH   2   4
ENDBRANCH   1   2
BRANCH   1  15
ATOM     15  C   LIG    1        3.732   1.482  -0.683  0.00  0.00    +0.250 C 
BRANCH  15  17
ATOM     16  O   LIG    1        2.058  -0.076  -1.268  0.00  0.00    -0.510 OA
ATOM     17  C   LIG    1        2.323   0.947  -0.673  0.00  0.00    +0.520 C 
ATOM     18  N   LIG    1        1.357   1.606  -0.002  0.00  0.00    -0.720 N 
ATOM     19  H   LIG    1        1.569   2.424   0.473  0.00  0.00    +0.410 HD
BRANCH  18  20
ATOM     20  C   LIG    1       -0.013   1.086   0.008  0.00  0.00    +0.270 C 
ATOM     21  C   LIG    1       -0.784   1.609  -1.216  0.00  0.00    +0.060 C 
ATOM     22  C   LIG    1       -2.288   1.335  -1.005  0.00  0.00    -0.310 C 
ATOM     23  S   LIG    1       -2.522   1.333   0.809  0.00  0.00    +2.400 S 
ATOM     24  O   LIG    1       -3.285   2.470   1.190  0.00  0.00    -0.930 OA
ATOM     25  O   LIG    1       -2.925   0.037   1.230  0.00  0.00    -0.930 OA
ATOM     26  C   LIG    1       -0.766   1.600   1.262  0.00  0.00    -0.310 C 
ENDBRANCH  18  20
ENDBRANCH  15  17
ENDBRANCH   1  15
TORSDOF 6
