REMARK  Name = ZINCqH0000000kng.0
REMARK                            x       y       z     vdW  Elec       q    Type
REMARK                         _______ _______ _______ _____ _____    ______ ____
ROOT
ATOM      1  N   LIG    1        2.140   3.430   0.000  0.00  0.00    -0.510 N 
ATOM      2  C   LIG    1        3.458   3.708  -0.010  0.00  0.00    +0.570 A 
ATOM      3  C   LIG    1        4.393   2.626  -0.024  0.00  0.00    -0.230 A 
ATOM      4  C   LIG    1        3.883   1.327  -0.027  0.00  0.00    +0.090 A 
ATOM      5  S   LIG    1        5.214   0.176  -0.045  0.00  0.00    +0.230 S 
ATOM      6  C   LIG    1        6.399   1.470  -0.049  0.00  0.00    -0.160 A 
ATOM      7  N   LIG    1        2.552   1.130  -0.011  0.00  0.00    -0.480 NA
ATOM      8  C   LIG    1        5.796   2.660  -0.037  0.00  0.00    +0.090 A 
ATOM      9  O   LIG    1        3.847   4.863  -0.007  0.00  0.00    -0.510 OA
ATOM     10  C   LIG    1        1.708   2.135  -0.003  0.00  0.00    +0.360 A 
ENDROOT
BRANCH   6  11
ATOM     11  C   LIG    1        7.863   1.270  -0.062  0.00  0.00    -0.010 A 
ATOM     12  C   LIG    1        8.721   2.372  -0.069  0.00  0.00    +0.030 A 
ATOM     13  C   LIG    1       10.087   2.178  -0.076  0.00  0.00    +0.020 A 
ATOM     14  C   LIG    1       10.607   0.896  -0.088  0.00  0.00    +0.010 A 
ATOM     15  C   LIG    1        9.762  -0.200  -0.087  0.00  0.00    +0.020 A 
ATOM     16  C   LIG    1        8.395  -0.021  -0.074  0.00  0.00    +0.010 A 
ENDBRANCH   6  11
BRANCH   1  17
ATOM     17  C   LIG    1        1.165   4.523   0.015  0.00  0.00    +0.330 C 
BRANCH  17  19
ATOM     18  C   LIG    1        0.987   6.128   1.846  0.00  0.00    +0.070 C 
ATOM     19  C   LIG    1        0.844   4.891   1.440  0.00  0.00    -0.070 C 
ENDBRANCH  17  19
ENDBRANCH   1  17
BRANCH  10  20
ATOM     20  S   LIG    1       -0.022   1.806   0.012  0.00  0.00    +0.070 S 
BRANCH  20  21
ATOM     21  C   LIG    1        0.002  -0.004   0.002  0.00  0.00    -0.010 C 
ATOM     22  C   LIG    1       -1.435  -0.562   0.100  0.00  0.00    +0.090 C 
ATOM     23  C   LIG    1       -1.435  -1.657  -0.991  0.00  0.00    +0.270 C 
ATOM     24  O   LIG    1       -0.431  -1.212  -1.951  0.00  0.00    -0.340 OA
ATOM     25  C   LIG    1        0.529  -0.516  -1.321  0.00  0.00    +0.490 C 
ATOM     26  O   LIG    1        1.645  -0.326  -1.744  0.00  0.00    -0.410 OA
ENDBRANCH  20  21
ENDBRANCH  10  20
TORSDOF 5
