REMARK  Name = ZINCqH0000036ckk.0
REMARK                            x       y       z     vdW  Elec       q    Type
REMARK                         _______ _______ _______ _____ _____    ______ ____
ROOT
ATOM      1  N   LIG    1       -4.400   6.284   0.547  0.00  0.00    -0.660 NA
ATOM      2  H   LIG    1       -4.307   5.340   0.891  0.00  0.00    +0.350 HD
ENDROOT
BRANCH   1   3
ATOM      3  C   LIG    1       -4.649   6.294  -0.900  0.00  0.00    +0.220 C 
BRANCH   3   9
ATOM      4  C   LIG    1       -0.596   2.170  -3.780  0.00  0.00    +0.130 A 
ATOM      5  C   LIG    1       -0.468   3.512  -3.564  0.00  0.00    -0.020 A 
ATOM      6  C   LIG    1       -1.494   4.210  -2.907  0.00  0.00    -0.010 A 
ATOM      7  C   LIG    1       -1.398   5.592  -2.667  0.00  0.00    +0.010 A 
ATOM      8  C   LIG    1       -2.412   6.237  -2.028  0.00  0.00    +0.050 A 
ATOM      9  C   LIG    1       -3.547   5.547  -1.605  0.00  0.00    -0.090 A 
ATOM     10  C   LIG    1       -3.674   4.209  -1.820  0.00  0.00    +0.030 A 
ATOM     11  C   LIG    1       -2.649   3.509  -2.477  0.00  0.00    -0.080 A 
ATOM     12  C   LIG    1       -2.749   2.128  -2.721  0.00  0.00    +0.070 A 
ATOM     13  C   LIG    1       -1.735   1.480  -3.355  0.00  0.00    -0.060 A 
BRANCH   4  15
ATOM     14  C   LIG    1        0.207   0.093  -4.613  0.00  0.00    +0.250 C 
ATOM     15  O   LIG    1        0.398   1.495  -4.416  0.00  0.00    -0.320 OA
ENDBRANCH   4  15
ENDBRANCH   3   9
ENDBRANCH   1   3
BRANCH   1  16
ATOM     16  C   LIG    1       -5.458   7.004   1.269  0.00  0.00    +0.190 C 
BRANCH  16  17
ATOM     17  C   LIG    1       -5.543   6.489   2.682  0.00  0.00    -0.100 A 
ATOM     18  C   LIG    1       -4.389   6.300   3.420  0.00  0.00    +0.050 A 
ATOM     19  C   LIG    1       -4.467   5.831   4.718  0.00  0.00    +0.010 A 
ATOM     20  C   LIG    1       -5.699   5.542   5.275  0.00  0.00    +0.010 A 
ATOM     21  C   LIG    1       -6.852   5.726   4.536  0.00  0.00    +0.010 A 
ATOM     22  C   LIG    1       -6.774   6.199   3.239  0.00  0.00    +0.010 A 
ENDBRANCH  16  17
BRANCH  16  23
ATOM     23  C   LIG    1       -5.138   8.477   1.290  0.00  0.00    +0.520 C 
ATOM     24  N   LIG    1       -6.133   9.382   1.363  0.00  0.00    -0.630 N 
ATOM     25  C   LIG    1       -7.519   8.935   1.528  0.00  0.00    +0.270 C 
ATOM     26  C   LIG    1       -5.831  10.813   1.276  0.00  0.00    +0.280 C 
ATOM     27  O   LIG    1       -3.984   8.847   1.242  0.00  0.00    -0.510 OA
ENDBRANCH  16  23
ENDBRANCH   1  16
TORSDOF 6
