REMARK  Name = ZINCrD00000lbppO.0
REMARK                            x       y       z     vdW  Elec       q    Type
REMARK                         _______ _______ _______ _____ _____    ______ ____
ROOT
ATOM      1  N   LIG    1       -3.360  -2.170  -2.802  0.00  0.00    -0.740 N 
ATOM      2  H   LIG    1       -2.857  -1.791  -3.540  0.00  0.00    +0.400 HD
ATOM      3  C   LIG    1       -4.488  -2.866  -3.043  0.00  0.00    +0.710 C 
ATOM      4  N   LIG    1       -4.918  -3.035  -4.310  0.00  0.00    -0.680 N 
ATOM      5  H   LIG    1       -4.454  -2.600  -5.042  0.00  0.00    +0.410 HD
ATOM      6  O   LIG    1       -5.119  -3.342  -2.119  0.00  0.00    -0.570 OA
ENDROOT
BRANCH   4   7
ATOM      7  C   LIG    1       -6.036  -3.841  -4.569  0.00  0.00    +0.080 A 
ATOM      8  C   LIG    1       -7.100  -3.881  -3.670  0.00  0.00    +0.100 A 
ATOM      9  C   LIG    1       -8.183  -4.689  -3.966  0.00  0.00    -0.030 A 
ATOM     10  C   LIG    1       -8.174  -5.430  -5.143  0.00  0.00    +0.300 A 
ATOM     11  N   LIG    1       -7.145  -5.368  -5.973  0.00  0.00    -0.500 NA
ATOM     12  C   LIG    1       -6.099  -4.603  -5.726  0.00  0.00    +0.270 A 
BRANCH  10  13
ATOM     13  N   LIG    1       -9.258  -6.247  -5.450  0.00  0.00    -0.470 N 
ATOM     14  C   LIG    1       -9.521  -7.203  -4.366  0.00  0.00    +0.190 C 
ATOM     15  C   LIG    1      -10.803  -7.983  -4.671  0.00  0.00    +0.020 C 
ATOM     16  C   LIG    1      -10.639  -8.723  -6.002  0.00  0.00    +0.010 C 
ATOM     17  C   LIG    1      -10.318  -7.711  -7.104  0.00  0.00    +0.020 C 
ATOM     18  C   LIG    1       -9.051  -6.939  -6.729  0.00  0.00    +0.210 C 
ENDBRANCH  10  13
ENDBRANCH   4   7
BRANCH   1  19
ATOM     19  C   LIG    1       -2.893  -1.986  -1.426  0.00  0.00    +0.300 C 
BRANCH  19  20
ATOM     20  C   LIG    1       -1.601  -1.166  -1.431  0.00  0.00    -0.040 C 
ATOM     21  C   LIG    1       -0.496  -1.960  -2.131  0.00  0.00    +0.030 C 
BRANCH  20  22
ATOM     22  C   LIG    1       -1.181  -0.868   0.010  0.00  0.00    +0.340 C 
BRANCH  22  29
ATOM     23  C   LIG    1       -1.271   2.231   0.026  0.00  0.00    +0.150 C 
ATOM     24  C   LIG    1       -0.038   1.365   0.013  0.00  0.00    +0.080 A 
ATOM     25  C   LIG    1        1.243   1.802   0.004  0.00  0.00    -0.120 A 
ATOM     26  C   LIG    1        2.080   0.681  -0.012  0.00  0.00    +0.070 A 
ATOM     27  N   LIG    1        1.328  -0.390  -0.012  0.00  0.00    -0.290 NA
ATOM     28  C   LIG    1        3.587   0.703  -0.027  0.00  0.00    +0.160 C 
ATOM     29  N   LIG    1       -0.012   0.016   0.004  0.00  0.00    -0.370 N 
ENDBRANCH  22  29
ENDBRANCH  20  22
ENDBRANCH  19  20
ENDBRANCH   1  19
TORSDOF 6
