REMARK  Name = ZINCpk000000p8D7.0
REMARK                            x       y       z     vdW  Elec       q    Type
REMARK                         _______ _______ _______ _____ _____    ______ ____
ROOT
ATOM      1  C   LIG    1        2.223   0.564  -0.016  0.00  0.00    -0.200 A 
ATOM      2  C   LIG    1        1.682   1.833  -0.004  0.00  0.00    +0.070 A 
ATOM      3  S   LIG    1       -0.022   1.752   0.012  0.00  0.00    +0.360 S 
ATOM      4  C   LIG    1        0.002  -0.004   0.002  0.00  0.00    -0.330 A 
ATOM      5  C   LIG    1        1.274  -0.450  -0.013  0.00  0.00    +0.040 A 
ATOM      6  C   LIG    1        1.633  -1.914  -0.025  0.00  0.00    +0.130 C 
ENDROOT
BRANCH   4   7
ATOM      7  C   LIG    1       -1.187  -0.859   0.008  0.00  0.00    +0.600 C 
ATOM      8  N   LIG    1       -2.415  -0.305   0.023  0.00  0.00    -0.730 N 
ATOM      9  H   LIG    1       -2.512   0.660   0.029  0.00  0.00    +0.400 HD
ATOM     10  C   LIG    1       -3.605  -1.161   0.029  0.00  0.00    +0.290 C 
ATOM     11  O   LIG    1       -1.065  -2.070   0.000  0.00  0.00    -0.520 OA
ENDBRANCH   4   7
BRANCH   2  12
ATOM     12  N   LIG    1        2.416   3.003  -0.005  0.00  0.00    -0.620 N 
ATOM     13  H   LIG    1        3.385   2.968  -0.015  0.00  0.00    +0.420 HD
ATOM     14  C   LIG    1        1.785   4.194   0.008  0.00  0.00    +0.530 C 
ATOM     15  O   LIG    1        0.574   4.238   0.020  0.00  0.00    -0.480 OA
BRANCH  14  16
ATOM     16  C   LIG    1        2.586   5.471   0.007  0.00  0.00    +0.130 C 
BRANCH  16  17
ATOM     17  S   LIG    1        1.459   6.892   0.026  0.00  0.00    +0.110 S 
BRANCH  17  18
ATOM     18  C   LIG    1        2.557   8.269   0.023  0.00  0.00    +0.190 A 
ATOM     19  N   LIG    1        2.199   9.532   0.034  0.00  0.00    -0.280 NA
ATOM     20  N   LIG    1        3.383  10.288   0.027  0.00  0.00    -0.480 N 
ATOM     21  H   LIG    1        3.454  11.255   0.032  0.00  0.00    +0.450 HD
ATOM     22  C   LIG    1        4.398   9.408   0.013  0.00  0.00    +0.510 A 
ATOM     23  N   LIG    1        3.892   8.200   0.015  0.00  0.00    -0.550 NA
ENDBRANCH  17  18
ENDBRANCH  16  17
ENDBRANCH  14  16
ENDBRANCH   2  12
BRANCH   1  24
ATOM     24  C   LIG    1        3.668   0.309  -0.031  0.00  0.00    +0.540 C 
ATOM     25  O   LIG    1        4.257   0.210  -1.091  0.00  0.00    -0.490 OA
BRANCH  24  26
ATOM     26  O   LIG    1        4.343   0.186   1.129  0.00  0.00    -0.350 OA
BRANCH  26  28
ATOM     27  C   LIG    1        6.360  -0.174   2.446  0.00  0.00    +0.070 C 
ATOM     28  C   LIG    1        5.771  -0.065   1.038  0.00  0.00    +0.200 C 
ENDBRANCH  26  28
ENDBRANCH  24  26
ENDBRANCH   1  24
TORSDOF 8
