REMARK  Name = ZINCpk000000p8hE.0
REMARK                            x       y       z     vdW  Elec       q    Type
REMARK                         _______ _______ _______ _____ _____    ______ ____
ROOT
ATOM      1  C   LIG    1       -0.137   0.230  -0.007  0.00  0.00    +0.340 C 
ATOM      2  C   LIG    1       -0.724  -0.025  -1.412  0.00  0.00    +0.050 C 
ATOM      3  C   LIG    1       -1.710  -1.201  -1.165  0.00  0.00    +0.040 C 
ATOM      4  C   LIG    1       -2.247  -0.868   0.249  0.00  0.00    +0.250 C 
ATOM      5  N   LIG    1       -1.089  -0.314   0.972  0.00  0.00    -0.610 N 
ATOM      6  C   LIG    1       -0.929  -0.307   2.311  0.00  0.00    +0.570 C 
ATOM      7  O   LIG    1        0.069   0.179   2.799  0.00  0.00    -0.530 OA
ENDROOT
BRANCH   6   8
ATOM      8  C   LIG    1       -1.990  -0.902   3.200  0.00  0.00    -0.050 C 
ATOM      9  C   LIG    1       -1.617  -1.176   4.659  0.00  0.00    +0.090 C 
ATOM     10  C   LIG    1       -1.783  -2.337   3.681  0.00  0.00    -0.100 C 
ATOM     11  C   LIG    1       -0.519  -3.071   3.219  0.00  0.00    +0.040 C 
ATOM     12  C   LIG    1       -0.863  -3.893   1.971  0.00  0.00    +0.210 C 
ATOM     13  O   LIG    1       -1.981  -4.737   2.253  0.00  0.00    -0.380 OA
ATOM     14  C   LIG    1       -3.194  -4.038   2.538  0.00  0.00    +0.210 C 
ATOM     15  C   LIG    1       -3.021  -3.228   3.829  0.00  0.00    +0.040 C 
ENDBRANCH   6   8
BRANCH   1  21
ATOM     16  C   LIG    1        1.247   2.433   0.230  0.00  0.00    -0.020 A 
ATOM     17  N   LIG    1        0.906   3.692   0.458  0.00  0.00    -0.210 NA
ATOM     18  N   LIG    1       -0.374   3.754   0.573  0.00  0.00    -0.220 N 
ATOM     19  H   LIG    1       -0.870   4.570   0.744  0.00  0.00    +0.480 HD
ATOM     20  N   LIG    1       -0.908   2.595   0.428  0.00  0.00    -0.270 NA
ATOM     21  C   LIG    1        0.036   1.711   0.215  0.00  0.00    +0.070 A 
BRANCH  16  22
ATOM     22  C   LIG    1        2.609   1.897   0.032  0.00  0.00    +0.570 C 
ATOM     23  O   LIG    1        2.772   0.711  -0.170  0.00  0.00    -0.490 OA
BRANCH  22  24
ATOM     24  O   LIG    1        3.671   2.725   0.076  0.00  0.00    -0.340 OA
BRANCH  24  26
ATOM     25  C   LIG    1        6.053   3.217  -0.042  0.00  0.00    +0.070 C 
ATOM     26  C   LIG    1        4.980   2.130  -0.127  0.00  0.00    +0.200 C 
ENDBRANCH  24  26
ENDBRANCH  22  24
ENDBRANCH  16  22
ENDBRANCH   1  21
TORSDOF 5
