REMARK  Name = ZINCvU0000000GlB.0
REMARK                            x       y       z     vdW  Elec       q    Type
REMARK                         _______ _______ _______ _____ _____    ______ ____
ROOT
ATOM      1  N   LIG    1        2.797  -0.955   0.905  0.00  0.00    -0.370 N 
ATOM      2  N   LIG    1        1.625  -1.729   0.941  0.00  0.00    -0.260 NA
ATOM      3  C   LIG    1        2.001  -2.974   1.131  0.00  0.00    +0.260 A 
ATOM      4  N   LIG    1        3.338  -3.012   1.214  0.00  0.00    -0.520 NA
ATOM      5  C   LIG    1        3.824  -1.807   1.075  0.00  0.00    +0.280 A 
ENDROOT
BRANCH   1   9
ATOM      6  C   LIG    1        0.143   0.932  -1.954  0.00  0.00    +0.050 C 
ATOM      7  C   LIG    1        0.780   0.504  -0.630  0.00  0.00    +0.170 C 
ATOM      8  C   LIG    1        2.266   0.872  -0.636  0.00  0.00    +0.010 C 
ATOM      9  C   LIG    1        2.883   0.495   0.714  0.00  0.00    +0.260 C 
ATOM     10  C   LIG    1        2.113   1.206   1.831  0.00  0.00    +0.010 C 
ATOM     11  C   LIG    1        0.633   0.826   1.742  0.00  0.00    +0.170 C 
ATOM     12  C   LIG    1       -0.153   1.579   2.817  0.00  0.00    +0.050 C 
ATOM     13  O   LIG    1        0.130   1.175   0.451  0.00  0.00    -0.370 OA
ENDBRANCH   1   9
BRANCH   3  14
ATOM     14  C   LIG    1        1.095  -4.144   1.236  0.00  0.00    +0.250 A 
ATOM     15  C   LIG    1        1.629  -5.414   1.433  0.00  0.00    -0.050 A 
ATOM     16  C   LIG    1        0.774  -6.500   1.535  0.00  0.00    +0.100 A 
ATOM     17  C   LIG    1       -0.589  -6.283   1.427  0.00  0.00    -0.090 A 
ATOM     18  C   LIG    1       -1.058  -4.988   1.225  0.00  0.00    +0.410 A 
ATOM     19  N   LIG    1       -0.217  -3.971   1.136  0.00  0.00    -0.520 NA
BRANCH  18  20
ATOM     20  N   LIG    1       -2.425  -4.762   1.114  0.00  0.00    -0.720 N 
ATOM     21  H   LIG    1       -2.764  -3.854   1.061  0.00  0.00    +0.400 HD
BRANCH  20  22
ATOM     22  C   LIG    1       -3.354  -5.894   1.078  0.00  0.00    +0.180 C 
ATOM     23  C   LIG    1       -2.956  -6.846  -0.051  0.00  0.00    +0.030 C 
ATOM     24  C   LIG    1       -4.775  -5.380   0.835  0.00  0.00    +0.050 C 
ATOM     25  C   LIG    1       -3.304  -6.638   2.414  0.00  0.00    +0.020 C 
ENDBRANCH  20  22
ENDBRANCH  18  20
ENDBRANCH   3  14
BRANCH   5  26
ATOM     26  C   LIG    1        5.284  -1.435   1.103  0.00  0.00    +0.160 C 
BRANCH  26  27
ATOM     27  C   LIG    1        5.702  -1.118   2.540  0.00  0.00    +0.150 C 
BRANCH  27  28
ATOM     28  C   LIG    1        7.162  -0.746   2.568  0.00  0.00    -0.010 A 
ATOM     29  C   LIG    1        7.661   0.495   2.422  0.00  0.00    -0.050 A 
ATOM     30  C   LIG    1        9.067   0.385   2.517  0.00  0.00    -0.060 A 
ATOM     31  C   LIG    1        9.344  -0.918   2.707  0.00  0.00    +0.160 A 
ATOM     32  O   LIG    1        8.186  -1.598   2.737  0.00  0.00    -0.170 OA
ENDBRANCH  27  28
ENDBRANCH  26  27
ENDBRANCH   5  26
TORSDOF 7
