REMARK  Name = ZINCpk00000ebjA7.0
REMARK                            x       y       z     vdW  Elec       q    Type
REMARK                         _______ _______ _______ _____ _____    ______ ____
ROOT
ATOM      1  C   LIG    1        3.713  -0.431   0.048  0.00  0.00    +0.590 C 
ATOM      2  N   LIG    1        4.860   0.275   0.101  0.00  0.00    -0.610 N 
ATOM      3  C   LIG    1        4.961   1.742   0.205  0.00  0.00    +0.240 C 
ATOM      4  C   LIG    1        6.351   2.089  -0.378  0.00  0.00    +0.170 C 
ATOM      5  C   LIG    1        7.207   0.893   0.118  0.00  0.00    +0.080 C 
ATOM      6  C   LIG    1        6.217  -0.289   0.057  0.00  0.00    +0.260 C 
ATOM      7  O   LIG    1        2.646   0.146  -0.030  0.00  0.00    -0.520 OA
ENDROOT
BRANCH   1  14
ATOM      8  C   LIG    1        4.714  -7.048   0.021  0.00  0.00    +0.390 C 
ATOM      9  N   LIG    1        3.718  -5.990   0.213  0.00  0.00    -0.380 N 
ATOM     10  N   LIG    1        2.363  -6.166   0.527  0.00  0.00    +0.010 NA
ATOM     11  N   LIG    1        1.790  -5.017   0.620  0.00  0.00    -0.190 NA
ATOM     12  C   LIG    1        2.689  -4.032   0.388  0.00  0.00    -0.080 A 
ATOM     13  C   LIG    1        2.598  -2.637   0.365  0.00  0.00    +0.250 A 
ATOM     14  C   LIG    1        3.753  -1.908   0.084  0.00  0.00    -0.210 A 
ATOM     15  C   LIG    1        4.951  -2.590  -0.163  0.00  0.00    +0.380 A 
ATOM     16  N   LIG    1        5.005  -3.901  -0.133  0.00  0.00    -0.480 NA
ATOM     17  C   LIG    1        3.934  -4.639   0.129  0.00  0.00    +0.290 A 
ENDBRANCH   1  14
BRANCH   6  18
ATOM     18  C   LIG    1        6.432  -1.199   1.239  0.00  0.00    -0.130 A 
ATOM     19  C   LIG    1        5.780  -0.947   2.432  0.00  0.00    +0.060 A 
ATOM     20  C   LIG    1        5.973  -1.784   3.515  0.00  0.00    -0.010 A 
ATOM     21  C   LIG    1        6.827  -2.868   3.408  0.00  0.00    +0.110 A 
ATOM     22  C   LIG    1        7.483  -3.116   2.214  0.00  0.00    +0.000 A 
ATOM     23  F   LIG    1        7.020  -3.684   4.467  0.00  0.00    -0.140 F 
ATOM     24  C   LIG    1        7.285  -2.282   1.131  0.00  0.00    +0.070 A 
ENDBRANCH   6  18
BRANCH   4  25
ATOM     25  O   LIG    1        6.838   3.323   0.153  0.00  0.00    -0.550 OA
ATOM     26  H   LIG    1        6.335   4.099  -0.129  0.00  0.00    +0.390 HD
ENDBRANCH   4  25
TORSDOF 3
