REMARK  Name = ZINCtV00000jXiiC.0
REMARK                            x       y       z     vdW  Elec       q    Type
REMARK                         _______ _______ _______ _____ _____    ______ ____
ROOT
ATOM      1  O   LIG    1        0.282  -2.800  -0.015  0.00  0.00    -0.490 OA
ATOM      2  C   LIG    1        1.304  -2.144  -0.021  0.00  0.00    +0.510 C 
ENDROOT
BRANCH   2   3
ATOM      3  C   LIG    1        1.234  -0.665  -0.013  0.00  0.00    -0.070 A 
ATOM      4  C   LIG    1        0.002  -0.004   0.002  0.00  0.00    +0.080 A 
ATOM      5  C   LIG    1       -0.017   1.377   0.010  0.00  0.00    +0.170 A 
ATOM      6  N   LIG    1        1.105   2.070   0.003  0.00  0.00    -0.410 NA
ATOM      7  C   LIG    1        2.287   1.486  -0.012  0.00  0.00    +0.040 A 
ATOM      8  C   LIG    1        2.399   0.110  -0.020  0.00  0.00    +0.090 A 
BRANCH   7   9
ATOM      9  C   LIG    1        3.534   2.333  -0.020  0.00  0.00    +0.530 C 
ATOM     10  F   LIG    1        4.568   1.647   0.626  0.00  0.00    -0.170 F 
ATOM     11  F   LIG    1        3.284   3.537   0.649  0.00  0.00    -0.160 F 
ATOM     12  F   LIG    1        3.906   2.602  -1.341  0.00  0.00    -0.170 F 
ENDBRANCH   7   9
BRANCH   5  13
ATOM     13  C   LIG    1       -1.338   2.103   0.020  0.00  0.00    +0.010 C 
ATOM     14  C   LIG    1       -2.586   1.303  -0.358  0.00  0.00    +0.040 C 
ATOM     15  C   LIG    1       -2.021   2.345  -1.327  0.00  0.00    +0.050 C 
ENDBRANCH   5  13
ENDBRANCH   2   3
BRANCH   2  16
ATOM     16  O   LIG    1        2.501  -2.761  -0.036  0.00  0.00    -0.340 OA
BRANCH  16  17
ATOM     17  C   LIG    1        2.494  -4.213  -0.043  0.00  0.00    +0.180 C 
ATOM     18  C   LIG    1        2.530  -4.735  -1.495  0.00  0.00    +0.020 C 
ATOM     19  C   LIG    1        3.428  -5.995  -1.424  0.00  0.00    +0.030 C 
ATOM     20  C   LIG    1        4.520  -5.579  -0.407  0.00  0.00    +0.020 C 
ATOM     21  C   LIG    1        3.758  -4.750   0.649  0.00  0.00    +0.010 C 
BRANCH  21  22
ATOM     22  C   LIG    1        4.628  -3.586   1.129  0.00  0.00    +0.090 C 
BRANCH  22  23
ATOM     23  C   LIG    1        5.799  -4.123   1.911  0.00  0.00    -0.080 A 
ATOM     24  C   LIG    1        5.694  -4.298   3.278  0.00  0.00    +0.020 A 
ATOM     25  C   LIG    1        6.766  -4.794   3.996  0.00  0.00    +0.020 A 
ATOM     26  C   LIG    1        7.948  -5.106   3.347  0.00  0.00    -0.040 A 
ATOM     27  C   LIG    1        8.053  -4.925   1.979  0.00  0.00    +0.020 A 
ATOM     28 CL   LIG    1        9.297  -5.722   4.249  0.00  0.00    -0.070 Cl
ATOM     29  C   LIG    1        6.979  -4.434   1.262  0.00  0.00    +0.030 A 
ENDBRANCH  22  23
ENDBRANCH  21  22
ENDBRANCH  16  17
ENDBRANCH   2  16
TORSDOF 7
