REMARK  Name = ZINCrH000004ogda.0
REMARK                            x       y       z     vdW  Elec       q    Type
REMARK                         _______ _______ _______ _____ _____    ______ ____
ROOT
ATOM      1  N   LIG    1        0.911  -2.634  -0.998  0.00  0.00    -0.740 N 
ATOM      2  H   LIG    1        0.024  -2.324  -1.240  0.00  0.00    +0.410 HD
ATOM      3  C   LIG    1        1.409  -3.754  -1.559  0.00  0.00    +0.520 C 
ATOM      4  O   LIG    1        2.518  -4.142  -1.257  0.00  0.00    -0.520 OA
ENDROOT
BRANCH   1   6
ATOM      5  C   LIG    1        1.517  -2.490   1.367  0.00  0.00    +0.070 C 
ATOM      6  C   LIG    1        1.709  -1.885  -0.025  0.00  0.00    +0.370 C 
BRANCH   6   7
ATOM      7  C   LIG    1        1.264  -0.445  -0.012  0.00  0.00    +0.180 A 
ATOM      8  N   LIG    1        2.041   0.610  -0.014  0.00  0.00    -0.460 NA
ATOM      9  C   LIG    1        1.208   1.675  -0.001  0.00  0.00    +0.220 A 
ATOM     10  N   LIG    1       -0.014   1.209   0.009  0.00  0.00    -0.370 NA
ATOM     11  O   LIG    1        0.002  -0.004   0.002  0.00  0.00    +0.090 OA
BRANCH   9  12
ATOM     12  C   LIG    1        1.605   3.104   0.004  0.00  0.00    -0.040 A 
ATOM     13  C   LIG    1        2.954   3.454  -0.002  0.00  0.00    +0.110 A 
ATOM     14  C   LIG    1        3.319   4.785  -0.003  0.00  0.00    -0.010 A 
ATOM     15  C   LIG    1        2.347   5.772   0.013  0.00  0.00    +0.120 A 
ATOM     16  C   LIG    1        1.005   5.428   0.024  0.00  0.00    -0.010 A 
ATOM     17  F   LIG    1        2.709   7.074   0.017  0.00  0.00    -0.130 F 
ATOM     18  C   LIG    1        0.631   4.101   0.019  0.00  0.00    +0.090 A 
ENDBRANCH   9  12
ENDBRANCH   6   7
ENDBRANCH   1   6
BRANCH   3  19
ATOM     19  C   LIG    1        0.588  -4.525  -2.560  0.00  0.00    +0.140 C 
BRANCH  19  20
ATOM     20  C   LIG    1        1.367  -5.726  -3.030  0.00  0.00    -0.160 A 
ATOM     21  C   LIG    1        2.125  -5.803  -4.135  0.00  0.00    +0.240 A 
ATOM     22  N   LIG    1        2.681  -7.049  -4.234  0.00  0.00    -0.590 N 
ATOM     23  H   LIG    1        3.270  -7.342  -4.947  0.00  0.00    +0.420 HD
ATOM     24  C   LIG    1        2.277  -7.827  -3.172  0.00  0.00    +0.100 A 
ATOM     25  C   LIG    1        2.535  -9.141  -2.795  0.00  0.00    -0.010 A 
ATOM     26  C   LIG    1        1.966  -9.647  -1.646  0.00  0.00    +0.020 A 
ATOM     27  C   LIG    1        1.137  -8.859  -0.861  0.00  0.00    -0.020 A 
ATOM     28  C   LIG    1        0.870  -7.566  -1.213  0.00  0.00    +0.050 A 
ATOM     29  C   LIG    1        1.435  -7.033  -2.372  0.00  0.00    -0.090 A 
ENDBRANCH  19  20
ENDBRANCH   3  19
TORSDOF 5
