REMARK  Name = ZINCpe000000ZBVJ.0
REMARK                            x       y       z     vdW  Elec       q    Type
REMARK                         _______ _______ _______ _____ _____    ______ ____
ROOT
ATOM      1  C   LIG    1       -1.082   2.179  -0.099  0.00  0.00    +0.510 C 
ATOM      2  N   LIG    1        0.050   1.450  -0.040  0.00  0.00    -0.600 N 
ATOM      3  C   LIG    1       -0.059   0.009   0.043  0.00  0.00    +0.280 C 
ATOM      4  C   LIG    1       -0.088  -0.423   1.530  0.00  0.00    +0.030 C 
ATOM      5  C   LIG    1        1.235  -0.194   2.142  0.00  0.00    +0.170 C 
ATOM      6  N   LIG    1        1.657   1.206   2.160  0.00  0.00    -0.490 N 
ATOM      7  C   LIG    1        2.346   1.548   0.934  0.00  0.00    +0.180 C 
ATOM      8  C   LIG    1        1.347   2.156  -0.069  0.00  0.00    +0.270 C 
ATOM      9  O   LIG    1       -2.161   1.626  -0.082  0.00  0.00    -0.540 OA
ENDROOT
BRANCH   6  10
ATOM     10  C   LIG    1        2.458   1.473   3.275  0.00  0.00    +0.080 A 
ATOM     11  C   LIG    1        2.050   2.411   4.215  0.00  0.00    +0.080 A 
ATOM     12  C   LIG    1        2.840   2.669   5.318  0.00  0.00    -0.010 A 
ATOM     13  C   LIG    1        4.042   2.002   5.482  0.00  0.00    +0.100 A 
ATOM     14  C   LIG    1        4.453   1.071   4.543  0.00  0.00    +0.000 A 
ATOM     15  F   LIG    1        4.816   2.260   6.559  0.00  0.00    -0.140 F 
ATOM     16  C   LIG    1        3.664   0.805   3.441  0.00  0.00    +0.010 A 
ENDBRANCH   6  10
BRANCH   1  17
ATOM     17  C   LIG    1       -1.007   3.681  -0.186  0.00  0.00    +0.060 C 
BRANCH  17  18
ATOM     18  C   LIG    1       -2.422   4.261  -0.240  0.00  0.00    +0.080 C 
BRANCH  18  24
ATOM     19  O   LIG    1       -2.825   7.775   2.437  0.00  0.00    -0.540 OA
ATOM     20  C   LIG    1       -2.878   7.147   1.398  0.00  0.00    +0.700 C 
ATOM     21  N   LIG    1       -3.930   7.163   0.571  0.00  0.00    -0.680 N 
ATOM     22  H   LIG    1       -4.739   7.676   0.729  0.00  0.00    +0.430 HD
ATOM     23  C   LIG    1       -3.728   6.380  -0.507  0.00  0.00    +0.530 C 
ATOM     24  C   LIG    1       -2.345   5.786  -0.328  0.00  0.00    +0.220 C 
ATOM     25  O   LIG    1       -4.494   6.190  -1.427  0.00  0.00    -0.460 OA
ATOM     26  N   LIG    1       -1.885   6.357   0.950  0.00  0.00    -0.720 N 
ATOM     27  H   LIG    1       -1.033   6.195   1.383  0.00  0.00    +0.440 HD
ENDBRANCH  18  24
ENDBRANCH  17  18
ENDBRANCH   1  17
TORSDOF 4
