REMARK  Name = ZINCkj000005g0tk.0
REMARK                            x       y       z     vdW  Elec       q    Type
REMARK                         _______ _______ _______ _____ _____    ______ ____
ROOT
ATOM      1  N   LIG    1        2.339   1.500  -0.012  0.00  0.00    -0.560 N 
ATOM      2  C   LIG    1        1.130   2.084   0.003  0.00  0.00    +0.710 A 
ATOM      3  N   LIG    1       -0.017   1.383   0.010  0.00  0.00    -0.640 N 
ATOM      4  H   LIG    1       -0.866   1.852   0.016  0.00  0.00    +0.440 HD
ATOM      5  C   LIG    1        0.002  -0.004   0.002  0.00  0.00    +0.190 A 
ATOM      6  C   LIG    1       -1.169  -0.746   0.010  0.00  0.00    -0.020 A 
ATOM      7  C   LIG    1       -1.105  -2.126   0.002  0.00  0.00    +0.100 A 
ATOM      8  C   LIG    1        0.118  -2.777  -0.013  0.00  0.00    -0.010 A 
ATOM      9  C   LIG    1        1.293  -2.055  -0.021  0.00  0.00    +0.140 A 
ATOM     10  C   LIG    1        1.244  -0.664  -0.013  0.00  0.00    -0.200 A 
ATOM     11  O   LIG    1        1.071   3.298   0.009  0.00  0.00    -0.550 OA
ATOM     12  C   LIG    1        2.469   0.156  -0.021  0.00  0.00    +0.570 A 
ATOM     13  O   LIG    1        3.567  -0.365  -0.034  0.00  0.00    -0.480 OA
ENDROOT
BRANCH   1  17
ATOM     14  N   LIG    1        4.695   4.995  -0.020  0.00  0.00    -0.390 N 
ATOM     15  C   LIG    1        4.753   4.157  -1.224  0.00  0.00    +0.270 C 
ATOM     16  C   LIG    1        3.537   3.230  -1.264  0.00  0.00    +0.060 C 
ATOM     17  C   LIG    1        3.541   2.338  -0.019  0.00  0.00    +0.260 C 
ATOM     18  C   LIG    1        3.555   3.223   1.231  0.00  0.00    +0.060 C 
ATOM     19  C   LIG    1        4.771   4.151   1.178  0.00  0.00    +0.260 C 
ATOM     20  H   LIG    1        3.828   5.511  -0.013  0.00  0.00    +0.430 HD
BRANCH  14  22
ATOM     21  C   LIG    1        5.836   6.724   1.286  0.00  0.00    +0.080 C 
ATOM     22  C   LIG    1        5.823   5.936  -0.025  0.00  0.00    +0.250 C 
ENDBRANCH  14  22
ENDBRANCH   1  17
TORSDOF 2
