REMARK  Name = ZINCnE000001TCNI.0
REMARK                            x       y       z     vdW  Elec       q    Type
REMARK                         _______ _______ _______ _____ _____    ______ ____
ROOT
ATOM      1  C   LIG    1       -2.502   0.999   0.019  0.00  0.00    +0.570 C 
ATOM      2  N   LIG    1       -3.676   1.652   0.130  0.00  0.00    -0.610 N 
ATOM      3  C   LIG    1       -3.718   3.120   0.140  0.00  0.00    +0.260 C 
ATOM      4  C   LIG    1       -4.482   3.583   1.384  0.00  0.00    +0.010 C 
ATOM      5  C   LIG    1       -5.859   2.915   1.411  0.00  0.00    +0.030 C 
ATOM      6  C   LIG    1       -5.689   1.396   1.485  0.00  0.00    +0.020 C 
ATOM      7  C   LIG    1       -4.939   0.908   0.236  0.00  0.00    +0.280 C 
ATOM      8  O   LIG    1       -2.487  -0.214  -0.058  0.00  0.00    -0.540 OA
ENDROOT
BRANCH   1  12
ATOM      9  C   LIG    1        1.146   3.187  -0.058  0.00  0.00    -0.110 A 
ATOM     10  C   LIG    1        0.101   3.541  -0.915  0.00  0.00    +0.040 A 
ATOM     11  C   LIG    1       -1.079   2.829  -0.892  0.00  0.00    +0.010 A 
ATOM     12  C   LIG    1       -1.232   1.759  -0.009  0.00  0.00    -0.140 A 
ATOM     13  C   LIG    1       -0.186   1.401   0.842  0.00  0.00    +0.030 A 
ATOM     14  C   LIG    1        0.994   2.112   0.821  0.00  0.00    +0.040 A 
BRANCH   9  16
ATOM     15  O   LIG    1        2.544   4.890  -0.852  0.00  0.00    -0.680 OA
ATOM     16  C   LIG    1        2.412   3.950  -0.082  0.00  0.00    +0.520 C 
ATOM     17  O   LIG    1        3.326   3.640   0.668  0.00  0.00    -0.680 OA
ENDBRANCH   9  16
ENDBRANCH   1  12
BRANCH   6  18
ATOM     18  C   LIG    1       -7.045   0.741   1.545  0.00  0.00    -0.070 A 
ATOM     19  C   LIG    1       -7.950   0.931   0.517  0.00  0.00    +0.010 A 
ATOM     20  C   LIG    1       -9.191   0.326   0.569  0.00  0.00    +0.000 A 
ATOM     21  C   LIG    1       -9.533  -0.460   1.653  0.00  0.00    -0.010 A 
ATOM     22  C   LIG    1       -8.630  -0.645   2.684  0.00  0.00    +0.000 A 
ATOM     23  C   LIG    1       -7.386  -0.044   2.630  0.00  0.00    +0.010 A 
ENDBRANCH   6  18
TORSDOF 3
