REMARK  Name = ZINCpk00000KfLsw.0
REMARK                            x       y       z     vdW  Elec       q    Type
REMARK                         _______ _______ _______ _____ _____    ______ ____
ROOT
ATOM      1  N   LIG    1       -3.649   4.147   0.566  0.00  0.00    -0.540 NA
ENDROOT
BRANCH   1   2
ATOM      2  C   LIG    1       -5.036   4.490   0.910  0.00  0.00    +0.490 C 
BRANCH   2  13
ATOM      3  O   LIG    1       -5.643   7.109   0.447  0.00  0.00    -0.510 OA
ATOM      4  C   LIG    1       -5.978   6.313  -0.412  0.00  0.00    +0.530 A 
ATOM      5  C   LIG    1       -6.670   6.753  -1.633  0.00  0.00    -0.160 A 
ATOM      6  C   LIG    1       -6.971   8.094  -1.861  0.00  0.00    +0.090 A 
ATOM      7  C   LIG    1       -7.625   8.457  -3.018  0.00  0.00    +0.030 A 
ATOM      8  C   LIG    1       -7.986   7.497  -3.955  0.00  0.00    +0.060 A 
ATOM      9  C   LIG    1       -7.698   6.167  -3.749  0.00  0.00    +0.080 A 
ATOM     10  C   LIG    1       -7.035   5.774  -2.583  0.00  0.00    +0.070 A 
ATOM     11  N   LIG    1       -6.736   4.472  -2.347  0.00  0.00    -0.210 NA
ATOM     12  N   LIG    1       -6.128   4.098  -1.280  0.00  0.00    +0.120 NA
ATOM     13  N   LIG    1       -5.726   4.989  -0.282  0.00  0.00    -0.440 N 
ENDBRANCH   2  13
ENDBRANCH   1   2
BRANCH   1  14
ATOM     14  C   LIG    1       -3.099   3.166   1.511  0.00  0.00    +0.210 C 
BRANCH  14  15
ATOM     15  C   LIG    1       -3.643   1.776   1.178  0.00  0.00    +0.160 C 
ATOM     16  C   LIG    1       -3.053   0.709   2.138  0.00  0.00    +0.010 C 
ATOM     17  C   LIG    1       -4.132  -0.401   2.089  0.00  0.00    +0.000 C 
ATOM     18  C   LIG    1       -5.399   0.322   1.591  0.00  0.00    +0.190 C 
ATOM     19  O   LIG    1       -5.063   1.711   1.432  0.00  0.00    -0.370 OA
ENDBRANCH  14  15
ENDBRANCH   1  14
BRANCH   1  20
ATOM     20  C   LIG    1       -2.809   5.350   0.506  0.00  0.00    +0.170 C 
BRANCH  20  21
ATOM     21  C   LIG    1       -1.551   5.053  -0.313  0.00  0.00    +0.170 C 
ATOM     22  C   LIG    1       -0.645   6.303  -0.352  0.00  0.00    +0.010 C 
ATOM     23  C   LIG    1       -0.118   6.283  -1.813  0.00  0.00    +0.000 C 
ATOM     24  C   LIG    1       -1.347   5.708  -2.561  0.00  0.00    +0.180 C 
ATOM     25  O   LIG    1       -1.914   4.740  -1.663  0.00  0.00    -0.360 OA
ENDBRANCH  20  21
ENDBRANCH   1  20
TORSDOF 6
