REMARK  Name = ZINCtV00000L6jEk.0
REMARK                            x       y       z     vdW  Elec       q    Type
REMARK                         _______ _______ _______ _____ _____    ______ ____
ROOT
ATOM      1  N   LIG    1       -4.188  -1.508  -2.261  0.00  0.00    -0.660 N 
ATOM      2  H   LIG    1       -3.608  -0.915  -2.765  0.00  0.00    +0.420 HD
ATOM      3  C   LIG    1       -4.414  -1.278  -0.953  0.00  0.00    +0.610 C 
ATOM      4  O   LIG    1       -5.205  -1.972  -0.341  0.00  0.00    -0.490 OA
ENDROOT
BRANCH   1   9
ATOM      5  C   LIG    1       -6.659  -4.087  -3.153  0.00  0.00    +0.170 A 
ATOM      6  C   LIG    1       -5.975  -4.769  -4.151  0.00  0.00    +0.030 A 
ATOM      7  C   LIG    1       -4.704  -4.368  -4.518  0.00  0.00    +0.070 A 
ATOM      8  C   LIG    1       -4.110  -3.288  -3.894  0.00  0.00    -0.070 A 
ATOM      9  C   LIG    1       -4.790  -2.601  -2.894  0.00  0.00    +0.170 A 
ATOM     10 CL   LIG    1       -2.514  -2.788  -4.358  0.00  0.00    -0.060 Cl
ATOM     11  C   LIG    1       -6.063  -3.005  -2.520  0.00  0.00    +0.010 A 
BRANCH   5  13
ATOM     12  C   LIG    1       -8.267  -5.803  -2.789  0.00  0.00    +0.510 C 
ATOM     13  N   LIG    1       -7.946  -4.494  -2.782  0.00  0.00    -0.670 N 
ATOM     14  H   LIG    1       -8.606  -3.833  -2.520  0.00  0.00    +0.410 HD
ATOM     15  O   LIG    1       -7.469  -6.621  -3.194  0.00  0.00    -0.520 OA
BRANCH  12  16
ATOM     16  C   LIG    1       -9.618  -6.250  -2.292  0.00  0.00    +0.060 C 
BRANCH  16  18
ATOM     17  C   LIG    1      -11.097  -8.225  -1.903  0.00  0.00    +0.030 C 
ATOM     18  C   LIG    1       -9.725  -7.771  -2.407  0.00  0.00    +0.030 C 
ENDBRANCH  16  18
ENDBRANCH  12  16
ENDBRANCH   5  13
ENDBRANCH   1   9
BRANCH   3  19
ATOM     19  C   LIG    1       -3.707  -0.195  -0.267  0.00  0.00    -0.080 A 
ATOM     20  C   LIG    1       -3.842   0.147   1.061  0.00  0.00    +0.070 A 
ATOM     21  C   LIG    1       -2.988   1.230   1.289  0.00  0.00    -0.020 A 
ATOM     22  C   LIG    1       -2.368   1.508   0.104  0.00  0.00    +0.060 A 
ATOM     23  O   LIG    1       -2.812   0.647  -0.827  0.00  0.00    -0.140 OA
BRANCH  22  24
ATOM     24  C   LIG    1       -1.379   2.582  -0.118  0.00  0.00    -0.010 A 
ATOM     25  C   LIG    1       -1.650   3.884   0.305  0.00  0.00    +0.080 A 
ATOM     26  C   LIG    1       -0.723   4.884   0.088  0.00  0.00    -0.030 A 
ATOM     27  C   LIG    1        0.476   4.596  -0.542  0.00  0.00    +0.070 A 
ATOM     28  C   LIG    1        0.754   3.307  -0.959  0.00  0.00    +0.050 A 
ATOM     29 CL   LIG    1       -1.060   6.506   0.608  0.00  0.00    -0.050 Cl
ATOM     30  C   LIG    1       -0.164   2.297  -0.749  0.00  0.00    -0.010 A 
ATOM     31 CL   LIG    1        0.186   0.680  -1.274  0.00  0.00    -0.040 Cl
ENDBRANCH  22  24
ENDBRANCH   3  19
TORSDOF 6
