REMARK  Name = ZINCqH00000336Lu.0
REMARK                            x       y       z     vdW  Elec       q    Type
REMARK                         _______ _______ _______ _____ _____    ______ ____
ROOT
ATOM      1  C   LIG    1        2.125   0.993   1.166  0.00  0.00    -0.080 A 
ATOM      2  C   LIG    1        2.120   1.661   2.377  0.00  0.00    +0.070 A 
ATOM      3  C   LIG    1        2.822   1.150   3.451  0.00  0.00    +0.000 A 
ATOM      4  C   LIG    1        3.542  -0.029   3.311  0.00  0.00    +0.150 A 
ATOM      5  C   LIG    1        3.549  -0.694   2.092  0.00  0.00    +0.030 A 
ATOM      6  C   LIG    1        2.841  -0.181   1.023  0.00  0.00    +0.040 A 
ENDROOT
BRANCH   4   7
ATOM      7  N   LIG    1        4.261  -0.547   4.397  0.00  0.00    -0.300 N 
ATOM      8  C   LIG    1        4.338  -0.002   5.632  0.00  0.00    +0.250 A 
ATOM      9  C   LIG    1        5.125  -0.804   6.387  0.00  0.00    -0.050 A 
ATOM     10  C   LIG    1        5.543  -1.873   5.588  0.00  0.00    -0.010 A 
ATOM     11  N   LIG    1        5.021  -1.724   4.397  0.00  0.00    -0.230 NA
BRANCH  10  12
ATOM     12  C   LIG    1        6.434  -3.007   6.026  0.00  0.00    +0.560 C 
ATOM     13  F   LIG    1        7.308  -2.556   7.021  0.00  0.00    -0.160 F 
ATOM     14  F   LIG    1        7.173  -3.469   4.931  0.00  0.00    -0.170 F 
ATOM     15  F   LIG    1        5.649  -4.049   6.532  0.00  0.00    -0.170 F 
ENDBRANCH  10  12
ENDBRANCH   4   7
BRANCH   1  16
ATOM     16  C   LIG    1        1.353   1.550  -0.003  0.00  0.00    +0.230 C 
BRANCH  16  17
ATOM     17  N   LIG    1       -0.012   1.005   0.008  0.00  0.00    -0.660 NA
ATOM     18  H   LIG    1        0.002  -0.004   0.002  0.00  0.00    +0.360 HD
BRANCH  17  19
ATOM     19  C   LIG    1       -0.795   1.527  -1.120  0.00  0.00    +0.130 C 
ATOM     20  C   LIG    1       -0.120   1.135  -2.436  0.00  0.00    +0.030 C 
BRANCH  19  21
ATOM     21  C   LIG    1       -2.186   0.947  -1.076  0.00  0.00    +0.480 C 
ATOM     22  O   LIG    1       -3.130   1.615  -1.426  0.00  0.00    -0.500 OA
BRANCH  21  23
ATOM     23  O   LIG    1       -2.375  -0.311  -0.649  0.00  0.00    -0.350 OA
ATOM     24  C   LIG    1       -3.741  -0.804  -0.634  0.00  0.00    +0.260 C 
ENDBRANCH  21  23
ENDBRANCH  19  21
BRANCH  19  25
ATOM     25  C   LIG    1       -0.876   3.052  -1.022  0.00  0.00    +0.060 C 
BRANCH  25  27
ATOM     26  C   LIG    1       -1.517   4.971   0.443  0.00  0.00    +0.000 C 
ATOM     27  C   LIG    1       -1.436   3.447   0.345  0.00  0.00    +0.020 C 
ENDBRANCH  25  27
ENDBRANCH  19  25
ENDBRANCH  17  19
ENDBRANCH  16  17
ENDBRANCH   1  16
TORSDOF 9
