REMARK  Name = ZINCpk00000eaUTG.0
REMARK                            x       y       z     vdW  Elec       q    Type
REMARK                         _______ _______ _______ _____ _____    ______ ____
ROOT
ATOM      1  S   LIG    1       -0.629  -2.877  -2.697  0.00  0.00    +2.700 S 
ATOM      2  O   LIG    1       -0.129  -4.200  -2.554  0.00  0.00    -0.940 OA
ATOM      3  O   LIG    1       -0.230  -2.005  -3.745  0.00  0.00    -0.940 OA
ENDROOT
BRANCH   1   9
ATOM      4  C   LIG    1        0.504   1.462  -0.012  0.00  0.00    +0.090 C 
ATOM      5  C   LIG    1        0.252  -0.023  -0.009  0.00  0.00    -0.110 A 
ATOM      6  C   LIG    1        0.306  -0.731   1.178  0.00  0.00    +0.080 A 
ATOM      7  C   LIG    1        0.074  -2.094   1.181  0.00  0.00    -0.110 A 
ATOM      8  C   LIG    1       -0.211  -2.749  -0.002  0.00  0.00    +0.030 A 
ATOM      9  C   LIG    1       -0.265  -2.042  -1.189  0.00  0.00    -0.680 A 
ATOM     10  C   LIG    1       -0.464  -4.235   0.002  0.00  0.00    +0.100 C 
ATOM     11  C   LIG    1        0.132  -2.864   2.474  0.00  0.00    +0.100 C 
ATOM     12  C   LIG    1       -0.038  -0.678  -1.191  0.00  0.00    +0.020 A 
ATOM     13  C   LIG    1       -0.103   0.094  -2.484  0.00  0.00    +0.120 C 
ENDBRANCH   1   9
BRANCH   1  14
ATOM     14  N   LIG    1       -2.276  -3.009  -2.799  0.00  0.00    -1.110 NA
ATOM     15  H   LIG    1       -2.695  -3.884  -2.777  0.00  0.00    +0.430 HD
BRANCH  14  16
ATOM     16  C   LIG    1       -3.101  -1.804  -2.922  0.00  0.00    +0.380 C 
BRANCH  16  17
ATOM     17  C   LIG    1       -4.490  -2.190  -3.361  0.00  0.00    +0.460 C 
ATOM     18  O   LIG    1       -4.763  -3.351  -3.552  0.00  0.00    -0.480 OA
BRANCH  17  19
ATOM     19  O   LIG    1       -5.424  -1.242  -3.541  0.00  0.00    -0.330 OA
BRANCH  19  20
ATOM     20  C   LIG    1       -6.740  -1.686  -3.965  0.00  0.00    +0.160 C 
ATOM     21  C   LIG    1       -7.821  -0.686  -3.498  0.00  0.00    +0.080 C 
ATOM     22  C   LIG    1       -8.146   0.074  -4.804  0.00  0.00    +0.190 C 
ATOM     23  O   LIG    1       -7.832  -0.875  -5.865  0.00  0.00    -0.330 OA
ATOM     24  C   LIG    1       -9.628   0.455  -4.849  0.00  0.00    +0.090 C 
ATOM     25  C   LIG    1       -6.836  -1.683  -5.475  0.00  0.00    +0.470 C 
ATOM     26  O   LIG    1       -6.122  -2.314  -6.218  0.00  0.00    -0.430 OA
ENDBRANCH  19  20
ENDBRANCH  17  19
ENDBRANCH  16  17
ENDBRANCH  14  16
ENDBRANCH   1  14
TORSDOF 6
