REMARK  Name = ZINCtj0000000OHq.1
REMARK                            x       y       z     vdW  Elec       q    Type
REMARK                         _______ _______ _______ _____ _____    ______ ____
ROOT
ATOM      1  N   LIG    1       -2.026   2.345   5.971  0.00  0.00    -0.650 N 
ATOM      2  H   LIG    1       -2.271   1.417   5.838  0.00  0.00    +0.420 HD
ATOM      3  C   LIG    1       -1.836   2.819   7.219  0.00  0.00    +0.510 C 
ATOM      4  O   LIG    1       -1.610   3.999   7.392  0.00  0.00    -0.480 OA
ENDROOT
BRANCH   1  13
ATOM      5  N   LIG    1       -0.722   1.573   1.208  0.00  0.00    -0.390 N 
ATOM      6  C   LIG    1       -0.075   0.991   2.394  0.00  0.00    +0.270 C 
ATOM      7  C   LIG    1       -0.972   1.235   3.608  0.00  0.00    +0.110 C 
ATOM      8  C   LIG    1       -1.350   2.692   3.678  0.00  0.00    -0.110 A 
ATOM      9  C   LIG    1       -1.195   3.529   2.595  0.00  0.00    -0.110 A 
ATOM     10  C   LIG    1       -1.559   4.864   2.697  0.00  0.00    +0.040 A 
ATOM     11  C   LIG    1       -2.074   5.361   3.878  0.00  0.00    +0.060 A 
ATOM     12  C   LIG    1       -2.230   4.528   4.968  0.00  0.00    +0.050 A 
ATOM     13  C   LIG    1       -1.869   3.192   4.871  0.00  0.00    +0.160 A 
ATOM     14  C   LIG    1       -0.634   3.034   1.287  0.00  0.00    +0.330 C 
ATOM     15  H   LIG    1       -1.690   1.292   1.180  0.00  0.00    +0.430 HD
BRANCH   5  17
ATOM     16  C   LIG    1       -0.787   1.610  -1.239  0.00  0.00    +0.080 C 
ATOM     17  C   LIG    1       -0.038   1.105  -0.004  0.00  0.00    +0.250 C 
ENDBRANCH   5  17
ENDBRANCH   1  13
BRANCH   3  18
ATOM     18  C   LIG    1       -1.905   1.893   8.388  0.00  0.00    +0.520 C 
ATOM     19  N   LIG    1       -1.715   2.367   9.636  0.00  0.00    -0.680 N 
ATOM     20  H   LIG    1       -1.534   3.310   9.774  0.00  0.00    +0.430 HD
ATOM     21  O   LIG    1       -2.131   0.713   8.215  0.00  0.00    -0.510 OA
BRANCH  19  22
ATOM     22  C   LIG    1       -1.782   1.458  10.783  0.00  0.00    +0.350 C 
ATOM     23  C   LIG    1       -0.420   0.792  10.986  0.00  0.00    +0.080 C 
BRANCH  22  24
ATOM     24  C   LIG    1       -2.151   2.236  12.019  0.00  0.00    +0.120 A 
ATOM     25  N   LIG    1       -1.648   3.384  12.390  0.00  0.00    -0.220 NA
ATOM     26  N   LIG    1       -2.184   3.771  13.493  0.00  0.00    -0.250 NA
ATOM     27  C   LIG    1       -3.074   2.877  13.893  0.00  0.00    +0.360 A 
ATOM     28  N   LIG    1       -3.888   2.806  14.954  0.00  0.00    -0.430 NA
ATOM     29  C   LIG    1       -4.702   1.789  15.110  0.00  0.00    +0.400 A 
ATOM     30  C   LIG    1       -4.727   0.748  14.170  0.00  0.00    -0.010 A 
ATOM     31  C   LIG    1       -3.906   0.804  13.093  0.00  0.00    +0.300 A 
ATOM     32  N   LIG    1       -3.074   1.876  12.952  0.00  0.00    -0.420 N 
ENDBRANCH  22  24
ENDBRANCH  19  22
ENDBRANCH   3  18
TORSDOF 5
