REMARK  Name = ZINCtj0000000OHq.0
REMARK                            x       y       z     vdW  Elec       q    Type
REMARK                         _______ _______ _______ _____ _____    ______ ____
ROOT
ATOM      1  N   LIG    1       -0.011   0.966   0.007  0.00  0.00    -0.650 N 
ATOM      2  H   LIG    1       -0.018   0.100  -0.430  0.00  0.00    +0.420 HD
ATOM      3  C   LIG    1        1.128   1.436   0.553  0.00  0.00    +0.510 C 
ATOM      4  O   LIG    1        1.158   2.553   1.027  0.00  0.00    -0.480 OA
ENDROOT
BRANCH   1  13
ATOM      5  N   LIG    1       -4.869  -0.208   0.074  0.00  0.00    -0.390 N 
ATOM      6  C   LIG    1       -3.804  -0.860   0.851  0.00  0.00    +0.270 C 
ATOM      7  C   LIG    1       -2.452  -0.407   0.300  0.00  0.00    +0.110 C 
ATOM      8  C   LIG    1       -2.414   1.097   0.213  0.00  0.00    -0.110 A 
ATOM      9  C   LIG    1       -3.566   1.849   0.273  0.00  0.00    -0.110 A 
ATOM     10  C   LIG    1       -3.491   3.232   0.184  0.00  0.00    +0.040 A 
ATOM     11  C   LIG    1       -2.270   3.860   0.039  0.00  0.00    +0.060 A 
ATOM     12  C   LIG    1       -1.111   3.111  -0.014  0.00  0.00    +0.050 A 
ATOM     13  C   LIG    1       -1.181   1.728   0.067  0.00  0.00    +0.160 A 
ATOM     14  C   LIG    1       -4.921   1.212   0.434  0.00  0.00    +0.330 C 
ATOM     15  H   LIG    1       -4.673  -0.300  -0.911  0.00  0.00    +0.430 HD
BRANCH   5  17
ATOM     16  C   LIG    1       -7.245  -0.248  -0.520  0.00  0.00    +0.080 C 
ATOM     17  C   LIG    1       -6.159  -0.842   0.379  0.00  0.00    +0.250 C 
ENDBRANCH   5  17
ENDBRANCH   1  13
BRANCH   3  18
ATOM     18  C   LIG    1        2.354   0.583   0.573  0.00  0.00    +0.520 C 
ATOM     19  N   LIG    1        3.493   1.054   1.119  0.00  0.00    -0.680 N 
ATOM     20  H   LIG    1        3.517   1.946   1.498  0.00  0.00    +0.430 HD
ATOM     21  O   LIG    1        2.324  -0.533   0.099  0.00  0.00    -0.510 OA
BRANCH  19  22
ATOM     22  C   LIG    1        4.696   0.217   1.139  0.00  0.00    +0.350 C 
ATOM     23  C   LIG    1        5.442   0.366  -0.188  0.00  0.00    +0.080 C 
BRANCH  22  24
ATOM     24  C   LIG    1        5.591   0.651   2.271  0.00  0.00    +0.120 A 
ATOM     25  N   LIG    1        5.900   1.882   2.584  0.00  0.00    -0.210 NA
ATOM     26  N   LIG    1        6.685   1.900   3.603  0.00  0.00    -0.250 NA
ATOM     27  C   LIG    1        6.923   0.661   4.002  0.00  0.00    +0.360 A 
ATOM     28  N   LIG    1        7.658   0.145   4.995  0.00  0.00    -0.430 NA
ATOM     29  C   LIG    1        7.715  -1.153   5.185  0.00  0.00    +0.400 A 
ATOM     30  C   LIG    1        7.014  -2.026   4.340  0.00  0.00    -0.010 A 
ATOM     31  C   LIG    1        6.269  -1.517   3.328  0.00  0.00    +0.300 A 
ATOM     32  N   LIG    1        6.221  -0.165   3.158  0.00  0.00    -0.420 N 
ENDBRANCH  22  24
ENDBRANCH  19  22
ENDBRANCH   3  18
TORSDOF 5
