REMARK  Name = ZINCpk00000FdLHi.0
REMARK                            x       y       z     vdW  Elec       q    Type
REMARK                         _______ _______ _______ _____ _____    ______ ____
ROOT
ATOM      1  C   LIG    1       -0.013   1.086   0.008  0.00  0.00    +0.270 C 
ATOM      2  C   LIG    1        1.423   1.617  -0.003  0.00  0.00    +0.200 C 
ATOM      3  N   LIG    1        2.108   1.189   1.226  0.00  0.00    -0.510 NA
ATOM      4  C   LIG    1        1.398   1.680   2.416  0.00  0.00    +0.150 C 
ATOM      5  C   LIG    1       -0.038   1.149   2.402  0.00  0.00    +0.250 C 
ATOM      6  O   LIG    1       -0.677   1.548   1.187  0.00  0.00    -0.370 OA
ENDROOT
BRANCH   1  11
ATOM      7  C   LIG    1       -2.693   1.328  -4.267  0.00  0.00    +0.200 C 
ATOM      8  C   LIG    1       -1.892   1.690  -3.044  0.00  0.00    +0.180 A 
ATOM      9  N   LIG    1       -1.556   2.893  -2.667  0.00  0.00    -0.290 NA
ATOM     10  N   LIG    1       -0.874   2.832  -1.578  0.00  0.00    -0.260 NA
ATOM     11  C   LIG    1       -0.743   1.586  -1.212  0.00  0.00    +0.180 A 
ATOM     12  N   LIG    1       -1.381   0.825  -2.134  0.00  0.00    -0.570 N 
ATOM     13  H   LIG    1       -1.458  -0.142  -2.140  0.00  0.00    +0.430 HD
ENDBRANCH   1  11
BRANCH   3  14
ATOM     14  C   LIG    1        3.509   1.631   1.229  0.00  0.00    +0.190 C 
ATOM     15  C   LIG    1        4.282   0.969   2.394  0.00  0.00    +0.070 C 
ATOM     16  C   LIG    1        5.231   2.108   2.828  0.00  0.00    +0.260 C 
ATOM     17  N   LIG    1        4.564   3.350   2.421  0.00  0.00    -0.580 N 
ATOM     18  C   LIG    1        3.596   3.112   1.520  0.00  0.00    +0.490 C 
ATOM     19  O   LIG    1        2.895   3.962   1.013  0.00  0.00    -0.500 OA
BRANCH  17  20
ATOM     20  C   LIG    1        4.894   4.621   2.910  0.00  0.00    +0.110 A 
ATOM     21  C   LIG    1        5.857   5.385   2.267  0.00  0.00    +0.050 A 
ATOM     22  C   LIG    1        6.175   6.641   2.748  0.00  0.00    +0.020 A 
ATOM     23  C   LIG    1        5.545   7.132   3.876  0.00  0.00    +0.060 A 
ATOM     24  C   LIG    1        4.588   6.372   4.525  0.00  0.00    -0.010 A 
ATOM     25  C   LIG    1        4.260   5.117   4.045  0.00  0.00    +0.110 A 
ATOM     26  F   LIG    1        3.326   4.374   4.678  0.00  0.00    -0.130 F 
ENDBRANCH  17  20
ENDBRANCH   3  14
TORSDOF 3
