REMARK  Name = ZINCpk00000FdLHi.1
REMARK                            x       y       z     vdW  Elec       q    Type
REMARK                         _______ _______ _______ _____ _____    ______ ____
ROOT
ATOM      1  C   LIG    1       -0.731   1.580   1.266  0.00  0.00    +0.300 C 
ATOM      2  C   LIG    1       -0.013   1.086   0.008  0.00  0.00    +0.180 C 
ATOM      3  N   LIG    1       -0.725   1.574  -1.182  0.00  0.00    -0.500 NA
ATOM      4  C   LIG    1       -2.119   1.107  -1.182  0.00  0.00    +0.150 C 
ATOM      5  C   LIG    1       -2.818   1.601   0.088  0.00  0.00    +0.250 C 
ATOM      6  O   LIG    1       -2.093   1.143   1.233  0.00  0.00    -0.370 OA
ENDROOT
BRANCH   1  10
ATOM      7  C   LIG    1        2.088   1.307   5.396  0.00  0.00    +0.200 C 
ATOM      8  C   LIG    1        1.169   0.913   4.269  0.00  0.00    +0.290 A 
ATOM      9  N   LIG    1        0.746   1.698   3.312  0.00  0.00    -0.530 NA
ATOM     10  C   LIG    1       -0.051   1.019   2.488  0.00  0.00    +0.230 A 
ATOM     11  N   LIG    1       -0.150  -0.213   2.914  0.00  0.00    -0.280 NA
ATOM     12  N   LIG    1        0.641  -0.307   4.071  0.00  0.00    -0.480 N 
ATOM     13  H   LIG    1        0.776  -1.095   4.620  0.00  0.00    +0.440 HD
ENDBRANCH   1  10
BRANCH   3  14
ATOM     14  C   LIG    1       -0.034   1.168  -2.413  0.00  0.00    +0.180 C 
ATOM     15  C   LIG    1       -0.703   1.815  -3.647  0.00  0.00    +0.090 C 
ATOM     16  C   LIG    1       -1.692   0.712  -4.085  0.00  0.00    +0.270 C 
ATOM     17  N   LIG    1       -1.121  -0.545  -3.587  0.00  0.00    -0.580 N 
ATOM     18  C   LIG    1       -0.192  -0.319  -2.643  0.00  0.00    +0.490 C 
ATOM     19  O   LIG    1        0.431  -1.182  -2.060  0.00  0.00    -0.510 OA
BRANCH  17  20
ATOM     20  C   LIG    1       -1.497  -1.817  -4.037  0.00  0.00    +0.110 A 
ATOM     21  C   LIG    1       -2.530  -2.499  -3.410  0.00  0.00    +0.050 A 
ATOM     22  C   LIG    1       -2.903  -3.751  -3.860  0.00  0.00    +0.020 A 
ATOM     23  C   LIG    1       -2.242  -4.330  -4.927  0.00  0.00    +0.060 A 
ATOM     24  C   LIG    1       -1.208  -3.656  -5.552  0.00  0.00    -0.010 A 
ATOM     25  C   LIG    1       -0.833  -2.401  -5.111  0.00  0.00    +0.110 A 
ATOM     26  F   LIG    1        0.176  -1.742  -5.721  0.00  0.00    -0.130 F 
ENDBRANCH  17  20
ENDBRANCH   3  14
TORSDOF 3
