REMARK  Name = ZINCpk00000ebe9Q.0
REMARK                            x       y       z     vdW  Elec       q    Type
REMARK                         _______ _______ _______ _____ _____    ______ ____
ROOT
ATOM      1  S   LIG    1       -2.730   0.847   0.020  0.00  0.00    +2.700 S 
ATOM      2  O   LIG    1       -2.435  -0.429  -0.532  0.00  0.00    -0.950 OA
ATOM      3  O   LIG    1       -3.719   1.716  -0.515  0.00  0.00    -0.940 OA
ENDROOT
BRANCH   1  10
ATOM      4  C   LIG    1        2.946   4.993   0.000  0.00  0.00    +0.360 C 
ATOM      5  N   LIG    1        2.479   3.604  -0.002  0.00  0.00    -0.550 N 
ATOM      6  C   LIG    1        3.256   2.503  -0.014  0.00  0.00    +0.640 A 
ATOM      7  O   LIG    1        2.479   1.408  -0.013  0.00  0.00    -0.230 OA
ATOM      8  C   LIG    1        1.177   1.786   0.000  0.00  0.00    +0.010 A 
ATOM      9  C   LIG    1       -0.013   1.076   0.008  0.00  0.00    +0.190 A 
ATOM     10  C   LIG    1       -1.218   1.751   0.017  0.00  0.00    -0.670 A 
ATOM     11  C   LIG    1       -1.243   3.135   0.029  0.00  0.00    +0.160 A 
ATOM     12  C   LIG    1       -0.062   3.851   0.022  0.00  0.00    +0.030 A 
ATOM     13  O   LIG    1        4.472   2.501  -0.025  0.00  0.00    -0.470 OA
ATOM     14  C   LIG    1        1.151   3.181   0.008  0.00  0.00    +0.130 A 
ENDBRANCH   1  10
BRANCH   1  15
ATOM     15  N   LIG    1       -3.143   0.587   1.603  0.00  0.00    -1.000 NA
ATOM     16  C   LIG    1       -2.685  -0.619   2.308  0.00  0.00    +0.290 C 
ATOM     17  C   LIG    1       -3.894  -1.330   2.913  0.00  0.00    +0.040 C 
ATOM     18  C   LIG    1       -4.676  -0.348   3.788  0.00  0.00    +0.080 C 
ATOM     19  C   LIG    1       -5.178   0.816   2.930  0.00  0.00    +0.040 C 
ATOM     20  C   LIG    1       -3.978   1.554   2.327  0.00  0.00    +0.290 C 
BRANCH  18  21
ATOM     21  C   LIG    1       -5.851  -1.056   4.411  0.00  0.00    +0.080 A 
ATOM     22  N   LIG    1       -6.332  -0.838   5.608  0.00  0.00    -0.290 NA
ATOM     23  N   LIG    1       -7.423  -1.695   5.804  0.00  0.00    -0.480 N 
ATOM     24  H   LIG    1       -7.971  -1.747   6.603  0.00  0.00    +0.440 HD
ATOM     25  C   LIG    1       -7.572  -2.439   4.689  0.00  0.00    +0.240 A 
ATOM     26  C   LIG    1       -6.613  -2.064   3.811  0.00  0.00    -0.120 A 
ENDBRANCH  18  21
ENDBRANCH   1  15
TORSDOF 3
