REMARK  Name = ZINCqH0000036lmL.1
REMARK                            x       y       z     vdW  Elec       q    Type
REMARK                         _______ _______ _______ _____ _____    ______ ____
ROOT
ATOM      1  C   LIG    1        5.250  -4.184  -0.152  0.00  0.00    +0.360 C 
ENDROOT
BRANCH   1   2
ATOM      2  N   LIG    1        5.277  -4.610   1.253  0.00  0.00    -0.380 N 
ATOM      3  C   LIG    1        5.478  -6.063   1.318  0.00  0.00    +0.270 C 
ATOM      4  C   LIG    1        5.425  -6.524   2.777  0.00  0.00    +0.080 C 
ATOM      5  C   LIG    1        6.530  -5.819   3.568  0.00  0.00    -0.200 C 
ATOM      6  C   LIG    1        6.355  -4.304   3.432  0.00  0.00    +0.090 C 
ATOM      7  C   LIG    1        6.372  -3.925   1.949  0.00  0.00    +0.260 C 
ATOM      8  H   LIG    1        4.400  -4.373   1.692  0.00  0.00    +0.420 HD
BRANCH   5   9
ATOM      9  C   LIG    1        6.436  -6.214   5.043  0.00  0.00    +0.390 C 
ATOM     10  F   LIG    1        5.185  -5.843   5.547  0.00  0.00    -0.210 F 
ATOM     11  F   LIG    1        7.442  -5.563   5.766  0.00  0.00    -0.190 F 
ENDBRANCH   5   9
BRANCH   5  12
ATOM     12  C   LIG    1        7.876  -6.222   3.023  0.00  0.00    +0.500 C 
ATOM     13  O   LIG    1        8.033  -7.334   2.547  0.00  0.00    -0.670 OA
ATOM     14  O   LIG    1        8.808  -5.437   3.058  0.00  0.00    -0.660 OA
ENDBRANCH   5  12
ENDBRANCH   1   2
BRANCH   1  17
ATOM     15  C   LIG    1        3.505  -0.990  -0.283  0.00  0.00    +0.130 A 
ATOM     16  N   LIG    1        3.679  -2.280  -0.216  0.00  0.00    -0.470 NA
ATOM     17  C   LIG    1        4.918  -2.716  -0.226  0.00  0.00    +0.010 A 
ATOM     18  C   LIG    1        5.866  -1.777  -0.304  0.00  0.00    -0.060 A 
ATOM     19  S   LIG    1        5.077  -0.202  -0.377  0.00  0.00    +0.210 S 
BRANCH  15  25
ATOM     20  C   LIG    1        2.140   1.097  -0.362  0.00  0.00    +0.150 A 
ATOM     21  C   LIG    1        0.910   1.735  -0.364  0.00  0.00    -0.070 A 
ATOM     22  C   LIG    1       -0.255   0.994  -0.292  0.00  0.00    +0.080 A 
ATOM     23  C   LIG    1       -0.201  -0.387  -0.217  0.00  0.00    -0.030 A 
ATOM     24  C   LIG    1        1.016  -1.037  -0.214  0.00  0.00    +0.110 A 
ATOM     25  C   LIG    1        2.198  -0.300  -0.287  0.00  0.00    -0.070 A 
BRANCH  20  27
ATOM     26  C   LIG    1        3.148   3.244  -0.509  0.00  0.00    +0.260 C 
ATOM     27  O   LIG    1        3.285   1.824  -0.434  0.00  0.00    -0.320 OA
ENDBRANCH  20  27
ENDBRANCH  15  25
ENDBRANCH   1  17
TORSDOF 6
