REMARK  Name = ZINCpk00000y6w3Y.0
REMARK                            x       y       z     vdW  Elec       q    Type
REMARK                         _______ _______ _______ _____ _____    ______ ____
ROOT
ATOM      1  O   LIG    1        2.381   4.271  -0.543  0.00  0.00    -0.960 OA
ATOM      2  S   LIG    1        1.143   3.848   0.011  0.00  0.00    +2.700 S 
ATOM      3  O   LIG    1       -0.118   4.232  -0.520  0.00  0.00    -0.950 OA
ENDROOT
BRANCH   2   4
ATOM      4  C   LIG    1        1.171   2.086   0.002  0.00  0.00    -0.710 A 
ATOM      5  C   LIG    1       -0.017   1.377   0.010  0.00  0.00    +0.170 A 
ATOM      6  C   LIG    1        0.002  -0.004   0.002  0.00  0.00    -0.030 A 
ATOM      7  C   LIG    1        1.213  -0.680  -0.013  0.00  0.00    +0.180 A 
ATOM      8  C   LIG    1        2.403   0.033  -0.021  0.00  0.00    -0.090 A 
ATOM      9  C   LIG    1        2.379   1.415  -0.013  0.00  0.00    +0.170 A 
BRANCH   7  10
ATOM     10  O   LIG    1        1.234  -2.039  -0.020  0.00  0.00    -0.300 OA
BRANCH  10  11
ATOM     11  C   LIG    1        2.518  -2.668  -0.036  0.00  0.00    +0.200 C 
BRANCH  11  12
ATOM     12  C   LIG    1        2.341  -4.188  -0.042  0.00  0.00    +0.410 C 
ATOM     13  F   LIG    1        1.621  -4.569  -1.179  0.00  0.00    -0.200 F 
ATOM     14  F   LIG    1        1.643  -4.580   1.105  0.00  0.00    -0.200 F 
ENDBRANCH  11  12
ENDBRANCH  10  11
ENDBRANCH   7  10
ENDBRANCH   2   4
BRANCH   2  15
ATOM     15  N   LIG    1        1.150   4.330   1.595  0.00  0.00    -1.110 NA
ATOM     16  H   LIG    1        0.385   4.799   1.963  0.00  0.00    +0.420 HD
BRANCH  15  17
ATOM     17  C   LIG    1        2.313   4.048   2.442  0.00  0.00    +0.300 C 
BRANCH  17  18
ATOM     18  C   LIG    1        2.238   4.899   3.711  0.00  0.00    +0.170 C 
ATOM     19  C   LIG    1        3.511   4.699   4.536  0.00  0.00    +0.160 C 
ATOM     20  N   LIG    1        3.401   5.459   5.790  0.00  0.00    -0.500 NA
ATOM     21  C   LIG    1        2.227   5.024   6.561  0.00  0.00    +0.150 C 
ATOM     22  C   LIG    1        0.966   5.220   5.715  0.00  0.00    +0.220 C 
ATOM     23  O   LIG    1        1.105   4.500   4.487  0.00  0.00    -0.380 OA
BRANCH  20  24
ATOM     24  C   LIG    1        4.629   5.339   6.588  0.00  0.00    +0.140 C 
ATOM     25  C   LIG    1        4.547   4.548   7.895  0.00  0.00    -0.020 C 
ATOM     26  C   LIG    1        4.673   6.074   7.930  0.00  0.00    +0.030 C 
ENDBRANCH  20  24
ENDBRANCH  17  18
ENDBRANCH  15  17
ENDBRANCH   2  15
TORSDOF 8
