REMARK  Name = ZINCtV00001bB3r2.0
REMARK                            x       y       z     vdW  Elec       q    Type
REMARK                         _______ _______ _______ _____ _____    ______ ____
ROOT
ATOM      1  O   LIG    1       -0.170  -2.459  -0.569  0.00  0.00    -0.470 OA
ATOM      2  C   LIG    1       -1.332  -2.628  -0.252  0.00  0.00    +0.590 C 
ATOM      3  N   LIG    1       -2.061  -1.595   0.214  0.00  0.00    -0.470 N 
ATOM      4  N   LIG    1       -1.597  -0.294   0.443  0.00  0.00    -0.180 NA
ATOM      5  C   LIG    1       -2.454   0.459   1.045  0.00  0.00    +0.110 C 
ATOM      6  C   LIG    1       -2.442   1.853   1.263  0.00  0.00    -0.070 C 
ATOM      7  C   LIG    1       -3.667   2.569   1.747  0.00  0.00    +0.090 C 
ATOM      8  C   LIG    1       -4.820   1.656   2.107  0.00  0.00    +0.030 C 
ATOM      9  C   LIG    1       -4.882   0.387   1.259  0.00  0.00    +0.050 C 
ATOM     10  C   LIG    1       -1.306   2.554   1.037  0.00  0.00    +0.120 C 
ATOM     11  C   LIG    1       -3.609  -0.420   1.516  0.00  0.00    +0.020 C 
ATOM     12  C   LIG    1       -3.498  -1.631   0.574  0.00  0.00    +0.290 C 
ENDROOT
BRANCH   2  13
ATOM     13  C   LIG    1       -1.944  -3.967  -0.377  0.00  0.00    -0.170 A 
ATOM     14  C   LIG    1       -3.309  -4.102  -0.661  0.00  0.00    +0.130 A 
ATOM     15  C   LIG    1       -3.833  -5.378  -0.768  0.00  0.00    -0.030 A 
ATOM     16  C   LIG    1       -3.002  -6.470  -0.594  0.00  0.00    +0.310 A 
ATOM     17  N   LIG    1       -1.719  -6.314  -0.328  0.00  0.00    -0.480 NA
ATOM     18  C   LIG    1       -1.171  -5.120  -0.220  0.00  0.00    +0.230 A 
ATOM     19 CL   LIG    1        0.525  -4.979   0.126  0.00  0.00    +0.000 Cl
ENDBRANCH   2  13
BRANCH  10  20
ATOM     20  C   LIG    1       -0.050   1.849   0.784  0.00  0.00    -0.180 A 
ATOM     21  C   LIG    1        0.854   2.169  -0.189  0.00  0.00    +0.040 A 
ATOM     22  C   LIG    1        1.959   1.349  -0.230  0.00  0.00    -0.010 A 
ATOM     23  C   LIG    1        1.977   0.372   0.684  0.00  0.00    -0.040 A 
ATOM     24  S   LIG    1        0.530   0.452   1.680  0.00  0.00    +0.160 S 
ENDBRANCH  10  20
BRANCH  12  25
ATOM     25  C   LIG    1       -3.844  -2.909   1.293  0.00  0.00    -0.210 A 
ATOM     26  C   LIG    1       -5.022  -3.532   1.231  0.00  0.00    +0.040 A 
ATOM     27  C   LIG    1       -5.106  -4.695   1.976  0.00  0.00    +0.020 A 
ATOM     28  C   LIG    1       -4.000  -5.013   2.650  0.00  0.00    -0.030 A 
ATOM     29  S   LIG    1       -2.758  -3.804   2.349  0.00  0.00    +0.130 S 
ENDBRANCH  12  25
TORSDOF 3
