REMARK  Name = ZINCrH000004qKvh.0
REMARK                            x       y       z     vdW  Elec       q    Type
REMARK                         _______ _______ _______ _____ _____    ______ ____
ROOT
ATOM      1  N   LIG    1       -2.056   5.038  -6.336  0.00  0.00    -0.650 N 
ATOM      2  H   LIG    1       -1.814   5.944  -6.584  0.00  0.00    +0.420 HD
ATOM      3  C   LIG    1       -2.733   4.260  -7.204  0.00  0.00    +0.540 C 
ATOM      4  O   LIG    1       -3.115   3.161  -6.862  0.00  0.00    -0.490 OA
ENDROOT
BRANCH   3   5
ATOM      5  C   LIG    1       -3.013   4.756  -8.599  0.00  0.00    +0.160 C 
ATOM      6  O   LIG    1       -2.304   5.978  -8.830  0.00  0.00    -0.310 OA
ATOM      7  C   LIG    1       -2.675   6.704  -9.919  0.00  0.00    +0.050 A 
ATOM      8  C   LIG    1       -1.823   7.685 -10.406  0.00  0.00    +0.030 A 
ATOM      9  C   LIG    1       -2.189   8.435 -11.508  0.00  0.00    +0.030 A 
ATOM     10  C   LIG    1       -3.404   8.210 -12.127  0.00  0.00    +0.030 A 
ATOM     11  C   LIG    1       -4.257   7.233 -11.649  0.00  0.00    +0.030 A 
ATOM     12  C   LIG    1       -3.895   6.476 -10.544  0.00  0.00    +0.050 A 
ATOM     13  O   LIG    1       -4.744   5.516 -10.086  0.00  0.00    -0.300 OA
ATOM     14  C   LIG    1       -4.514   5.035  -8.757  0.00  0.00    +0.160 C 
ATOM     15  C   LIG    1       -5.305   3.745  -8.530  0.00  0.00    +0.090 C 
ENDBRANCH   3   5
BRANCH   1  22
ATOM     16  C   LIG    1       -1.412   6.900  -4.285  0.00  0.00    +0.080 C 
ATOM     17  C   LIG    1       -1.379   5.412  -4.047  0.00  0.00    -0.100 A 
ATOM     18  C   LIG    1       -1.031   4.920  -2.805  0.00  0.00    +0.000 A 
ATOM     19  C   LIG    1       -1.001   3.548  -2.586  0.00  0.00    +0.080 A 
ATOM     20  C   LIG    1       -1.317   2.673  -3.617  0.00  0.00    +0.040 A 
ATOM     21  C   LIG    1       -1.671   3.167  -4.857  0.00  0.00    +0.040 A 
ATOM     22  C   LIG    1       -1.701   4.537  -5.076  0.00  0.00    +0.140 A 
BRANCH  19  23
ATOM     23  N   LIG    1       -0.647   3.048  -1.328  0.00  0.00    -0.510 N 
ATOM     24  C   LIG    1       -1.185   3.892  -0.258  0.00  0.00    +0.200 C 
ATOM     25  C   LIG    1       -1.177   3.121   1.066  0.00  0.00    +0.120 C 
ATOM     26  S   LIG    1        0.542   2.701   1.486  0.00  0.00    -0.270 S 
ATOM     27  C   LIG    1        1.127   1.930  -0.055  0.00  0.00    +0.120 C 
ATOM     28  C   LIG    1        0.802   2.865  -1.225  0.00  0.00    +0.200 C 
ENDBRANCH  19  23
ENDBRANCH   1  22
TORSDOF 3
