REMARK  Name = ZINCpe00000MJLFy.0
REMARK                            x       y       z     vdW  Elec       q    Type
REMARK                         _______ _______ _______ _____ _____    ______ ____
ROOT
ATOM      1  C   LIG    1        1.091  -0.028   3.919  0.00  0.00    +0.450 A 
ATOM      2  C   LIG    1        0.849   0.738   2.784  0.00  0.00    -0.170 A 
ATOM      3  C   LIG    1       -0.459   0.833   2.319  0.00  0.00    +0.380 A 
ATOM      4  N   LIG    1       -1.424   0.183   2.968  0.00  0.00    -0.590 NA
ATOM      5  C   LIG    1       -1.153  -0.536   4.038  0.00  0.00    +0.550 A 
ATOM      6  N   LIG    1        0.071  -0.647   4.511  0.00  0.00    -0.590 NA
ENDROOT
BRANCH   3   7
ATOM      7  N   LIG    1       -0.753   1.587   1.194  0.00  0.00    -0.440 N 
ATOM      8  C   LIG    1       -0.013   1.086   0.008  0.00  0.00    +0.190 C 
ATOM      9  C   LIG    1       -0.806   1.620  -1.204  0.00  0.00    +0.040 C 
ATOM     10  C   LIG    1       -2.235   1.858  -0.674  0.00  0.00    +0.040 C 
ATOM     11  C   LIG    1       -2.185   1.447   0.813  0.00  0.00    +0.170 C 
BRANCH  11  12
ATOM     12  C   LIG    1       -3.058   2.381   1.654  0.00  0.00    +0.190 C 
BRANCH  12  13
ATOM     13  O   LIG    1       -2.678   3.736   1.409  0.00  0.00    -0.560 OA
ATOM     14  H   LIG    1       -3.191   4.385   1.911  0.00  0.00    +0.380 HD
ENDBRANCH  12  13
ENDBRANCH  11  12
ENDBRANCH   3   7
BRANCH   1  15
ATOM     15  N   LIG    1        2.377  -0.150   4.425  0.00  0.00    -0.580 N 
BRANCH  15  16
ATOM     16  C   LIG    1        3.473   0.621   3.832  0.00  0.00    +0.320 C 
BRANCH  16  17
ATOM     17  C   LIG    1        3.594   1.968   4.548  0.00  0.00    +0.150 C 
BRANCH  17  19
ATOM     18  C   LIG    1        4.117   2.952   6.670  0.00  0.00    +0.200 C 
ATOM     19  O   LIG    1        3.975   1.752   5.909  0.00  0.00    -0.390 OA
ENDBRANCH  17  19
ENDBRANCH  16  17
ENDBRANCH  15  16
BRANCH  15  20
ATOM     20  C   LIG    1        2.639  -1.049   5.551  0.00  0.00    +0.400 C 
BRANCH  20  21
ATOM     21  C   LIG    1        2.985  -2.420   5.028  0.00  0.00    +0.060 A 
ATOM     22  C   LIG    1        4.232  -2.899   4.811  0.00  0.00    -0.110 A 
ATOM     23  C   LIG    1        4.112  -4.207   4.329  0.00  0.00    +0.220 A 
ATOM     24  N   LIG    1        2.839  -4.499   4.252  0.00  0.00    -0.300 NA
ATOM     25  N   LIG    1        2.108  -3.387   4.689  0.00  0.00    -0.360 N 
ATOM     26  C   LIG    1        0.648  -3.291   4.762  0.00  0.00    +0.350 C 
ENDBRANCH  20  21
ENDBRANCH  15  20
ENDBRANCH   1  15
TORSDOF 9
