REMARK  Name = ZINCpe000000XBom.0
REMARK                            x       y       z     vdW  Elec       q    Type
REMARK                         _______ _______ _______ _____ _____    ______ ____
ROOT
ATOM      1  C   LIG    1        0.019   3.061   4.521  0.00  0.00    +0.340 C 
ATOM      2  C   LIG    1       -0.711   2.317   3.381  0.00  0.00    +0.010 C 
ATOM      3  C   LIG    1       -1.420   1.178   4.150  0.00  0.00    +0.080 C 
ATOM      4  C   LIG    1       -1.567   1.716   5.556  0.00  0.00    +0.520 C 
ATOM      5  O   LIG    1       -2.310   1.261   6.400  0.00  0.00    -0.520 OA
ATOM      6  N   LIG    1       -0.754   2.772   5.734  0.00  0.00    -0.610 N 
ATOM      7  C   LIG    1       -0.654   3.537   6.980  0.00  0.00    +0.290 C 
ENDROOT
BRANCH   2   8
ATOM      8  C   LIG    1        0.272   1.763   2.382  0.00  0.00    +0.540 C 
ATOM      9  N   LIG    1       -0.122   1.507   1.119  0.00  0.00    -0.540 N 
ATOM     10  C   LIG    1       -1.529   1.649   0.695  0.00  0.00    +0.280 C 
ATOM     11  C   LIG    1       -1.902   0.447  -0.179  0.00  0.00    +0.050 C 
ATOM     12  C   LIG    1       -1.043   0.439  -1.449  0.00  0.00    +0.320 C 
ATOM     13  N   LIG    1        0.364   0.592  -1.072  0.00  0.00    -0.390 N 
ATOM     14  N   LIG    1        1.501   0.279  -1.816  0.00  0.00    -0.280 NA
ATOM     15  C   LIG    1        2.558   0.572  -1.096  0.00  0.00    +0.250 A 
ATOM     16  C   LIG    1        2.126   1.083   0.135  0.00  0.00    -0.100 A 
ATOM     17  C   LIG    1        0.776   1.087   0.125  0.00  0.00    +0.310 A 
ATOM     18  O   LIG    1        1.419   1.547   2.715  0.00  0.00    -0.490 OA
ENDBRANCH   2   8
BRANCH   1  21
ATOM     19  C   LIG    1        1.891   5.163   5.885  0.00  0.00    +0.150 C 
ATOM     20  C   LIG    1        0.842   5.453   4.842  0.00  0.00    +0.110 A 
ATOM     21  C   LIG    1        0.032   4.544   4.252  0.00  0.00    -0.260 A 
ATOM     22  C   LIG    1       -0.794   5.224   3.352  0.00  0.00    +0.240 A 
ATOM     23  N   LIG    1       -0.488   6.495   3.397  0.00  0.00    -0.290 NA
ATOM     24  N   LIG    1        0.545   6.664   4.328  0.00  0.00    -0.370 N 
ATOM     25  C   LIG    1        1.185   7.933   4.684  0.00  0.00    +0.360 C 
ENDBRANCH   1  21
TORSDOF 2
