REMARK  Name = ZINCkj00000GeQc1.0
REMARK                            x       y       z     vdW  Elec       q    Type
REMARK                         _______ _______ _______ _____ _____    ______ ____
ROOT
ATOM      1  N   LIG    1       -0.012   1.005   0.008  0.00  0.00    -0.510 N 
ATOM      2  H   LIG    1        0.935   1.354   0.000  0.00  0.00    +0.420 HD
ATOM      3  H   LIG    1        0.002  -0.004   0.002  0.00  0.00    +0.430 HD
ENDROOT
BRANCH   1   4
ATOM      4  C   LIG    1       -0.699   1.479   1.216  0.00  0.00    +0.370 C 
BRANCH   4  12
ATOM      5  C   LIG    1       -1.259  -1.245   2.736  0.00  0.00    +0.180 C 
ATOM      6  C   LIG    1       -0.216  -0.223   3.108  0.00  0.00    +0.110 A 
ATOM      7  N   LIG    1        0.617  -0.308   4.114  0.00  0.00    -0.250 NA
ATOM      8  N   LIG    1        1.415   0.844   4.120  0.00  0.00    -0.340 N 
ATOM      9  C   LIG    1        1.035   1.618   3.082  0.00  0.00    +0.160 A 
ATOM     10 CL   LIG    1        1.714   3.156   2.650  0.00  0.00    +0.020 Cl
ATOM     11  C   LIG    1        2.473   1.153   5.085  0.00  0.00    +0.390 C 
ATOM     12  C   LIG    1        0.030   0.979   2.437  0.00  0.00    -0.300 A 
ENDBRANCH   4  12
ENDBRANCH   1   4
BRANCH   1  13
ATOM     13  C   LIG    1       -0.722   1.492  -1.183  0.00  0.00    +0.290 C 
BRANCH  13  14
ATOM     14  C   LIG    1       -0.006   0.998  -2.441  0.00  0.00    +0.150 C 
ATOM     15  C   LIG    1       -0.671   1.606  -3.679  0.00  0.00    +0.190 C 
ATOM     16  N   LIG    1       -0.029   1.069  -4.888  0.00  0.00    -0.500 NA
ATOM     17  C   LIG    1       -0.136  -0.397  -4.926  0.00  0.00    +0.170 C 
ATOM     18  C   LIG    1        0.524  -0.985  -3.676  0.00  0.00    +0.250 C 
ATOM     19  O   LIG    1       -0.092  -0.428  -2.512  0.00  0.00    -0.390 OA
BRANCH  16  20
ATOM     20  C   LIG    1       -0.601   1.671  -6.100  0.00  0.00    +0.130 C 
ATOM     21  C   LIG    1       -1.337   0.744  -7.069  0.00  0.00    -0.010 C 
ATOM     22  C   LIG    1        0.039   1.303  -7.440  0.00  0.00    +0.040 C 
ENDBRANCH  16  20
ENDBRANCH  13  14
ENDBRANCH   1  13
TORSDOF 5
