REMARK  Name = ZINCpe000000YhED.0
REMARK                            x       y       z     vdW  Elec       q    Type
REMARK                         _______ _______ _______ _____ _____    ______ ____
ROOT
ATOM      1  N   LIG    1       -4.480   2.610  -0.944  0.00  0.00    -0.730 N 
ATOM      2  H   LIG    1       -4.407   2.960  -1.845  0.00  0.00    +0.400 HD
ATOM      3  C   LIG    1       -5.568   1.902  -0.582  0.00  0.00    +0.710 C 
ATOM      4  N   LIG    1       -6.555   1.681  -1.472  0.00  0.00    -0.740 N 
ATOM      5  H   LIG    1       -6.482   2.031  -2.374  0.00  0.00    +0.400 HD
ATOM      6  O   LIG    1       -5.660   1.464   0.549  0.00  0.00    -0.570 OA
ENDROOT
BRANCH   1  10
ATOM      7  N   LIG    1       -1.165   2.167   0.020  0.00  0.00    -0.540 N 
ATOM      8  C   LIG    1       -1.141   3.634   0.033  0.00  0.00    +0.280 C 
ATOM      9  C   LIG    1       -2.559   4.072  -0.399  0.00  0.00    +0.060 C 
ATOM     10  C   LIG    1       -3.407   2.850   0.025  0.00  0.00    +0.270 C 
ATOM     11  C   LIG    1       -2.425   1.699   0.024  0.00  0.00    +0.500 C 
ATOM     12  O   LIG    1       -2.731   0.525   0.027  0.00  0.00    -0.500 OA
BRANCH   7  16
ATOM     13  C   LIG    1        1.786  -1.779  -0.025  0.00  0.00    +0.360 C 
ATOM     14  N   LIG    1        1.302  -0.396  -0.013  0.00  0.00    -0.370 N 
ATOM     15  C   LIG    1        0.002  -0.004   0.002  0.00  0.00    +0.230 A 
ATOM     16  C   LIG    1       -0.016   1.353   0.009  0.00  0.00    +0.000 A 
ATOM     17  C   LIG    1        1.313   1.801  -0.001  0.00  0.00    +0.230 A 
ATOM     18  N   LIG    1        2.099   0.756  -0.014  0.00  0.00    -0.280 NA
ENDBRANCH   7  16
ENDBRANCH   1  10
BRANCH   4  19
ATOM     19  C   LIG    1       -7.738   0.912  -1.079  0.00  0.00    +0.460 C 
BRANCH  19  20
ATOM     20  C   LIG    1       -8.661   0.812  -2.221  0.00  0.00    -0.180 C 
ATOM     21  C   LIG    1       -9.397   0.732  -3.133  0.00  0.00    -0.110 C 
BRANCH  21  22
ATOM     22  C   LIG    1      -10.295   0.635  -4.244  0.00  0.00    +0.010 A 
ATOM     23  C   LIG    1       -9.970   1.235  -5.461  0.00  0.00    +0.040 A 
ATOM     24  C   LIG    1      -10.837   1.133  -6.530  0.00  0.00    +0.010 A 
ATOM     25  C   LIG    1      -12.031   0.448  -6.393  0.00  0.00    +0.020 A 
ATOM     26  C   LIG    1      -12.361  -0.145  -5.188  0.00  0.00    +0.010 A 
ATOM     27  C   LIG    1      -11.500  -0.056  -4.113  0.00  0.00    +0.040 A 
ENDBRANCH  21  22
ENDBRANCH  19  20
ENDBRANCH   4  19
TORSDOF 5
