REMARK  Name = ZINCrH000004sgr8.0
REMARK                            x       y       z     vdW  Elec       q    Type
REMARK                         _______ _______ _______ _____ _____    ______ ____
ROOT
ATOM      1  N   LIG    1        1.432  -4.835  -0.639  0.00  0.00    -0.740 N 
ATOM      2  H   LIG    1        1.480  -5.786  -0.821  0.00  0.00    +0.400 HD
ATOM      3  C   LIG    1        1.375  -3.955  -1.659  0.00  0.00    +0.710 C 
ATOM      4  N   LIG    1        1.486  -4.389  -2.930  0.00  0.00    -0.630 N 
ATOM      5  C   LIG    1        1.534  -3.435  -4.045  0.00  0.00    +0.300 C 
ATOM      6  C   LIG    1        0.458  -3.804  -5.064  0.00  0.00    +0.030 C 
ATOM      7  C   LIG    1        0.633  -5.267  -5.480  0.00  0.00    +0.090 C 
ATOM      8  C   LIG    1        0.472  -6.170  -4.255  0.00  0.00    +0.030 C 
ATOM      9  C   LIG    1        1.554  -5.827  -3.227  0.00  0.00    +0.270 C 
ATOM     10  O   LIG    1        1.224  -2.771  -1.432  0.00  0.00    -0.580 OA
ENDROOT
BRANCH   7  11
ATOM     11  C   LIG    1       -0.409  -5.625  -6.508  0.00  0.00    +0.140 A 
ATOM     12  N   LIG    1       -1.696  -5.577  -6.346  0.00  0.00    -0.270 NA
ATOM     13  O   LIG    1       -2.342  -5.987  -7.534  0.00  0.00    -0.090 OA
ATOM     14  C   LIG    1       -1.415  -6.299  -8.462  0.00  0.00    +0.110 A 
ATOM     15  C   LIG    1       -1.490  -6.747  -9.774  0.00  0.00    -0.020 A 
ATOM     16  C   LIG    1       -0.331  -6.983 -10.486  0.00  0.00    +0.170 A 
ATOM     17  C   LIG    1        0.912  -6.774  -9.901  0.00  0.00    -0.030 A 
ATOM     18  C   LIG    1        1.006  -6.334  -8.611  0.00  0.00    +0.140 A 
ATOM     19  F   LIG    1       -0.405  -7.419 -11.763  0.00  0.00    -0.120 F 
ATOM     20  C   LIG    1       -0.156  -6.084  -7.876  0.00  0.00    -0.210 A 
ENDBRANCH   7  11
BRANCH   1  21
ATOM     21  C   LIG    1        1.421  -4.354   0.745  0.00  0.00    +0.340 C 
BRANCH  21  27
ATOM     22  C   LIG    1        4.047  -7.663   3.464  0.00  0.00    +0.110 C 
ATOM     23  C   LIG    1        2.738  -7.096   2.978  0.00  0.00    -0.140 A 
ATOM     24  C   LIG    1        1.540  -7.652   3.385  0.00  0.00    +0.270 A 
ATOM     25  N   LIG    1        0.391  -7.165   2.959  0.00  0.00    -0.480 NA
ATOM     26  C   LIG    1        0.336  -6.136   2.136  0.00  0.00    +0.270 A 
ATOM     27  C   LIG    1        1.493  -5.529   1.686  0.00  0.00    -0.160 A 
ATOM     28  C   LIG    1        2.720  -6.013   2.111  0.00  0.00    +0.080 A 
ENDBRANCH  21  27
ENDBRANCH   1  21
TORSDOF 3
