REMARK  Name = ZINCtV00001bB3LF.0
REMARK                            x       y       z     vdW  Elec       q    Type
REMARK                         _______ _______ _______ _____ _____    ______ ____
ROOT
ATOM      1  C   LIG    1       -1.389   2.105   0.289  0.00  0.00    +0.190 A 
ATOM      2  C   LIG    1       -0.198   1.445   0.564  0.00  0.00    +0.060 A 
ATOM      3  C   LIG    1        0.995   2.140   0.553  0.00  0.00    +0.080 A 
ATOM      4  C   LIG    1        1.003   3.500   0.274  0.00  0.00    +0.130 A 
ATOM      5  C   LIG    1       -0.189   4.162   0.005  0.00  0.00    +0.070 A 
ATOM      6  C   LIG    1       -1.381   3.467   0.016  0.00  0.00    -0.200 A 
ENDROOT
BRANCH   1   9
ATOM      7  O   LIG    1       -1.565  -0.507  -0.194  0.00  0.00    -0.510 OA
ATOM      8  C   LIG    1       -2.611   0.084  -0.001  0.00  0.00    +0.550 C 
ATOM      9  N   LIG    1       -2.598   1.399   0.294  0.00  0.00    -0.670 N 
ATOM     10  H   LIG    1       -3.425   1.856   0.510  0.00  0.00    +0.410 HD
BRANCH   8  11
ATOM     11  C   LIG    1       -3.884  -0.634  -0.088  0.00  0.00    -0.070 C 
ATOM     12  C   LIG    1       -3.897  -1.950  -0.383  0.00  0.00    +0.140 C 
BRANCH  12  13
ATOM     13  C   LIG    1       -5.178  -2.671  -0.471  0.00  0.00    -0.050 A 
ATOM     14  C   LIG    1       -6.381  -1.997  -0.243  0.00  0.00    +0.060 A 
ATOM     15  C   LIG    1       -7.578  -2.679  -0.332  0.00  0.00    -0.030 A 
ATOM     16  C   LIG    1       -7.588  -4.030  -0.635  0.00  0.00    +0.060 A 
ATOM     17  C   LIG    1       -6.399  -4.705  -0.857  0.00  0.00    -0.030 A 
ATOM     18 CL   LIG    1       -6.424  -6.399  -1.236  0.00  0.00    -0.050 Cl
ATOM     19 CL   LIG    1       -9.074  -1.842  -0.057  0.00  0.00    -0.050 Cl
ATOM     20  C   LIG    1       -5.195  -4.035  -0.776  0.00  0.00    +0.070 A 
ENDBRANCH  12  13
ENDBRANCH   8  11
ENDBRANCH   1   9
BRANCH   4  21
ATOM     21  N   LIG    1        2.213   4.206   0.263  0.00  0.00    -0.670 N 
ATOM     22  H   LIG    1        2.244   5.121   0.583  0.00  0.00    +0.420 HD
ATOM     23  C   LIG    1        3.334   3.613  -0.193  0.00  0.00    +0.540 C 
ATOM     24  O   LIG    1        3.314   2.444  -0.516  0.00  0.00    -0.520 OA
BRANCH  23  25
ATOM     25  C   LIG    1        4.614   4.402  -0.300  0.00  0.00    -0.070 C 
ATOM     26  C   LIG    1        5.142   4.704  -1.704  0.00  0.00    +0.060 C 
ATOM     27  C   LIG    1        5.852   3.673  -0.824  0.00  0.00    +0.080 C 
ENDBRANCH  23  25
ENDBRANCH   4  21
BRANCH   6  28
ATOM     28  C   LIG    1       -2.674   4.184  -0.275  0.00  0.00    +0.510 C 
ATOM     29  F   LIG    1       -3.529   4.071   0.827  0.00  0.00    -0.180 F 
ATOM     30  F   LIG    1       -3.282   3.613  -1.397  0.00  0.00    -0.170 F 
ATOM     31  F   LIG    1       -2.412   5.536  -0.524  0.00  0.00    -0.170 F 
ENDBRANCH   6  28
TORSDOF 6
