REMARK  Name = ZINCrH000004sQff.0
REMARK                            x       y       z     vdW  Elec       q    Type
REMARK                         _______ _______ _______ _____ _____    ______ ____
ROOT
ATOM      1  C   LIG    1        2.439   0.789  -0.335  0.00  0.00    +0.570 C 
ATOM      2  N   LIG    1        1.396   1.634  -0.213  0.00  0.00    -0.590 N 
ATOM      3  C   LIG    1        1.600   3.077  -0.361  0.00  0.00    +0.300 C 
ATOM      4  O   LIG    1        2.255  -0.412  -0.315  0.00  0.00    -0.530 OA
ENDROOT
BRANCH   1  12
ATOM      5  C   LIG    1        5.804   5.347   1.104  0.00  0.00    +0.190 C 
ATOM      6  C   LIG    1        6.256   4.165   0.285  0.00  0.00    +0.070 A 
ATOM      7  N   LIG    1        7.434   3.962  -0.226  0.00  0.00    -0.310 NA
ATOM      8  O   LIG    1        7.521   2.925  -0.840  0.00  0.00    +0.090 OA
ATOM      9  C   LIG    1        6.376   2.221  -0.852  0.00  0.00    +0.230 A 
ATOM     10  N   LIG    1        5.992   1.068  -1.373  0.00  0.00    -0.460 NA
ATOM     11  C   LIG    1        4.770   0.609  -1.216  0.00  0.00    +0.410 A 
ATOM     12  C   LIG    1        3.807   1.324  -0.494  0.00  0.00    -0.200 A 
ATOM     13  C   LIG    1        4.161   2.551   0.079  0.00  0.00    +0.190 A 
ATOM     14  C   LIG    1        5.460   2.997  -0.106  0.00  0.00    -0.230 A 
ENDBRANCH   1  12
BRANCH   2  15
ATOM     15  C   LIG    1        0.057   1.108   0.068  0.00  0.00    +0.370 C 
BRANCH  15  16
ATOM     16  C   LIG    1       -0.852   1.401  -1.097  0.00  0.00    +0.120 A 
ATOM     17  C   LIG    1       -1.958   0.602  -1.318  0.00  0.00    -0.020 A 
ATOM     18  C   LIG    1       -2.788   0.880  -2.393  0.00  0.00    +0.070 A 
ATOM     19  C   LIG    1       -2.474   1.956  -3.209  0.00  0.00    -0.030 A 
ATOM     20  C   LIG    1       -1.351   2.710  -2.925  0.00  0.00    +0.260 A 
ATOM     21  N   LIG    1       -0.587   2.420  -1.891  0.00  0.00    -0.480 NA
ENDBRANCH  15  16
BRANCH  15  22
ATOM     22  C   LIG    1       -0.489   1.765   1.310  0.00  0.00    -0.100 A 
ATOM     23  C   LIG    1       -0.854   0.992   2.397  0.00  0.00    +0.030 A 
ATOM     24  C   LIG    1       -1.352   1.595   3.537  0.00  0.00    +0.010 A 
ATOM     25  C   LIG    1       -1.494   2.969   3.587  0.00  0.00    +0.010 A 
ATOM     26  C   LIG    1       -1.133   3.741   2.498  0.00  0.00    +0.000 A 
ATOM     27  C   LIG    1       -0.632   3.139   1.359  0.00  0.00    +0.020 A 
ENDBRANCH  15  22
ENDBRANCH   2  15
TORSDOF 4
