REMARK  Name = ZINCpe00000MxwAu.0
REMARK                            x       y       z     vdW  Elec       q    Type
REMARK                         _______ _______ _______ _____ _____    ______ ____
ROOT
ATOM      1  O   LIG    1        3.835   2.736  -0.058  0.00  0.00    -0.500 OA
ATOM      2  C   LIG    1        3.505   2.061  -1.010  0.00  0.00    +0.530 C 
ATOM      3  N   LIG    1        4.390   1.807  -1.995  0.00  0.00    -0.730 N 
ATOM      4  H   LIG    1        4.127   1.267  -2.756  0.00  0.00    +0.400 HD
ENDROOT
BRANCH   2   5
ATOM      5  C   LIG    1        2.107   1.507  -1.093  0.00  0.00    +0.140 C 
ATOM      6  C   LIG    1        2.158  -0.022  -1.025  0.00  0.00    +0.220 C 
ATOM      7  O   LIG    1        0.822  -0.538  -1.036  0.00  0.00    -0.340 OA
ATOM      8  C   LIG    1        0.002  -0.004   0.002  0.00  0.00    +0.050 C 
ATOM      9  C   LIG    1       -0.019   1.524   0.010  0.00  0.00    +0.230 C 
ATOM     10  C   LIG    1       -1.393  -0.637   0.071  0.00  0.00    +0.060 C 
ATOM     11  C   LIG    1       -0.784  -1.678   1.026  0.00  0.00    +0.020 C 
ATOM     12  C   LIG    1        0.276  -0.621   1.379  0.00  0.00    +0.000 C 
ATOM     13  O   LIG    1        1.330   2.005   0.000  0.00  0.00    -0.350 OA
ENDBRANCH   2   5
BRANCH   3  14
ATOM     14  C   LIG    1        5.750   2.346  -1.915  0.00  0.00    +0.270 C 
BRANCH  14  15
ATOM     15  C   LIG    1        6.544   1.912  -3.149  0.00  0.00    +0.300 C 
BRANCH  15  16
ATOM     16  N   LIG    1        7.904   2.451  -3.068  0.00  0.00    -0.550 N 
ATOM     17  C   LIG    1        8.178   3.669  -3.605  0.00  0.00    +0.570 A 
ATOM     18  N   LIG    1        9.355   4.217  -3.570  0.00  0.00    -0.520 NA
ATOM     19  C   LIG    1       10.412   3.592  -2.994  0.00  0.00    +0.150 A 
ATOM     20  C   LIG    1       11.679   4.178  -2.960  0.00  0.00    +0.030 A 
ATOM     21  C   LIG    1       12.725   3.508  -2.365  0.00  0.00    +0.070 A 
ATOM     22  C   LIG    1       12.535   2.256  -1.797  0.00  0.00    +0.010 A 
ATOM     23  C   LIG    1       11.294   1.657  -1.817  0.00  0.00    +0.100 A 
ATOM     24  C   LIG    1       10.223   2.318  -2.414  0.00  0.00    -0.200 A 
ATOM     25  C   LIG    1        8.877   1.729  -2.466  0.00  0.00    +0.550 A 
ATOM     26  O   LIG    1        8.646   0.635  -1.985  0.00  0.00    -0.500 OA
ENDBRANCH  15  16
ENDBRANCH  14  15
ENDBRANCH   3  14
TORSDOF 4
