REMARK  Name = ZINCqH0000032qCQ.0
REMARK                            x       y       z     vdW  Elec       q    Type
REMARK                         _______ _______ _______ _____ _____    ______ ____
ROOT
ATOM      1  C   LIG    1        2.485   1.026   0.044  0.00  0.00    +0.240 C 
ENDROOT
BRANCH   1   2
ATOM      2  C   LIG    1        3.478   1.970   0.671  0.00  0.00    +0.520 C 
ATOM      3  N   LIG    1        4.792   1.670   0.660  0.00  0.00    -0.730 N 
ATOM      4  H   LIG    1        5.091   0.812   0.319  0.00  0.00    +0.400 HD
ATOM      5  O   LIG    1        3.096   2.999   1.186  0.00  0.00    -0.530 OA
BRANCH   3   6
ATOM      6  C   LIG    1        5.769   2.638   1.165  0.00  0.00    +0.270 C 
BRANCH   6   7
ATOM      7  C   LIG    1        7.178   2.054   1.040  0.00  0.00    +0.060 C 
BRANCH   7   8
ATOM      8  C   LIG    1        8.182   3.050   1.559  0.00  0.00    -0.120 C 
ATOM      9  C   LIG    1        8.563   2.942   2.792  0.00  0.00    -0.050 C 
ATOM     10  C   LIG    1        9.551   3.861   3.450  0.00  0.00    +0.050 C 
ATOM     11  C   LIG    1       10.330   4.644   2.392  0.00  0.00    +0.010 C 
ATOM     12  C   LIG    1        9.329   5.249   1.400  0.00  0.00    +0.010 C 
ATOM     13  C   LIG    1        8.675   4.109   0.617  0.00  0.00    +0.060 C 
ENDBRANCH   7   8
ENDBRANCH   6   7
ENDBRANCH   3   6
ENDBRANCH   1   2
BRANCH   1  14
ATOM     14  N   LIG    1        1.141   1.331   0.541  0.00  0.00    -0.700 N 
ATOM     15  H   LIG    1        0.934   2.221   0.865  0.00  0.00    +0.410 HD
ATOM     16  C   LIG    1        0.192   0.374   0.548  0.00  0.00    +0.570 C 
ATOM     17  O   LIG    1        0.451  -0.743   0.141  0.00  0.00    -0.510 OA
BRANCH  16  18
ATOM     18  C   LIG    1       -1.163   0.682   1.043  0.00  0.00    -0.200 A 
ATOM     19  C   LIG    1       -2.140   1.163   0.165  0.00  0.00    +0.160 A 
ATOM     20  C   LIG    1       -3.409   1.446   0.637  0.00  0.00    -0.010 A 
ATOM     21  C   LIG    1       -3.710   1.263   1.974  0.00  0.00    +0.110 A 
ATOM     22  C   LIG    1       -2.749   0.792   2.850  0.00  0.00    -0.010 A 
ATOM     23  F   LIG    1       -1.846   1.348  -1.141  0.00  0.00    -0.120 F 
ATOM     24  C   LIG    1       -1.477   0.500   2.394  0.00  0.00    +0.160 A 
ATOM     25  F   LIG    1       -0.539   0.040   3.251  0.00  0.00    -0.120 F 
ENDBRANCH  16  18
ENDBRANCH   1  14
BRANCH   1  27
ATOM     26  C   LIG    1        1.591   0.155  -2.121  0.00  0.00    +0.050 C 
ATOM     27  C   LIG    1        2.515   1.191  -1.477  0.00  0.00    -0.010 C 
ATOM     28  C   LIG    1        2.041   2.598  -1.847  0.00  0.00    +0.030 C 
ENDBRANCH   1  27
TORSDOF 7
