REMARK  Name = ZINCvU00000004TX.0
REMARK                            x       y       z     vdW  Elec       q    Type
REMARK                         _______ _______ _______ _____ _____    ______ ____
ROOT
ATOM      1  C   LIG    1        0.002  -0.004   0.002  0.00  0.00    +0.540 C 
ATOM      2  N   LIG    1        0.124  -0.683   1.160  0.00  0.00    -0.610 N 
ATOM      3  H   LIG    1        0.199  -0.201   1.999  0.00  0.00    +0.430 HD
ATOM      4  O   LIG    1       -0.091  -0.606  -1.047  0.00  0.00    -0.480 OA
ENDROOT
BRANCH   2   5
ATOM      5  C   LIG    1        0.143  -2.072   1.152  0.00  0.00    +0.270 A 
ATOM      6  N   LIG    1        0.255  -2.826   2.201  0.00  0.00    -0.490 NA
ATOM      7  C   LIG    1        0.254  -4.137   2.004  0.00  0.00    +0.120 A 
ATOM      8  C   LIG    1        0.134  -4.526   0.722  0.00  0.00    -0.100 A 
ATOM      9  S   LIG    1        0.010  -3.084  -0.283  0.00  0.00    +0.220 S 
BRANCH   7  10
ATOM     10  C   LIG    1        0.375  -5.107   3.119  0.00  0.00    -0.000 A 
ATOM     11  C   LIG    1        0.362  -6.476   2.859  0.00  0.00    +0.060 A 
ATOM     12  C   LIG    1        0.482  -7.376   3.899  0.00  0.00    +0.030 A 
ATOM     13  C   LIG    1        0.602  -6.921   5.201  0.00  0.00    +0.070 A 
ATOM     14  C   LIG    1        0.610  -5.559   5.467  0.00  0.00    +0.070 A 
ATOM     15  F   LIG    1        0.728  -5.120   6.739  0.00  0.00    -0.130 F 
ATOM     16  F   LIG    1        0.714  -7.806   6.216  0.00  0.00    -0.130 F 
ATOM     17  C   LIG    1        0.497  -4.652   4.431  0.00  0.00    +0.060 A 
ENDBRANCH   7  10
ENDBRANCH   2   5
BRANCH   1  19
ATOM     18  C   LIG    1        1.417   2.032  -0.001  0.00  0.00    +0.100 C 
ATOM     19  C   LIG    1       -0.018   1.503   0.010  0.00  0.00    +0.020 C 
BRANCH  19  20
ATOM     20  S   LIG    1       -0.894   2.102  -1.456  0.00  0.00    +0.160 S 
BRANCH  20  21
ATOM     21  C   LIG    1       -0.901   3.832  -1.122  0.00  0.00    +0.120 A 
ATOM     22  N   LIG    1       -0.391   4.422  -0.066  0.00  0.00    -0.280 NA
ATOM     23  N   LIG    1       -0.574   5.692  -0.154  0.00  0.00    -0.260 NA
ATOM     24  C   LIG    1       -1.216   5.964  -1.264  0.00  0.00    +0.220 A 
ATOM     25  O   LIG    1       -1.437   4.792  -1.900  0.00  0.00    -0.190 OA
BRANCH  24  26
ATOM     26  C   LIG    1       -1.624   7.304  -1.733  0.00  0.00    -0.060 A 
ATOM     27  C   LIG    1       -1.328   8.434  -0.969  0.00  0.00    +0.110 A 
ATOM     28  C   LIG    1       -1.711   9.683  -1.413  0.00  0.00    +0.020 A 
ATOM     29  C   LIG    1       -2.388   9.818  -2.612  0.00  0.00    +0.080 A 
ATOM     30  C   LIG    1       -2.687   8.704  -3.375  0.00  0.00    +0.000 A 
ATOM     31  C   LIG    1       -2.303   7.447  -2.947  0.00  0.00    +0.130 A 
ATOM     32  F   LIG    1       -2.589   6.359  -3.695  0.00  0.00    -0.120 F 
ENDBRANCH  24  26
ENDBRANCH  20  21
ENDBRANCH  19  20
ENDBRANCH   1  19
TORSDOF 6
