REMARK  Name = ZINCtj00001UqOmg.1
REMARK                            x       y       z     vdW  Elec       q    Type
REMARK                         _______ _______ _______ _____ _____    ______ ____
ROOT
ATOM      1  C   LIG    1       -1.996  10.197  -2.736  0.00  0.00    +0.340 A 
ATOM      2  C   LIG    1       -3.330   9.852  -2.924  0.00  0.00    -0.040 A 
ATOM      3  C   LIG    1       -3.974   9.102  -1.956  0.00  0.00    +0.210 A 
ATOM      4  C   LIG    1       -3.259   8.722  -0.828  0.00  0.00    -0.750 A 
ATOM      5  C   LIG    1       -1.938   9.104  -0.704  0.00  0.00    +0.410 A 
ATOM      6  N   LIG    1       -1.348   9.814  -1.646  0.00  0.00    -0.540 NA
ENDROOT
BRANCH   1  13
ATOM      7  C   LIG    1        2.450  13.811  -3.226  0.00  0.00    +0.320 C 
ATOM      8  N   LIG    1        1.240  13.211  -2.647  0.00  0.00    -0.390 N 
ATOM      9  C   LIG    1        0.449  14.253  -1.960  0.00  0.00    +0.270 C 
ATOM     10  C   LIG    1       -1.028  13.874  -2.231  0.00  0.00    +0.080 C 
ATOM     11  C   LIG    1       -0.952  13.351  -3.686  0.00  0.00    +0.020 C 
ATOM     12  C   LIG    1       -1.997  12.249  -3.896  0.00  0.00    +0.250 C 
ATOM     13  N   LIG    1       -1.337  10.950  -3.700  0.00  0.00    -0.460 N 
ATOM     14  C   LIG    1        0.068  11.172  -3.327  0.00  0.00    +0.250 C 
ATOM     15  C   LIG    1        0.417  12.620  -3.721  0.00  0.00    +0.180 C 
ATOM     16  H   LIG    1        1.502  12.494  -1.988  0.00  0.00    +0.430 HD
ENDBRANCH   1  13
BRANCH   4  17
ATOM     17  S   LIG    1       -4.031   7.766   0.435  0.00  0.00    +2.700 S 
ATOM     18  O   LIG    1       -3.295   8.005   1.626  0.00  0.00    -0.950 OA
ATOM     19  O   LIG    1       -5.427   8.006   0.323  0.00  0.00    -0.940 OA
BRANCH  17  20
ATOM     20  N   LIG    1       -3.799   6.171   0.054  0.00  0.00    -1.110 NA
ATOM     21  H   LIG    1       -4.559   5.609  -0.163  0.00  0.00    +0.430 HD
BRANCH  20  22
ATOM     22  C   LIG    1       -2.446   5.610   0.044  0.00  0.00    +0.280 C 
BRANCH  22  23
ATOM     23  C   LIG    1       -2.528   4.082   0.036  0.00  0.00    +0.050 C 
BRANCH  23  24
ATOM     24  C   LIG    1       -1.115   3.495   0.026  0.00  0.00    +0.200 C 
BRANCH  24  25
ATOM     25  O   LIG    1       -1.192   2.068   0.019  0.00  0.00    -0.310 OA
BRANCH  25  26
ATOM     26  C   LIG    1       -0.017   1.388   0.010  0.00  0.00    +0.170 A 
ATOM     27  C   LIG    1        1.200   2.065   0.002  0.00  0.00    -0.130 A 
ATOM     28  C   LIG    1        2.372   1.338  -0.013  0.00  0.00    +0.300 A 
ATOM     29  N   LIG    1        2.349   0.019  -0.020  0.00  0.00    -0.510 NA
ATOM     30  C   LIG    1        1.217  -0.658  -0.013  0.00  0.00    +0.310 A 
ATOM     31  C   LIG    1        0.002  -0.004   0.002  0.00  0.00    -0.060 A 
ENDBRANCH  25  26
ENDBRANCH  24  25
ENDBRANCH  23  24
ENDBRANCH  22  23
ENDBRANCH  20  22
ENDBRANCH  17  20
ENDBRANCH   4  17
TORSDOF 8
