REMARK  Name = ZINCAx0000000bzx.0
REMARK                            x       y       z     vdW  Elec       q    Type
REMARK                         _______ _______ _______ _____ _____    ______ ____
ROOT
ATOM      1  N   LIG    1       -5.560  -1.956   4.759  0.00  0.00    -0.520 NA
ATOM      2  C   LIG    1       -6.502  -1.050   4.087  0.00  0.00    +0.190 C 
ATOM      3  C   LIG    1       -6.080  -0.871   2.626  0.00  0.00    +0.190 C 
ATOM      4  N   LIG    1       -4.712  -0.336   2.576  0.00  0.00    -0.520 NA
ATOM      5  C   LIG    1       -3.770  -1.243   3.248  0.00  0.00    +0.200 C 
ATOM      6  C   LIG    1       -4.192  -1.421   4.708  0.00  0.00    +0.200 C 
ENDROOT
BRANCH   1   7
ATOM      7  C   LIG    1       -5.974  -2.213   6.144  0.00  0.00    +0.220 C 
BRANCH   7   9
ATOM      8  N   LIG    1       -5.341  -3.734   7.989  0.00  0.00    -0.570 N 
ATOM      9  C   LIG    1       -5.137  -3.325   6.721  0.00  0.00    +0.520 C 
ATOM     10  O   LIG    1       -4.279  -3.852   6.044  0.00  0.00    -0.490 OA
BRANCH   8  11
ATOM     11  C   LIG    1       -4.562  -4.768   8.525  0.00  0.00    +0.100 A 
ATOM     12  C   LIG    1       -3.374  -4.476   9.180  0.00  0.00    +0.050 A 
ATOM     13  C   LIG    1       -2.608  -5.497   9.708  0.00  0.00    +0.020 A 
ATOM     14  C   LIG    1       -3.023  -6.810   9.585  0.00  0.00    +0.060 A 
ATOM     15  C   LIG    1       -4.207  -7.106   8.933  0.00  0.00    -0.010 A 
ATOM     16  C   LIG    1       -4.981  -6.089   8.407  0.00  0.00    +0.110 A 
ATOM     17  F   LIG    1       -6.139  -6.378   7.775  0.00  0.00    -0.130 F 
ENDBRANCH   8  11
BRANCH   8  18
ATOM     18  C   LIG    1       -6.377  -3.098   8.806  0.00  0.00    +0.310 C 
BRANCH  18  19
ATOM     19  C   LIG    1       -7.700  -3.844   8.624  0.00  0.00    +0.180 C 
BRANCH  19  21
ATOM     20  N   LIG    1       -9.544  -2.711  10.079  0.00  0.00    -0.420 NA
ATOM     21  C   LIG    1       -8.741  -3.204   9.445  0.00  0.00    +0.200 C 
ENDBRANCH  19  21
ENDBRANCH  18  19
ENDBRANCH   8  18
ENDBRANCH   7   9
ENDBRANCH   1   7
BRANCH   4  22
ATOM     22  C   LIG    1       -4.298  -0.079   1.190  0.00  0.00    +0.220 C 
BRANCH  22  23
ATOM     23  C   LIG    1       -3.002   0.690   1.188  0.00  0.00    +0.520 C 
ATOM     24  N   LIG    1       -2.428   1.039   0.020  0.00  0.00    -0.570 N 
ATOM     25  O   LIG    1       -2.475   0.994   2.237  0.00  0.00    -0.490 OA
BRANCH  24  26
ATOM     26  C   LIG    1       -1.223   1.754   0.017  0.00  0.00    +0.100 A 
ATOM     27  C   LIG    1       -0.013   1.076   0.008  0.00  0.00    +0.060 A 
ATOM     28  C   LIG    1        1.174   1.783   0.000  0.00  0.00    +0.020 A 
ATOM     29  C   LIG    1        1.158   3.166   0.008  0.00  0.00    +0.060 A 
ATOM     30  C   LIG    1       -0.046   3.846   0.023  0.00  0.00    -0.010 A 
ATOM     31  C   LIG    1       -1.238   3.144   0.030  0.00  0.00    +0.110 A 
ATOM     32  F   LIG    1       -2.414   3.809   0.045  0.00  0.00    -0.130 F 
ENDBRANCH  24  26
BRANCH  24  33
ATOM     33  C   LIG    1       -3.064   0.672  -1.248  0.00  0.00    +0.310 C 
BRANCH  33  34
ATOM     34  C   LIG    1       -2.550  -0.697  -1.699  0.00  0.00    +0.180 C 
BRANCH  34  35
ATOM     35  C   LIG    1       -3.189  -1.066  -2.973  0.00  0.00    +0.200 C 
ATOM     36  N   LIG    1       -3.682  -1.350  -3.955  0.00  0.00    -0.420 NA
ENDBRANCH  34  35
ENDBRANCH  33  34
ENDBRANCH  24  33
ENDBRANCH  22  23
ENDBRANCH   4  22
TORSDOF 12
