REMARK  Name = ZINCpk00000KfLy9.0
REMARK                            x       y       z     vdW  Elec       q    Type
REMARK                         _______ _______ _______ _____ _____    ______ ____
ROOT
ATOM      1  C   LIG    1        4.729   1.634  -0.033  0.00  0.00    +0.240 C 
ATOM      2  C   LIG    1        5.150   1.296   1.399  0.00  0.00    +0.010 C 
ATOM      3  C   LIG    1        6.523   0.617   1.376  0.00  0.00    +0.280 C 
ATOM      4  N   LIG    1        7.467   1.484   0.658  0.00  0.00    -0.620 N 
ATOM      5  C   LIG    1        7.118   1.942  -0.693  0.00  0.00    +0.290 C 
ATOM      6  C   LIG    1        8.632   1.851   1.228  0.00  0.00    +0.520 C 
ATOM      7  O   LIG    1        9.403   2.567   0.625  0.00  0.00    -0.530 OA
ATOM      8  C   LIG    1        5.739   2.606  -0.648  0.00  0.00    +0.030 C 
ENDROOT
BRANCH   1   9
ATOM      9  N   LIG    1        3.401   2.254  -0.018  0.00  0.00    -0.710 N 
ATOM     10  H   LIG    1        3.317   3.220  -0.012  0.00  0.00    +0.410 HD
BRANCH   9  15
ATOM     11  C   LIG    1       -1.293  -0.775   0.010  0.00  0.00    +0.150 C 
ATOM     12  C   LIG    1        0.002  -0.004   0.002  0.00  0.00    +0.010 A 
ATOM     13  C   LIG    1        1.213  -0.682  -0.013  0.00  0.00    +0.070 A 
ATOM     14  C   LIG    1        2.379   0.067  -0.020  0.00  0.00    -0.030 A 
ATOM     15  C   LIG    1        2.262   1.457  -0.012  0.00  0.00    +0.340 A 
ATOM     16  N   LIG    1        1.060   2.014   0.003  0.00  0.00    -0.300 NA
ATOM     17  N   LIG    1       -0.016   1.314   0.009  0.00  0.00    -0.200 NA
ENDBRANCH   9  15
ENDBRANCH   1   9
BRANCH   6  18
ATOM     18  C   LIG    1        8.976   1.373   2.615  0.00  0.00    +0.040 C 
BRANCH  18  19
ATOM     19  C   LIG    1       10.341   1.930   3.023  0.00  0.00    +0.310 C 
BRANCH  19  20
ATOM     20  N   LIG    1       10.676   1.465   4.372  0.00  0.00    -0.700 N 
ATOM     21  H   LIG    1       10.059   0.892   4.854  0.00  0.00    +0.410 HD
BRANCH  20  22
ATOM     22  C   LIG    1       11.871   1.843   4.957  0.00  0.00    +0.560 A 
ATOM     23  N   LIG    1       12.705   2.621   4.282  0.00  0.00    -0.570 NA
ATOM     24  C   LIG    1       13.853   3.005   4.815  0.00  0.00    +0.360 A 
ATOM     25  C   LIG    1       14.184   2.574   6.090  0.00  0.00    -0.140 A 
ATOM     26  C   LIG    1       13.292   1.756   6.766  0.00  0.00    +0.360 A 
ATOM     27  N   LIG    1       12.158   1.413   6.177  0.00  0.00    -0.570 NA
ENDBRANCH  20  22
ENDBRANCH  19  20
ENDBRANCH  18  19
ENDBRANCH   6  18
TORSDOF 6
