REMARK  Name = ZINCqH0000032sKp.0
REMARK                            x       y       z     vdW  Elec       q    Type
REMARK                         _______ _______ _______ _____ _____    ______ ____
ROOT
ATOM      1  C   LIG    1        3.222   4.779   0.855  0.00  0.00    +0.570 C 
ATOM      2  N   LIG    1        2.274   5.512   1.472  0.00  0.00    -0.660 N 
ATOM      3  H   LIG    1        1.394   5.134   1.628  0.00  0.00    +0.410 HD
ATOM      4  O   LIG    1        4.348   5.221   0.733  0.00  0.00    -0.500 OA
ENDROOT
BRANCH   2   5
ATOM      5  C   LIG    1        2.558   6.818   1.887  0.00  0.00    +0.150 A 
ATOM      6  C   LIG    1        1.574   7.798   1.820  0.00  0.00    +0.010 A 
ATOM      7  C   LIG    1        1.849   9.087   2.228  0.00  0.00    +0.060 A 
ATOM      8  C   LIG    1        3.110   9.408   2.708  0.00  0.00    +0.080 A 
ATOM      9  N   LIG    1        3.680  10.589   3.183  0.00  0.00    -0.640 N 
ATOM     10  H   LIG    1        3.232  11.446   3.255  0.00  0.00    +0.440 HD
ATOM     11  C   LIG    1        4.957  10.335   3.524  0.00  0.00    +0.690 A 
ATOM     12  N   LIG    1        5.240   9.040   3.291  0.00  0.00    -0.640 N 
ATOM     13  H   LIG    1        6.093   8.607   3.454  0.00  0.00    +0.440 HD
ATOM     14  O   LIG    1        5.737  11.153   3.975  0.00  0.00    -0.550 OA
ATOM     15  C   LIG    1        4.101   8.426   2.777  0.00  0.00    +0.110 A 
ATOM     16  C   LIG    1        3.821   7.131   2.371  0.00  0.00    +0.050 A 
ENDBRANCH   2   5
BRANCH   1  25
ATOM     17  C   LIG    1        1.375   1.595   0.045  0.00  0.00    +0.160 A 
ATOM     18  N   LIG    1        2.258   0.922  -0.650  0.00  0.00    -0.450 NA
ATOM     19  C   LIG    1        3.470   1.417  -0.916  0.00  0.00    +0.130 A 
ATOM     20  C   LIG    1        4.403   0.681  -1.669  0.00  0.00    +0.040 A 
ATOM     21  C   LIG    1        5.633   1.206  -1.921  0.00  0.00    +0.040 A 
ATOM     22  C   LIG    1        5.987   2.466  -1.443  0.00  0.00    +0.020 A 
ATOM     23  C   LIG    1        5.109   3.208  -0.711  0.00  0.00    +0.060 A 
ATOM     24  C   LIG    1        3.835   2.698  -0.432  0.00  0.00    -0.070 A 
ATOM     25  C   LIG    1        2.893   3.438   0.327  0.00  0.00    -0.080 A 
ATOM     26  C   LIG    1        1.651   2.861   0.558  0.00  0.00    +0.010 A 
BRANCH  17  28
ATOM     27  C   LIG    1       -0.970   1.472  -0.751  0.00  0.00    +0.050 C 
ATOM     28  C   LIG    1        0.023   0.980   0.303  0.00  0.00    +0.050 C 
ATOM     29  C   LIG    1       -0.466   1.387   1.694  0.00  0.00    +0.040 C 
ENDBRANCH  17  28
ENDBRANCH   1  25
TORSDOF 3
