REMARK  Name = ZINCrH000004tXhP.0
REMARK                            x       y       z     vdW  Elec       q    Type
REMARK                         _______ _______ _______ _____ _____    ______ ____
ROOT
ATOM      1  C   LIG    1       -0.187   1.212   4.911  0.00  0.00    -0.010 C 
ENDROOT
BRANCH   1   2
ATOM      2  C   LIG    1       -0.927   1.718   3.671  0.00  0.00    +0.270 C 
BRANCH   2   5
ATOM      3  O   LIG    1       -1.714   2.256   1.150  0.00  0.00    -0.530 OA
ATOM      4  C   LIG    1       -0.718   1.572   1.248  0.00  0.00    +0.520 C 
ATOM      5  N   LIG    1       -0.242   1.246   2.466  0.00  0.00    -0.720 N 
ATOM      6  H   LIG    1        0.555   0.699   2.544  0.00  0.00    +0.410 HD
BRANCH   4   7
ATOM      7  C   LIG    1       -0.013   1.086   0.008  0.00  0.00    +0.110 C 
BRANCH   7   8
ATOM      8  C   LIG    1       -0.742   1.585  -1.213  0.00  0.00    -0.060 A 
ATOM      9  C   LIG    1       -0.270   2.690  -1.896  0.00  0.00    +0.030 A 
ATOM     10  C   LIG    1       -0.939   3.148  -3.016  0.00  0.00    +0.020 A 
ATOM     11  C   LIG    1       -2.079   2.502  -3.453  0.00  0.00    +0.020 A 
ATOM     12  C   LIG    1       -2.552   1.397  -2.771  0.00  0.00    +0.020 A 
ATOM     13  C   LIG    1       -1.880   0.934  -1.654  0.00  0.00    -0.020 A 
ATOM     14 CL   LIG    1       -2.469  -0.459  -0.801  0.00  0.00    -0.070 Cl
ENDBRANCH   7   8
ENDBRANCH   4   7
ENDBRANCH   2   5
ENDBRANCH   1   2
BRANCH   1  15
ATOM     15  C   LIG    1       -0.829   1.806   6.166  0.00  0.00    +0.100 C 
BRANCH  15  16
ATOM     16  C   LIG    1       -0.026   1.406   7.377  0.00  0.00    -0.050 A 
ATOM     17  C   LIG    1        1.015   2.206   7.811  0.00  0.00    +0.000 A 
ATOM     18  C   LIG    1        1.752   1.842   8.923  0.00  0.00    +0.070 A 
ATOM     19  C   LIG    1        1.450   0.679   9.603  0.00  0.00    -0.060 A 
ATOM     20  C   LIG    1        0.406  -0.126   9.169  0.00  0.00    +0.110 A 
ATOM     21  C   LIG    1       -0.335   0.244   8.057  0.00  0.00    +0.020 A 
BRANCH  20  22
ATOM     22  O   LIG    1        0.107  -1.271   9.837  0.00  0.00    -0.310 OA
BRANCH  22  23
ATOM     23  C   LIG    1        0.909  -1.586  10.977  0.00  0.00    +0.600 C 
ATOM     24  F   LIG    1        2.245  -1.717  10.586  0.00  0.00    -0.160 F 
ATOM     25  F   LIG    1        0.467  -2.788  11.541  0.00  0.00    -0.130 F 
ATOM     26  F   LIG    1        0.799  -0.560  11.922  0.00  0.00    -0.160 F 
ENDBRANCH  22  23
ENDBRANCH  20  22
ENDBRANCH  15  16
ENDBRANCH   1  15
BRANCH   1  27
ATOM     27  C   LIG    1       -0.274  -0.315   4.968  0.00  0.00    +0.180 C 
BRANCH  27  28
ATOM     28  O   LIG    1        0.426  -0.874   3.854  0.00  0.00    -0.570 OA
ATOM     29  H   LIG    1        0.413  -1.840   3.826  0.00  0.00    +0.380 HD
ENDBRANCH  27  28
ENDBRANCH   1  27
TORSDOF 10
