REMARK  Name = ZINCrD0000071QwI.0
REMARK                            x       y       z     vdW  Elec       q    Type
REMARK                         _______ _______ _______ _____ _____    ______ ____
ROOT
ATOM      1  C   LIG    1        1.146   1.654  -0.026  0.00  0.00    +0.580 C 
ATOM      2  N   LIG    1       -0.012   0.964  -0.049  0.00  0.00    -0.710 N 
ATOM      3  H   LIG    1        0.002  -0.006  -0.068  0.00  0.00    +0.400 HD
ATOM      4  O   LIG    1        1.128   2.869  -0.004  0.00  0.00    -0.550 OA
ENDROOT
BRANCH   1  11
ATOM      5  C   LIG    1        3.639   1.647  -0.124  0.00  0.00    +0.280 A 
ATOM      6  C   LIG    1        4.845   0.959  -0.125  0.00  0.00    -0.060 A 
ATOM      7  C   LIG    1        4.856  -0.418  -0.034  0.00  0.00    +0.110 A 
ATOM      8  C   LIG    1        3.667  -1.125   0.060  0.00  0.00    -0.110 A 
ATOM      9  C   LIG    1        2.460  -0.458   0.069  0.00  0.00    +0.110 A 
ATOM     10 CL   LIG    1        3.698  -2.857   0.175  0.00  0.00    -0.070 Cl
ATOM     11  C   LIG    1        2.433   0.935  -0.029  0.00  0.00    -0.220 A 
BRANCH   5  12
ATOM     12  N   LIG    1        3.626   3.033  -0.216  0.00  0.00    -0.720 N 
ATOM     13  H   LIG    1        2.789   3.517  -0.134  0.00  0.00    +0.420 HD
BRANCH  12  15
ATOM     14  C   LIG    1        4.585   5.265  -0.500  0.00  0.00    +0.040 C 
ATOM     15  C   LIG    1        4.876   3.764  -0.438  0.00  0.00    +0.230 C 
ENDBRANCH  12  15
ENDBRANCH   5  12
ENDBRANCH   1  11
BRANCH   2  16
ATOM     16  C   LIG    1       -1.291   1.678  -0.053  0.00  0.00    +0.230 C 
ATOM     17  C   LIG    1       -1.655   2.063  -1.488  0.00  0.00    +0.040 C 
BRANCH  16  18
ATOM     18  C   LIG    1       -2.381   0.774   0.525  0.00  0.00    +0.330 C 
BRANCH  18  19
ATOM     19  N   LIG    1       -1.976   0.308   1.854  0.00  0.00    -0.430 N 
ATOM     20  N   LIG    1       -1.251  -0.879   1.965  0.00  0.00    -0.240 NA
ATOM     21  C   LIG    1       -0.856  -1.355   3.108  0.00  0.00    +0.320 A 
ATOM     22  C   LIG    1       -1.170  -0.642   4.346  0.00  0.00    -0.070 A 
ATOM     23  C   LIG    1       -0.765  -1.119   5.594  0.00  0.00    +0.050 A 
ATOM     24  C   LIG    1       -1.085  -0.410   6.730  0.00  0.00    +0.050 A 
ATOM     25  C   LIG    1       -1.806   0.774   6.648  0.00  0.00    +0.030 A 
ATOM     26  C   LIG    1       -2.216   1.265   5.428  0.00  0.00    +0.080 A 
ATOM     27  C   LIG    1       -1.904   0.564   4.265  0.00  0.00    -0.120 A 
ATOM     28  C   LIG    1       -2.309   1.041   2.937  0.00  0.00    +0.530 A 
ATOM     29  O   LIG    1       -2.939   2.077   2.815  0.00  0.00    -0.520 OA
ENDBRANCH  18  19
ENDBRANCH  16  18
ENDBRANCH   2  16
TORSDOF 6
