REMARK  Name = ZINCrD000000CEvg.0
REMARK                            x       y       z     vdW  Elec       q    Type
REMARK                         _______ _______ _______ _____ _____    ______ ____
ROOT
ATOM      1  C   LIG    1       -5.707  -0.925   3.015  0.00  0.00    -0.090 A 
ATOM      2  C   LIG    1       -6.218  -1.602   1.907  0.00  0.00    +0.020 A 
ATOM      3  C   LIG    1       -5.762  -1.294   0.641  0.00  0.00    +0.050 A 
ATOM      4  C   LIG    1       -4.804  -0.313   0.466  0.00  0.00    -0.060 A 
ATOM      5  C   LIG    1       -4.286   0.362   1.563  0.00  0.00    +0.130 A 
ATOM      6  C   LIG    1       -4.736   0.062   2.837  0.00  0.00    +0.010 A 
ENDROOT
BRANCH   1   8
ATOM      7  O   LIG    1       -7.386  -1.284   4.600  0.00  0.00    -0.530 OA
ATOM      8  C   LIG    1       -6.192  -1.252   4.373  0.00  0.00    +0.560 C 
ATOM      9  N   LIG    1       -5.311  -1.514   5.359  0.00  0.00    -0.610 N 
ATOM     10  C   LIG    1       -3.866  -1.404   5.119  0.00  0.00    +0.280 C 
ATOM     11  C   LIG    1       -3.193  -2.715   5.521  0.00  0.00    +0.040 C 
ATOM     12  C   LIG    1       -3.572  -3.058   6.963  0.00  0.00    +0.260 C 
ATOM     13  O   LIG    1       -2.917  -4.270   7.358  0.00  0.00    -0.380 OA
ATOM     14  C   LIG    1       -2.090  -3.958   8.497  0.00  0.00    +0.200 C 
ATOM     15  C   LIG    1       -2.731  -2.660   9.050  0.00  0.00    +0.200 C 
ATOM     16  C   LIG    1       -5.088  -3.233   7.076  0.00  0.00    +0.020 C 
ATOM     17  O   LIG    1       -3.148  -1.996   7.833  0.00  0.00    -0.370 OA
ATOM     18  C   LIG    1       -5.779  -1.921   6.691  0.00  0.00    +0.300 C 
ENDBRANCH   1   8
BRANCH   5  19
ATOM     19  O   LIG    1       -3.340   1.322   1.385  0.00  0.00    -0.310 OA
BRANCH  19  20
ATOM     20  C   LIG    1       -2.922   1.580   0.044  0.00  0.00    +0.260 C 
BRANCH  20  21
ATOM     21  C   LIG    1       -1.878   2.667   0.043  0.00  0.00    -0.110 A 
ATOM     22  C   LIG    1       -0.539   2.338   0.152  0.00  0.00    +0.080 A 
ATOM     23  C   LIG    1        0.420   3.333   0.146  0.00  0.00    -0.020 A 
ATOM     24  C   LIG    1        0.040   4.660   0.037  0.00  0.00    +0.110 A 
ATOM     25  C   LIG    1       -1.301   4.988  -0.066  0.00  0.00    -0.020 A 
ATOM     26  F   LIG    1        0.977   5.633   0.032  0.00  0.00    -0.140 F 
ATOM     27  C   LIG    1       -2.259   3.991  -0.060  0.00  0.00    +0.080 A 
ENDBRANCH  20  21
ENDBRANCH  19  20
ENDBRANCH   5  19
TORSDOF 4
