REMARK  Name = ZINCrg00001JduXb.0
REMARK                            x       y       z     vdW  Elec       q    Type
REMARK                         _______ _______ _______ _____ _____    ______ ____
ROOT
ATOM      1  N   LIG    1       -0.020   1.094   2.454  0.00  0.00    -0.720 N 
ATOM      2  H   LIG    1        0.639   1.657   2.889  0.00  0.00    +0.410 HD
ATOM      3  C   LIG    1       -0.285  -0.134   2.941  0.00  0.00    +0.580 C 
ATOM      4  O   LIG    1       -1.111  -0.840   2.396  0.00  0.00    -0.530 OA
ENDROOT
BRANCH   3   5
ATOM      5  C   LIG    1        0.429  -0.623   4.136  0.00  0.00    -0.200 A 
ATOM      6  C   LIG    1        1.383   0.176   4.766  0.00  0.00    +0.330 A 
ATOM      7  N   LIG    1        2.021  -0.249   5.838  0.00  0.00    -0.500 NA
ATOM      8  C   LIG    1        1.793  -1.445   6.353  0.00  0.00    +0.400 A 
ATOM      9  N   LIG    1        2.477  -1.874   7.486  0.00  0.00    -0.730 N 
ATOM     10  H   LIG    1        3.375  -1.561   7.675  0.00  0.00    +0.420 HD
ATOM     11  C   LIG    1        1.798  -2.815   8.388  0.00  0.00    +0.350 C 
ATOM     12  C   LIG    1        1.092  -3.864   7.568  0.00  0.00    +0.510 C 
ATOM     13  N   LIG    1        0.636  -3.575   6.333  0.00  0.00    -0.650 N 
ATOM     14  H   LIG    1        0.154  -4.248   5.828  0.00  0.00    +0.420 HD
ATOM     15  O   LIG    1        0.931  -4.976   8.023  0.00  0.00    -0.510 OA
ATOM     16  C   LIG    1        0.855  -2.311   5.774  0.00  0.00    +0.050 A 
ATOM     17  C   LIG    1        0.160  -1.902   4.652  0.00  0.00    +0.140 A 
ENDBRANCH   3   5
BRANCH   1  18
ATOM     18  C   LIG    1       -0.729   1.579   1.267  0.00  0.00    +0.350 C 
ATOM     19  C   LIG    1       -0.013   1.086   0.008  0.00  0.00    +0.060 C 
BRANCH  18  25
ATOM     20  C   LIG    1       -2.242   6.366   0.912  0.00  0.00    +0.270 C 
ATOM     21  C   LIG    1       -3.509   5.920   0.170  0.00  0.00    +0.060 C 
ATOM     22  C   LIG    1       -4.098   4.691   0.870  0.00  0.00    +0.060 C 
ATOM     23  C   LIG    1       -3.175   3.486   0.657  0.00  0.00    +0.290 C 
ATOM     24  N   LIG    1       -1.808   3.874   1.004  0.00  0.00    -0.460 N 
ATOM     25  C   LIG    1       -0.749   3.086   1.275  0.00  0.00    +0.170 A 
ATOM     26  N   LIG    1        0.259   3.876   1.542  0.00  0.00    -0.280 NA
ATOM     27  N   LIG    1       -0.116   5.106   1.454  0.00  0.00    -0.270 NA
ATOM     28  C   LIG    1       -1.373   5.153   1.130  0.00  0.00    +0.160 A 
BRANCH  20  30
ATOM     29  C   LIG    1       -0.772   8.260   0.899  0.00  0.00    +0.210 C 
ATOM     30  O   LIG    1       -1.537   7.331   0.128  0.00  0.00    -0.360 OA
ENDBRANCH  20  30
ENDBRANCH  18  25
ENDBRANCH   1  18
TORSDOF 4
