REMARK  Name = ZINCrg00000ZvfeJ.0
REMARK                            x       y       z     vdW  Elec       q    Type
REMARK                         _______ _______ _______ _____ _____    ______ ____
ROOT
ATOM      1  N   LIG    1        1.803  -2.416   1.358  0.00  0.00    -0.550 NA
ATOM      2  C   LIG    1        2.891  -1.715   2.045  0.00  0.00    +0.240 C 
ATOM      3  C   LIG    1        2.759  -1.905   3.559  0.00  0.00    -0.320 C 
ATOM      4  S   LIG    1        2.922  -3.675   3.940  0.00  0.00    +2.410 S 
ATOM      5  C   LIG    1        1.690  -4.390   2.811  0.00  0.00    -0.300 C 
ATOM      6  O   LIG    1        4.214  -4.113   3.541  0.00  0.00    -0.940 OA
ATOM      7  O   LIG    1        2.495  -3.895   5.278  0.00  0.00    -0.940 OA
ATOM      8  C   LIG    1        1.963  -3.871   1.395  0.00  0.00    +0.270 C 
ENDROOT
BRANCH   8   9
ATOM      9  C   LIG    1        0.992  -4.506   0.433  0.00  0.00    -0.250 A 
ATOM     10  C   LIG    1        1.248  -5.561  -0.375  0.00  0.00    +0.250 A 
ATOM     11  N   LIG    1        0.125  -5.823  -1.077  0.00  0.00    -0.370 N 
ATOM     12  N   LIG    1       -0.853  -4.899  -0.686  0.00  0.00    -0.290 NA
ATOM     13  C   LIG    1       -0.042  -6.886  -2.071  0.00  0.00    +0.360 C 
ATOM     14  C   LIG    1       -0.334  -4.114   0.223  0.00  0.00    +0.260 A 
ENDBRANCH   8   9
BRANCH   1  15
ATOM     15  C   LIG    1        1.658  -1.937  -0.023  0.00  0.00    +0.330 C 
BRANCH  15  19
ATOM     16  C   LIG    1        1.199   1.700  -0.000  0.00  0.00    +0.110 A 
ATOM     17  N   LIG    1       -0.014   1.205   0.009  0.00  0.00    -0.370 NA
ATOM     18  O   LIG    1        0.002  -0.004   0.002  0.00  0.00    +0.110 OA
ATOM     19  C   LIG    1        1.253  -0.486  -0.013  0.00  0.00    -0.020 A 
ATOM     20  C   LIG    1        2.081   0.583  -0.015  0.00  0.00    -0.050 A 
BRANCH  16  23
ATOM     21  C   LIG    1       -0.788   4.121   0.018  0.00  0.00    +0.160 C 
ATOM     22  C   LIG    1        0.717   4.195   0.011  0.00  0.00    +0.130 A 
ATOM     23  C   LIG    1        1.577   3.135   0.003  0.00  0.00    -0.190 A 
ATOM     24  C   LIG    1        2.887   3.651  -0.008  0.00  0.00    +0.270 A 
ATOM     25  N   LIG    1        2.810   4.955  -0.000  0.00  0.00    -0.290 NA
ATOM     26  N   LIG    1        1.458   5.321   0.015  0.00  0.00    -0.370 N 
ATOM     27  C   LIG    1        0.939   6.690   0.027  0.00  0.00    +0.360 C 
ENDBRANCH  16  23
ENDBRANCH  15  19
ENDBRANCH   1  15
TORSDOF 4
