REMARK  Name = ZINCrH000004qaKU.0
REMARK                            x       y       z     vdW  Elec       q    Type
REMARK                         _______ _______ _______ _____ _____    ______ ____
ROOT
ATOM      1  N   LIG    1       -3.058  -2.416   1.751  0.00  0.00    -1.060 N 
ATOM      2  H   LIG    1       -2.460  -3.175   1.667  0.00  0.00    +0.430 HD
ENDROOT
BRANCH   1   3
ATOM      3  C   LIG    1       -4.364  -2.603   2.217  0.00  0.00    +0.160 A 
ATOM      4  C   LIG    1       -5.426  -1.983   1.571  0.00  0.00    +0.030 A 
ATOM      5  C   LIG    1       -6.720  -2.169   2.025  0.00  0.00    +0.070 A 
ATOM      6  C   LIG    1       -6.957  -2.970   3.128  0.00  0.00    +0.070 A 
ATOM      7  O   LIG    1       -8.225  -3.162   3.584  0.00  0.00    -0.300 OA
ATOM      8  C   LIG    1       -8.512  -4.436   4.166  0.00  0.00    +0.230 C 
ATOM      9  C   LIG    1       -7.414  -4.812   5.129  0.00  0.00    +0.500 C 
ATOM     10  N   LIG    1       -6.150  -4.395   4.899  0.00  0.00    -0.660 N 
ATOM     11  H   LIG    1       -5.431  -4.650   5.498  0.00  0.00    +0.420 HD
ATOM     12  O   LIG    1       -7.665  -5.486   6.106  0.00  0.00    -0.500 OA
ATOM     13  C   LIG    1       -8.603  -5.492   3.062  0.00  0.00    +0.060 C 
ATOM     14  C   LIG    1       -5.892  -3.588   3.782  0.00  0.00    +0.110 A 
ATOM     15  C   LIG    1       -4.598  -3.403   3.328  0.00  0.00    +0.010 A 
ENDBRANCH   1   3
BRANCH   1  16
ATOM     16  S   LIG    1       -2.533  -0.900   1.343  0.00  0.00    +2.690 S 
ATOM     17  O   LIG    1       -3.534  -0.340   0.504  0.00  0.00    -0.940 OA
ATOM     18  O   LIG    1       -1.175  -1.038   0.947  0.00  0.00    -0.950 OA
BRANCH  16  23
ATOM     19  C   LIG    1       -2.506   2.399   6.395  0.00  0.00    +0.110 C 
ATOM     20  C   LIG    1       -2.512   1.575   5.134  0.00  0.00    -0.020 A 
ATOM     21  C   LIG    1       -3.571   1.673   4.250  0.00  0.00    -0.110 A 
ATOM     22  C   LIG    1       -3.577   0.918   3.092  0.00  0.00    +0.030 A 
ATOM     23  C   LIG    1       -2.525   0.064   2.819  0.00  0.00    -0.680 A 
ATOM     24  C   LIG    1       -1.469  -0.039   3.705  0.00  0.00    +0.020 A 
ATOM     25  C   LIG    1       -0.325  -0.974   3.410  0.00  0.00    +0.110 C 
ATOM     26  C   LIG    1       -4.731   1.025   2.129  0.00  0.00    +0.110 C 
ATOM     27  C   LIG    1       -4.718   2.604   4.548  0.00  0.00    +0.100 C 
ATOM     28  C   LIG    1       -1.461   0.721   4.860  0.00  0.00    -0.120 A 
ATOM     29  C   LIG    1       -0.307   0.614   5.824  0.00  0.00    +0.090 C 
ENDBRANCH  16  23
ENDBRANCH   1  16
TORSDOF 3
