REMARK  Name = ZINCpk00000y6yZW.0
REMARK                            x       y       z     vdW  Elec       q    Type
REMARK                         _______ _______ _______ _____ _____    ______ ____
ROOT
ATOM      1  C   LIG    1       -1.296   2.438  -4.709  0.00  0.00    +0.260 C 
ATOM      2  C   LIG    1       -1.194   3.955  -4.976  0.00  0.00    +0.020 C 
ATOM      3  C   LIG    1       -2.107   4.153  -6.214  0.00  0.00    +0.030 C 
ATOM      4  C   LIG    1       -3.234   3.126  -5.941  0.00  0.00    +0.190 C 
ATOM      5  N   LIG    1       -2.549   1.968  -5.327  0.00  0.00    -0.500 NA
ENDROOT
BRANCH   1   8
ATOM      6  C   LIG    1        0.995   1.241  -2.993  0.00  0.00    +0.330 C 
ATOM      7  N   LIG    1       -0.318   1.657  -2.493  0.00  0.00    -0.440 N 
ATOM      8  C   LIG    1       -1.329   2.180  -3.224  0.00  0.00    +0.190 A 
ATOM      9  N   LIG    1       -2.339   2.425  -2.431  0.00  0.00    -0.470 NA
ATOM     10  C   LIG    1       -2.013   2.072  -1.185  0.00  0.00    +0.000 A 
ATOM     11  C   LIG    1       -2.860   2.168   0.060  0.00  0.00    +0.120 C 
ATOM     12  C   LIG    1       -2.236   1.275   1.140  0.00  0.00    +0.010 C 
ATOM     13  C   LIG    1       -0.741   1.586   1.262  0.00  0.00    +0.030 C 
ATOM     14  C   LIG    1       -0.013   1.086   0.008  0.00  0.00    +0.110 C 
ATOM     15  C   LIG    1       -0.751   1.590  -1.204  0.00  0.00    -0.030 A 
ENDBRANCH   1   8
BRANCH   5  16
ATOM     16  C   LIG    1       -3.411   1.310  -4.337  0.00  0.00    +0.180 C 
BRANCH  16  17
ATOM     17  C   LIG    1       -4.575   0.621  -5.051  0.00  0.00    +0.200 C 
BRANCH  17  18
ATOM     18  O   LIG    1       -5.334   1.594  -5.772  0.00  0.00    -0.550 OA
ATOM     19  H   LIG    1       -5.712   2.289  -5.216  0.00  0.00    +0.370 HD
ENDBRANCH  17  18
BRANCH  17  20
ATOM     20  C   LIG    1       -5.473  -0.064  -4.019  0.00  0.00    +0.270 C 
BRANCH  20  21
ATOM     21  N   LIG    1       -6.519  -0.822  -4.709  0.00  0.00    -0.620 N 
ATOM     22  C   LIG    1       -6.391  -2.225  -5.119  0.00  0.00    +0.250 C 
ATOM     23  C   LIG    1       -7.510  -2.455  -6.159  0.00  0.00    +0.040 C 
ATOM     24  C   LIG    1       -8.543  -1.378  -5.753  0.00  0.00    +0.040 C 
ATOM     25  C   LIG    1       -7.723  -0.324  -5.042  0.00  0.00    +0.520 C 
ATOM     26  O   LIG    1       -8.095   0.806  -4.809  0.00  0.00    -0.530 OA
ENDBRANCH  20  21
ENDBRANCH  17  20
ENDBRANCH  16  17
ENDBRANCH   5  16
TORSDOF 6
