REMARK  Name = ZINCqH0000007XUK.0
REMARK                            x       y       z     vdW  Elec       q    Type
REMARK                         _______ _______ _______ _____ _____    ______ ____
ROOT
ATOM      1  C   LIG    1       -3.614   3.139  -0.048  0.00  0.00    +0.600 C 
ATOM      2  N   LIG    1       -2.456   3.823   0.046  0.00  0.00    -0.670 N 
ATOM      3  H   LIG    1       -2.469   4.789   0.130  0.00  0.00    +0.410 HD
ATOM      4  O   LIG    1       -3.603   1.922  -0.056  0.00  0.00    -0.500 OA
ENDROOT
BRANCH   2   5
ATOM      5  C   LIG    1       -1.236   3.139   0.025  0.00  0.00    +0.150 A 
ATOM      6  C   LIG    1       -1.099   1.985  -0.736  0.00  0.00    +0.080 A 
ATOM      7  C   LIG    1        0.105   1.308  -0.751  0.00  0.00    +0.060 A 
ATOM      8  C   LIG    1        1.177   1.784  -0.017  0.00  0.00    -0.010 A 
ATOM      9  C   LIG    1        1.044   2.937   0.738  0.00  0.00    -0.160 A 
ATOM     10 CL   LIG    1        2.691   0.935  -0.043  0.00  0.00    -0.040 Cl
ATOM     11  C   LIG    1       -0.159   3.614   0.761  0.00  0.00    +0.060 A 
BRANCH   9  12
ATOM     12  C   LIG    1        2.214   3.452   1.536  0.00  0.00    +0.510 C 
ATOM     13  F   LIG    1        3.279   3.734   0.674  0.00  0.00    -0.170 F 
ATOM     14  F   LIG    1        2.609   2.483   2.464  0.00  0.00    -0.170 F 
ATOM     15  F   LIG    1        1.840   4.619   2.211  0.00  0.00    -0.170 F 
ENDBRANCH   9  12
ENDBRANCH   2   5
BRANCH   1  19
ATOM     16  C   LIG    1       -6.764   5.481  -0.277  0.00  0.00    -0.180 A 
ATOM     17  C   LIG    1       -7.144   4.198  -0.316  0.00  0.00    +0.000 A 
ATOM     18  C   LIG    1       -6.120   3.284  -0.242  0.00  0.00    +0.130 A 
ATOM     19  C   LIG    1       -4.886   3.862  -0.142  0.00  0.00    -0.280 A 
ATOM     20  S   LIG    1       -5.068   5.611  -0.137  0.00  0.00    +0.210 S 
BRANCH  16  21
ATOM     21  C   LIG    1       -7.707   6.654  -0.342  0.00  0.00    +0.130 C 
BRANCH  21  22
ATOM     22  C   LIG    1       -8.138   7.041   1.074  0.00  0.00    +0.280 C 
BRANCH  22  23
ATOM     23  N   LIG    1       -9.056   8.181   1.011  0.00  0.00    -1.120 NA
ATOM     24  H   LIG    1       -9.128   8.701   0.195  0.00  0.00    +0.420 HD
BRANCH  23  26
ATOM     25  C   LIG    1       -8.757   9.092   3.583  0.00  0.00    -0.280 C 
ATOM     26  S   LIG    1       -9.969   8.583   2.333  0.00  0.00    +2.610 S 
ATOM     27  O   LIG    1      -10.594   7.364   2.711  0.00  0.00    -0.950 OA
ATOM     28  O   LIG    1      -10.739   9.697   1.901  0.00  0.00    -0.950 OA
ENDBRANCH  23  26
ENDBRANCH  22  23
ENDBRANCH  21  22
ENDBRANCH  16  21
ENDBRANCH   1  19
TORSDOF 7
