REMARK  Name = ZINCrH000004uJDp.0
REMARK                            x       y       z     vdW  Elec       q    Type
REMARK                         _______ _______ _______ _____ _____    ______ ____
ROOT
ATOM      1  O   LIG    1       -5.709   1.723   4.854  0.00  0.00    -0.530 OA
ATOM      2  C   LIG    1       -4.935   0.785   4.830  0.00  0.00    +0.570 C 
ATOM      3  N   LIG    1       -3.824   0.848   4.070  0.00  0.00    -0.720 N 
ATOM      4  H   LIG    1       -3.207   0.100   4.051  0.00  0.00    +0.400 HD
ENDROOT
BRANCH   2   5
ATOM      5  C   LIG    1       -5.213  -0.421   5.633  0.00  0.00    -0.140 A 
ATOM      6  C   LIG    1       -4.328  -1.502   5.603  0.00  0.00    +0.060 A 
ATOM      7  C   LIG    1       -4.588  -2.624   6.357  0.00  0.00    -0.010 A 
ATOM      8  C   LIG    1       -5.735  -2.687   7.140  0.00  0.00    +0.120 A 
ATOM      9  C   LIG    1       -6.620  -1.616   7.169  0.00  0.00    +0.010 A 
ATOM     10  C   LIG    1       -6.365  -0.488   6.422  0.00  0.00    +0.110 A 
BRANCH   8  11
ATOM     11  O   LIG    1       -5.990  -3.796   7.879  0.00  0.00    -0.260 OA
BRANCH  11  12
ATOM     12  C   LIG    1       -5.164  -4.072   8.922  0.00  0.00    +0.120 A 
ATOM     13  C   LIG    1       -4.173  -3.170   9.281  0.00  0.00    -0.060 A 
ATOM     14  C   LIG    1       -3.338  -3.451  10.345  0.00  0.00    +0.050 A 
ATOM     15  C   LIG    1       -3.482  -4.634  11.046  0.00  0.00    -0.020 A 
ATOM     16  C   LIG    1       -4.466  -5.537  10.687  0.00  0.00    +0.050 A 
ATOM     17  C   LIG    1       -5.307  -5.259   9.627  0.00  0.00    -0.010 A 
ENDBRANCH  11  12
ENDBRANCH   8  11
ENDBRANCH   2   5
BRANCH   3  18
ATOM     18  C   LIG    1       -3.548   2.046   3.273  0.00  0.00    +0.410 C 
BRANCH  18  19
ATOM     19  C   LIG    1       -2.255   1.862   2.521  0.00  0.00    +0.150 A 
ATOM     20  N   LIG    1       -1.060   2.183   2.941  0.00  0.00    -0.270 NA
ATOM     21  N   LIG    1       -0.188   1.879   2.045  0.00  0.00    -0.290 NA
ATOM     22  C   LIG    1       -0.785   1.346   1.019  0.00  0.00    +0.190 A 
ATOM     23  C   LIG    1       -0.144   0.828  -0.243  0.00  0.00    +0.160 C 
ATOM     24  C   LIG    1       -0.916   1.361  -1.454  0.00  0.00    +0.030 C 
ATOM     25  C   LIG    1       -2.058   0.406  -1.792  0.00  0.00    +0.020 C 
ATOM     26  C   LIG    1       -2.615  -0.234  -0.522  0.00  0.00    +0.030 C 
ATOM     27  C   LIG    1       -3.175   0.852   0.401  0.00  0.00    +0.290 C 
ATOM     28  N   LIG    1       -2.114   1.334   1.285  0.00  0.00    -0.460 N 
ENDBRANCH  18  19
ENDBRANCH   3  18
TORSDOF 5
