REMARK  Name = ZINCpk00000KfKrY.0
REMARK                            x       y       z     vdW  Elec       q    Type
REMARK                         _______ _______ _______ _____ _____    ______ ____
ROOT
ATOM      1  N   LIG    1       -2.163   1.969  -3.510  0.00  0.00    -0.540 NA
ATOM      2  C   LIG    1       -0.953   2.790  -3.363  0.00  0.00    +0.180 C 
ATOM      3  C   LIG    1       -0.041   2.164  -2.305  0.00  0.00    +0.170 C 
ATOM      4  N   LIG    1       -0.766   2.069  -1.031  0.00  0.00    -0.530 NA
ATOM      5  C   LIG    1       -1.976   1.248  -1.177  0.00  0.00    +0.180 C 
ATOM      6  C   LIG    1       -2.889   1.873  -2.235  0.00  0.00    +0.190 C 
ENDROOT
BRANCH   1   7
ATOM      7  C   LIG    1       -3.031   2.496  -4.571  0.00  0.00    +0.210 C 
BRANCH   7   8
ATOM      8  C   LIG    1       -2.335   2.337  -5.925  0.00  0.00    +0.130 C 
BRANCH   8   9
ATOM      9  C   LIG    1       -2.187   0.906  -6.235  0.00  0.00    +0.210 C 
ATOM     10  N   LIG    1       -2.072  -0.198  -6.475  0.00  0.00    -0.430 NA
ENDBRANCH   8   9
BRANCH   8  11
ATOM     11  C   LIG    1       -3.175   3.011  -7.012  0.00  0.00    +0.080 C 
BRANCH  11  12
ATOM     12  C   LIG    1       -2.421   2.962  -8.342  0.00  0.00    +0.200 C 
BRANCH  12  14
ATOM     13  N   LIG    1       -3.852   4.109 -10.196  0.00  0.00    -0.430 NA
ATOM     14  C   LIG    1       -3.229   3.609  -9.388  0.00  0.00    +0.200 C 
ENDBRANCH  12  14
ENDBRANCH  11  12
ENDBRANCH   8  11
ENDBRANCH   7   8
ENDBRANCH   1   7
BRANCH   4  15
ATOM     15  C   LIG    1        0.102   1.542   0.031  0.00  0.00    +0.160 C 
BRANCH  15  16
ATOM     16  C   LIG    1        1.085   2.628   0.471  0.00  0.00    +0.230 C 
BRANCH  16  17
ATOM     17  O   LIG    1        0.360   3.751   0.977  0.00  0.00    -0.540 OA
ATOM     18  H   LIG    1       -0.200   3.547   1.739  0.00  0.00    +0.370 HD
ENDBRANCH  16  17
BRANCH  16  19
ATOM     19  C   LIG    1        1.998   2.075   1.568  0.00  0.00    +0.170 C 
BRANCH  19  20
ATOM     20  O   LIG    1        2.991   3.048   1.897  0.00  0.00    -0.300 OA
BRANCH  20  21
ATOM     21  C   LIG    1        3.888   2.713   2.861  0.00  0.00    +0.130 A 
ATOM     22  C   LIG    1        3.812   1.474   3.481  0.00  0.00    -0.080 A 
ATOM     23  C   LIG    1        4.728   1.133   4.457  0.00  0.00    +0.040 A 
ATOM     24  C   LIG    1        5.715   2.030   4.823  0.00  0.00    -0.040 A 
ATOM     25  C   LIG    1        5.790   3.267   4.210  0.00  0.00    +0.050 A 
ATOM     26  C   LIG    1        4.879   3.611   3.231  0.00  0.00    -0.020 A 
ENDBRANCH  20  21
ENDBRANCH  19  20
ENDBRANCH  16  19
ENDBRANCH  15  16
ENDBRANCH   4  15
TORSDOF 12
