REMARK  Name = ZINCpe000000W69y.0
REMARK                            x       y       z     vdW  Elec       q    Type
REMARK                         _______ _______ _______ _____ _____    ______ ____
ROOT
ATOM      1  N   LIG    1       -4.753   4.962  -0.917  0.00  0.00    -0.540 NA
ATOM      2  C   LIG    1       -4.585   3.525  -1.171  0.00  0.00    +0.190 C 
ATOM      3  C   LIG    1       -3.729   2.909  -0.058  0.00  0.00    +0.300 C 
ATOM      4  N   LIG    1       -2.477   3.673   0.044  0.00  0.00    -0.590 N 
ATOM      5  C   LIG    1       -2.562   5.136   0.169  0.00  0.00    +0.300 C 
ATOM      6  C   LIG    1       -3.463   5.664  -0.958  0.00  0.00    +0.180 C 
ENDROOT
BRANCH   4   7
ATOM      7  C   LIG    1       -1.249   3.031   0.030  0.00  0.00    +0.450 A 
ATOM      8  N   LIG    1       -0.160   3.687  -0.322  0.00  0.00    -0.530 NA
ATOM      9  C   LIG    1        1.033   3.083  -0.347  0.00  0.00    +0.260 A 
ATOM     10  C   LIG    1        1.173   1.787  -0.005  0.00  0.00    +0.160 A 
ATOM     11  N   LIG    1        0.076   1.057   0.374  0.00  0.00    -0.240 N 
ATOM     12  N   LIG    1       -0.106  -0.269   0.776  0.00  0.00    -0.290 NA
ATOM     13  C   LIG    1       -1.382  -0.463   1.033  0.00  0.00    +0.090 A 
ATOM     14  C   LIG    1       -2.072   0.719   0.810  0.00  0.00    -0.090 A 
ATOM     15  C   LIG    1       -1.994  -1.760   1.496  0.00  0.00    +0.160 C 
ATOM     16  C   LIG    1       -1.153   1.669   0.397  0.00  0.00    +0.030 A 
ENDBRANCH   4   7
BRANCH   1  17
ATOM     17  C   LIG    1       -5.706   5.556  -1.863  0.00  0.00    +0.360 C 
BRANCH  17  21
ATOM     18  C   LIG    1       -6.055   9.057  -1.148  0.00  0.00    +0.170 A 
ATOM     19  N   LIG    1       -7.024   8.527  -0.463  0.00  0.00    -0.360 NA
ATOM     20  O   LIG    1       -7.036   7.324  -0.614  0.00  0.00    +0.100 OA
ATOM     21  C   LIG    1       -6.040   6.959  -1.426  0.00  0.00    +0.190 A 
ATOM     22  N   LIG    1       -5.411   8.056  -1.775  0.00  0.00    -0.470 NA
BRANCH  18  23
ATOM     23  C   LIG    1       -5.715  10.523  -1.227  0.00  0.00    +0.320 C 
BRANCH  23  25
ATOM     24  C   LIG    1       -6.178  12.517  -2.473  0.00  0.00    +0.220 C 
ATOM     25  O   LIG    1       -6.430  11.120  -2.310  0.00  0.00    -0.390 OA
ENDBRANCH  23  25
ENDBRANCH  18  23
ENDBRANCH  17  21
ENDBRANCH   1  17
TORSDOF 5
