REMARK  Name = ZINCvU0000000ID5.0
REMARK                            x       y       z     vdW  Elec       q    Type
REMARK                         _______ _______ _______ _____ _____    ______ ____
ROOT
ATOM      1  C   LIG    1       -6.673   2.227   0.356  0.00  0.00    +0.260 C 
ATOM      2  C   LIG    1       -8.142   1.937   0.529  0.00  0.00    +0.520 C 
ATOM      3  N   LIG    1       -8.929   1.709  -0.539  0.00  0.00    -0.650 N 
ATOM      4  H   LIG    1       -9.865   1.489  -0.407  0.00  0.00    +0.420 HD
ATOM      5  C   LIG    1       -8.413   1.786  -1.838  0.00  0.00    +0.120 A 
ATOM      6  C   LIG    1       -9.124   1.282  -2.914  0.00  0.00    +0.000 A 
ATOM      7  C   LIG    1       -8.600   1.377  -4.191  0.00  0.00    +0.030 A 
ATOM      8  C   LIG    1       -7.370   1.973  -4.399  0.00  0.00    +0.010 A 
ATOM      9  C   LIG    1       -6.651   2.477  -3.329  0.00  0.00    +0.070 A 
ATOM     10  C   LIG    1       -7.169   2.384  -2.050  0.00  0.00    +0.120 A 
ATOM     11  O   LIG    1       -8.620   1.907   1.643  0.00  0.00    -0.510 OA
ATOM     12  N   LIG    1       -6.463   2.881  -0.944  0.00  0.00    -0.540 N 
ATOM     13  C   LIG    1       -5.619   3.924  -1.070  0.00  0.00    +0.610 C 
ATOM     14  O   LIG    1       -5.353   4.361  -2.173  0.00  0.00    -0.500 OA
ENDROOT
BRANCH  13  15
ATOM     15  C   LIG    1       -5.018   4.537   0.132  0.00  0.00    -0.110 A 
ATOM     16  C   LIG    1       -4.822   3.774   1.285  0.00  0.00    +0.040 A 
ATOM     17  C   LIG    1       -4.257   4.351   2.403  0.00  0.00    +0.030 A 
ATOM     18  C   LIG    1       -3.892   5.687   2.386  0.00  0.00    -0.010 A 
ATOM     19  C   LIG    1       -4.088   6.451   1.248  0.00  0.00    +0.030 A 
ATOM     20 CL   LIG    1       -3.187   6.408   3.800  0.00  0.00    -0.060 Cl
ATOM     21  C   LIG    1       -4.648   5.884   0.122  0.00  0.00    +0.100 A 
ENDBRANCH  13  15
BRANCH   1  22
ATOM     22  C   LIG    1       -5.883   0.918   0.405  0.00  0.00    +0.090 C 
BRANCH  22  24
ATOM     23  O   LIG    1       -4.331   2.115  -0.910  0.00  0.00    -0.490 OA
ATOM     24  C   LIG    1       -4.543   1.115  -0.258  0.00  0.00    +0.520 C 
ATOM     25  N   LIG    1       -3.582   0.179  -0.126  0.00  0.00    -0.670 N 
ATOM     26  H   LIG    1       -3.776  -0.654   0.330  0.00  0.00    +0.420 HD
BRANCH  25  27
ATOM     27  C   LIG    1       -2.304   0.411  -0.646  0.00  0.00    +0.160 A 
ATOM     28  C   LIG    1       -1.826   1.710  -0.763  0.00  0.00    +0.030 A 
ATOM     29  C   LIG    1       -0.561   1.935  -1.272  0.00  0.00    +0.070 A 
ATOM     30  C   LIG    1        0.226   0.870  -1.669  0.00  0.00    -0.110 A 
ATOM     31  C   LIG    1       -0.249  -0.425  -1.557  0.00  0.00    +0.070 A 
ATOM     32 BR   LIG    1        1.956   1.182  -2.365  0.00  0.00    -0.050 Br
ATOM     33  C   LIG    1       -1.513  -0.656  -1.050  0.00  0.00    +0.000 A 
ENDBRANCH  25  27
ENDBRANCH  22  24
ENDBRANCH   1  22
TORSDOF 4
