REMARK  Name = ZINCqH0000006Zvp.0
REMARK                            x       y       z     vdW  Elec       q    Type
REMARK                         _______ _______ _______ _____ _____    ______ ____
ROOT
ATOM      1  C   LIG    1        1.897   6.756   3.601  0.00  0.00    +0.130 A 
ATOM      2  N   LIG    1        2.312   5.757   2.875  0.00  0.00    -0.450 NA
ATOM      3  C   LIG    1        2.732   4.689   3.514  0.00  0.00    +0.070 A 
ATOM      4  C   LIG    1        2.692   4.756   4.849  0.00  0.00    -0.040 A 
ATOM      5  S   LIG    1        2.051   6.333   5.304  0.00  0.00    +0.110 S 
ENDROOT
BRANCH   1   9
ATOM      6  C   LIG    1        0.419  10.448   2.094  0.00  0.00    +0.120 A 
ATOM      7  C   LIG    1        0.828   9.454   1.216  0.00  0.00    -0.040 A 
ATOM      8  C   LIG    1        1.308   8.255   1.702  0.00  0.00    +0.080 A 
ATOM      9  C   LIG    1        1.383   8.040   3.079  0.00  0.00    -0.030 A 
ATOM     10  C   LIG    1        0.965   9.037   3.962  0.00  0.00    -0.010 A 
ATOM     11  C   LIG    1        0.491  10.239   3.470  0.00  0.00    +0.100 A 
BRANCH   6  13
ATOM     12  C   LIG    1       -0.099  11.774   0.190  0.00  0.00    +0.240 C 
ATOM     13  O   LIG    1       -0.052  11.627   1.611  0.00  0.00    -0.300 OA
ENDBRANCH   6  13
BRANCH  11  14
ATOM     14  O   LIG    1        0.089  11.214   4.327  0.00  0.00    -0.300 OA
ATOM     15  C   LIG    1        0.190  10.932   5.724  0.00  0.00    +0.250 C 
ENDBRANCH  11  14
ENDBRANCH   1   9
BRANCH   3  16
ATOM     16  C   LIG    1        3.233   3.467   2.789  0.00  0.00    +0.200 C 
BRANCH  16  17
ATOM     17  S   LIG    1        1.851   2.338   2.483  0.00  0.00    +0.060 S 
BRANCH  17  18
ATOM     18  C   LIG    1        2.698   1.038   1.648  0.00  0.00    +0.210 A 
ATOM     19  N   LIG    1        3.983   0.993   1.371  0.00  0.00    -0.330 NA
ATOM     20  N   LIG    1        4.272  -0.096   0.755  0.00  0.00    -0.030 NA
ATOM     21  N   LIG    1        3.216  -0.818   0.601  0.00  0.00    -0.080 NA
ATOM     22  N   LIG    1        2.148  -0.104   1.172  0.00  0.00    -0.360 N 
BRANCH  22  23
ATOM     23  C   LIG    1        0.742  -0.511   1.242  0.00  0.00    +0.340 C 
BRANCH  23  24
ATOM     24  C   LIG    1        0.002  -0.004   0.002  0.00  0.00    -0.030 C 
ATOM     25  C   LIG    1       -1.433  -0.534   0.013  0.00  0.00    +0.040 C 
ATOM     26  C   LIG    1       -0.019   1.526   0.010  0.00  0.00    +0.040 C 
ENDBRANCH  23  24
ENDBRANCH  22  23
ENDBRANCH  17  18
ENDBRANCH  16  17
ENDBRANCH   3  16
TORSDOF 8
