REMARK  Name = ZINCpk000000ojcg.0
REMARK                            x       y       z     vdW  Elec       q    Type
REMARK                         _______ _______ _______ _____ _____    ______ ____
ROOT
ATOM      1  C   LIG    1       -0.711   8.309  -2.229  0.00  0.00    +0.570 C 
ATOM      2  N   LIG    1       -1.090   7.607  -1.143  0.00  0.00    -0.730 N 
ATOM      3  H   LIG    1       -1.214   8.057  -0.293  0.00  0.00    +0.400 HD
ATOM      4  O   LIG    1       -0.556   7.745  -3.295  0.00  0.00    -0.550 OA
ENDROOT
BRANCH   1   8
ATOM      5  C   LIG    1       -0.058  12.494  -1.928  0.00  0.00    +0.240 A 
ATOM      6  C   LIG    1        0.121  11.849  -3.149  0.00  0.00    -0.080 A 
ATOM      7  C   LIG    1       -0.090  10.493  -3.250  0.00  0.00    +0.120 A 
ATOM      8  C   LIG    1       -0.483   9.763  -2.124  0.00  0.00    -0.200 A 
ATOM      9  C   LIG    1       -0.666  10.415  -0.901  0.00  0.00    +0.090 A 
ATOM     10  C   LIG    1       -0.449  11.770  -0.806  0.00  0.00    -0.080 A 
BRANCH   5  11
ATOM     11  N   LIG    1        0.156  13.865  -1.830  0.00  0.00    -0.620 N 
ATOM     12  C   LIG    1        0.568  14.629  -3.010  0.00  0.00    +0.280 C 
BRANCH  11  13
ATOM     13  C   LIG    1       -0.032  14.545  -0.546  0.00  0.00    +0.280 C 
BRANCH  13  15
ATOM     14  C   LIG    1        1.091  15.253   1.571  0.00  0.00    +0.030 C 
ATOM     15  C   LIG    1        1.287  14.543   0.230  0.00  0.00    -0.010 C 
ENDBRANCH  13  15
ENDBRANCH  11  13
ENDBRANCH   5  11
ENDBRANCH   1   8
BRANCH   2  16
ATOM     16  C   LIG    1       -1.316   6.163  -1.247  0.00  0.00    +0.240 C 
ATOM     17  C   LIG    1       -2.288   5.717  -0.152  0.00  0.00    +0.030 C 
ATOM     18  C   LIG    1       -2.473   4.200  -0.227  0.00  0.00    +0.180 C 
ATOM     19  N   LIG    1       -1.174   3.538  -0.052  0.00  0.00    -0.520 NA
ATOM     20  C   LIG    1       -0.238   3.914  -1.119  0.00  0.00    +0.180 C 
ATOM     21  C   LIG    1        0.013   5.423  -1.071  0.00  0.00    +0.030 C 
BRANCH  19  22
ATOM     22  C   LIG    1       -1.331   2.079   0.020  0.00  0.00    +0.210 C 
BRANCH  22  23
ATOM     23  C   LIG    1       -2.083   1.716   1.275  0.00  0.00    +0.510 C 
ATOM     24  N   LIG    1       -2.452   0.439   1.493  0.00  0.00    -0.740 N 
ATOM     25  H   LIG    1       -2.238  -0.247   0.841  0.00  0.00    +0.400 HD
ATOM     26  C   LIG    1       -3.177   0.085   2.716  0.00  0.00    +0.290 C 
ATOM     27  O   LIG    1       -2.351   2.573   2.090  0.00  0.00    -0.520 OA
ENDBRANCH  22  23
ENDBRANCH  19  22
ENDBRANCH   2  16
TORSDOF 7
