REMARK  Name = ZINCah0000001hGG.0
REMARK                            x       y       z     vdW  Elec       q    Type
REMARK                         _______ _______ _______ _____ _____    ______ ____
ROOT
ATOM      1  N   LIG    1       -2.103   1.072   1.277  0.00  0.00    -0.740 N 
ATOM      2  H   LIG    1       -2.825   1.620   0.932  0.00  0.00    +0.390 HD
ATOM      3  C   LIG    1       -2.365  -0.156   1.766  0.00  0.00    +0.700 C 
ATOM      4  N   LIG    1       -3.629  -0.623   1.776  0.00  0.00    -0.740 N 
ATOM      5  H   LIG    1       -4.351  -0.074   1.431  0.00  0.00    +0.390 HD
ATOM      6  O   LIG    1       -1.460  -0.844   2.199  0.00  0.00    -0.590 OA
ENDROOT
BRANCH   1   8
ATOM      7  C   LIG    1       -0.013   1.086   0.008  0.00  0.00    +0.020 C 
ATOM      8  C   LIG    1       -0.729   1.579   1.267  0.00  0.00    +0.240 C 
ATOM      9  C   LIG    1       -0.750   3.109   1.275  0.00  0.00    +0.030 C 
ENDBRANCH   1   8
BRANCH   4  10
ATOM     10  C   LIG    1       -3.913  -1.958   2.308  0.00  0.00    +0.240 C 
ATOM     11  C   LIG    1       -3.692  -3.001   1.211  0.00  0.00    +0.020 C 
ATOM     12  C   LIG    1       -5.366  -2.018   2.784  0.00  0.00    +0.030 C 
ENDBRANCH   4  10
TORSDOF 2
