REMARK  Name = ZINCtV000002LJQD.0
REMARK                            x       y       z     vdW  Elec       q    Type
REMARK                         _______ _______ _______ _____ _____    ______ ____
ROOT
ATOM      1  N   LIG    1        1.361   0.820  -0.576  0.00  0.00    -0.640 N 
ATOM      2  H   LIG    1        0.397   0.714  -0.605  0.00  0.00    +0.420 HD
ATOM      3  C   LIG    1        2.152  -0.256  -0.391  0.00  0.00    +0.510 C 
ATOM      4  O   LIG    1        3.357  -0.123  -0.353  0.00  0.00    -0.480 OA
ENDROOT
BRANCH   1   6
ATOM      5  C   LIG    1        1.216   3.229  -0.920  0.00  0.00    -0.120 A 
ATOM      6  C   LIG    1        1.925   2.079  -0.723  0.00  0.00    +0.060 A 
ATOM      7  S   LIG    1        3.596   2.401  -0.691  0.00  0.00    +0.320 S 
ATOM      8  C   LIG    1        3.355   4.125  -0.940  0.00  0.00    -0.240 A 
ATOM      9  C   LIG    1        4.480   5.134  -1.041  0.00  0.00    +0.120 C 
ATOM     10  C   LIG    1        4.178   6.344  -0.157  0.00  0.00    +0.020 C 
ATOM     11  C   LIG    1        3.407   7.380  -0.971  0.00  0.00    +0.000 C 
ATOM     12  C   LIG    1        2.503   6.678  -1.982  0.00  0.00    +0.030 C 
ATOM     13  C   LIG    1        1.490   5.808  -1.244  0.00  0.00    +0.090 C 
ATOM     14  C   LIG    1        2.053   4.412  -1.036  0.00  0.00    -0.040 A 
BRANCH   5  16
ATOM     15  N   LIG    1       -1.347   3.296  -1.063  0.00  0.00    -0.420 NA
ATOM     16  C   LIG    1       -0.213   3.266  -1.000  0.00  0.00    +0.270 C 
ENDBRANCH   5  16
ENDBRANCH   1   6
BRANCH   3  17
ATOM     17  C   LIG    1        1.539  -1.623  -0.231  0.00  0.00    +0.090 C 
BRANCH  17  18
ATOM     18  C   LIG    1        2.648  -2.659  -0.036  0.00  0.00    +0.110 C 
BRANCH  18  19
ATOM     19  C   LIG    1        2.045  -4.040   0.001  0.00  0.00    -0.080 A 
ATOM     20  C   LIG    1        1.002  -4.315   0.866  0.00  0.00    +0.010 A 
ATOM     21  C   LIG    1        0.445  -5.580   0.896  0.00  0.00    +0.000 A 
ATOM     22  C   LIG    1        0.938  -6.572   0.070  0.00  0.00    +0.000 A 
ATOM     23  C   LIG    1        1.985  -6.298  -0.791  0.00  0.00    +0.000 A 
ATOM     24  C   LIG    1        2.538  -5.032  -0.825  0.00  0.00    +0.010 A 
ENDBRANCH  18  19
BRANCH  18  25
ATOM     25  C   LIG    1        3.366  -2.389   1.261  0.00  0.00    -0.070 A 
ATOM     26  C   LIG    1        4.744  -2.287   1.280  0.00  0.00    +0.030 A 
ATOM     27  C   LIG    1        5.402  -2.034   2.469  0.00  0.00    +0.000 A 
ATOM     28  C   LIG    1        4.683  -1.896   3.641  0.00  0.00    +0.000 A 
ATOM     29  C   LIG    1        3.305  -2.004   3.623  0.00  0.00    +0.000 A 
ATOM     30  C   LIG    1        2.647  -2.251   2.433  0.00  0.00    +0.000 A 
ENDBRANCH  18  25
ENDBRANCH  17  18
ENDBRANCH   3  17
TORSDOF 6
