REMARK  Name = ZINCrD00000F5LoD.0
REMARK                            x       y       z     vdW  Elec       q    Type
REMARK                         _______ _______ _______ _____ _____    ______ ____
ROOT
ATOM      1  O   LIG    1       -4.245  -0.089   3.688  0.00  0.00    -0.540 OA
ATOM      2  C   LIG    1       -4.772  -0.397   2.635  0.00  0.00    +0.550 C 
ATOM      3  N   LIG    1       -4.200  -0.045   1.467  0.00  0.00    -0.730 N 
ATOM      4  H   LIG    1       -4.620  -0.290   0.628  0.00  0.00    +0.400 HD
ENDROOT
BRANCH   2   5
ATOM      5  C   LIG    1       -6.027  -1.147   2.639  0.00  0.00    -0.090 C 
ATOM      6  C   LIG    1       -6.601  -1.500   3.810  0.00  0.00    +0.150 C 
BRANCH   6   7
ATOM      7  C   LIG    1       -7.860  -2.253   3.813  0.00  0.00    -0.050 A 
ATOM      8  C   LIG    1       -8.476  -2.612   2.618  0.00  0.00    +0.060 A 
ATOM      9  C   LIG    1       -9.666  -3.324   2.622  0.00  0.00    +0.010 A 
ATOM     10  C   LIG    1      -10.274  -3.697   3.782  0.00  0.00    +0.050 A 
ATOM     11  C   LIG    1       -9.709  -3.369   5.025  0.00  0.00    -0.110 A 
ATOM     12  C   LIG    1      -10.323  -3.747   6.233  0.00  0.00    +0.090 A 
ATOM     13  C   LIG    1       -9.714  -3.393   7.404  0.00  0.00    -0.040 A 
ATOM     14  C   LIG    1       -8.520  -2.678   7.378  0.00  0.00    +0.300 A 
ATOM     15  N   LIG    1       -7.951  -2.328   6.248  0.00  0.00    -0.470 NA
ATOM     16  C   LIG    1       -8.491  -2.647   5.074  0.00  0.00    +0.150 A 
ENDBRANCH   6   7
ENDBRANCH   2   5
BRANCH   3  17
ATOM     17  C   LIG    1       -2.943   0.707   1.464  0.00  0.00    +0.260 C 
BRANCH  17  18
ATOM     18  C   LIG    1       -2.513   0.976   0.021  0.00  0.00    +0.070 C 
BRANCH  18  19
ATOM     19  C   LIG    1       -1.219   1.749   0.017  0.00  0.00    -0.080 A 
ATOM     20  C   LIG    1       -0.013   1.076   0.008  0.00  0.00    +0.020 A 
ATOM     21  C   LIG    1        1.176   1.782   0.000  0.00  0.00    +0.030 A 
ATOM     22  C   LIG    1        1.160   3.169   0.007  0.00  0.00    +0.050 A 
ATOM     23  O   LIG    1        2.338   3.850   0.003  0.00  0.00    -0.310 OA
ATOM     24  C   LIG    1        2.280   5.233  -0.365  0.00  0.00    +0.220 C 
ATOM     25  C   LIG    1        1.114   5.883   0.391  0.00  0.00    +0.220 C 
ATOM     26  O   LIG    1       -0.092   5.207   0.023  0.00  0.00    -0.310 OA
ATOM     27  C   LIG    1       -0.054   3.846   0.020  0.00  0.00    +0.050 A 
ATOM     28  C   LIG    1       -1.242   3.131   0.030  0.00  0.00    +0.030 A 
ENDBRANCH  18  19
ENDBRANCH  17  18
ENDBRANCH   3  17
TORSDOF 5
