REMARK  Name = ZINCrg00000fRWXG.0
REMARK                            x       y       z     vdW  Elec       q    Type
REMARK                         _______ _______ _______ _____ _____    ______ ____
ROOT
ATOM      1  C   LIG    1        3.635   1.583  -0.024  0.00  0.00    +0.520 C 
ATOM      2  O   LIG    1        3.777   2.790  -0.019  0.00  0.00    -0.500 OA
ENDROOT
BRANCH   1   5
ATOM      3  C   LIG    1        7.205   0.421  -0.065  0.00  0.00    +0.110 A 
ATOM      4  C   LIG    1        6.101   1.251  -0.055  0.00  0.00    +0.050 A 
ATOM      5  C   LIG    1        4.816   0.701  -0.040  0.00  0.00    -0.120 A 
ATOM      6  C   LIG    1        4.654  -0.687  -0.046  0.00  0.00    +0.100 A 
ATOM      7  C   LIG    1        5.759  -1.510  -0.061  0.00  0.00    -0.020 A 
ATOM      8  C   LIG    1        7.035  -0.964  -0.071  0.00  0.00    +0.120 A 
BRANCH   3  10
ATOM      9  C   LIG    1        8.556   2.378  -0.067  0.00  0.00    +0.250 C 
ATOM     10  O   LIG    1        8.456   0.953  -0.074  0.00  0.00    -0.300 OA
ENDBRANCH   3  10
BRANCH   8  11
ATOM     11  O   LIG    1        8.121  -1.779  -0.086  0.00  0.00    -0.300 OA
BRANCH  11  12
ATOM     12  C   LIG    1        7.875  -3.187  -0.092  0.00  0.00    +0.600 C 
ATOM     13  F   LIG    1        7.134  -3.526  -1.229  0.00  0.00    -0.200 F 
ATOM     14  F   LIG    1        7.156  -3.539   1.056  0.00  0.00    -0.200 F 
ENDBRANCH  11  12
ENDBRANCH   8  11
ENDBRANCH   1   5
BRANCH   1  15
ATOM     15  O   LIG    1        2.397   1.051  -0.015  0.00  0.00    -0.330 OA
BRANCH  15  16
ATOM     16  C   LIG    1        1.280   1.980   0.001  0.00  0.00    +0.270 C 
BRANCH  16  17
ATOM     17  C   LIG    1       -0.014   1.209   0.009  0.00  0.00    +0.520 C 
ATOM     18  N   LIG    1       -1.191   1.867   0.018  0.00  0.00    -0.600 N 
ATOM     19  C   LIG    1       -1.210   3.331   0.026  0.00  0.00    +0.290 C 
ATOM     20  O   LIG    1        0.002  -0.004   0.002  0.00  0.00    -0.510 OA
BRANCH  18  21
ATOM     21  C   LIG    1       -2.449   1.117   0.020  0.00  0.00    +0.280 C 
ATOM     22  C   LIG    1       -3.271   1.482  -1.230  0.00  0.00    +0.070 C 
ATOM     23  C   LIG    1       -4.699   0.925  -0.999  0.00  0.00    -0.310 C 
ATOM     24  S   LIG    1       -5.017   1.355   0.754  0.00  0.00    +2.400 S 
ATOM     25  O   LIG    1       -5.624   0.249   1.408  0.00  0.00    -0.930 OA
ATOM     26  O   LIG    1       -5.623   2.639   0.821  0.00  0.00    -0.930 OA
ATOM     27  C   LIG    1       -3.268   1.482   1.274  0.00  0.00    -0.330 C 
ENDBRANCH  18  21
ENDBRANCH  16  17
ENDBRANCH  15  16
ENDBRANCH   1  15
TORSDOF 8
