REMARK  Name = ZINCnE000001Ubp0.0
REMARK                            x       y       z     vdW  Elec       q    Type
REMARK                         _______ _______ _______ _____ _____    ______ ____
ROOT
ATOM      1  N   LIG    1       -2.575   1.089   0.032  0.00  0.00    -1.020 NA
ENDROOT
BRANCH   1   2
ATOM      2  C   LIG    1       -2.404  -0.298   0.024  0.00  0.00    +0.290 A 
ATOM      3  C   LIG    1       -3.510  -1.136   0.030  0.00  0.00    -0.150 A 
ATOM      4  C   LIG    1       -3.338  -2.507   0.022  0.00  0.00    +0.050 A 
ATOM      5  C   LIG    1       -2.066  -3.049   0.007  0.00  0.00    -0.100 A 
ATOM      6  C   LIG    1       -0.959  -2.222  -0.006  0.00  0.00    +0.020 A 
ATOM      7  C   LIG    1       -1.121  -0.845   0.009  0.00  0.00    +0.070 A 
BRANCH   7   8
ATOM      8  N   LIG    1        0.002  -0.004   0.002  0.00  0.00    -0.270 N 
ATOM      9  C   LIG    1        1.294  -0.402  -0.013  0.00  0.00    +0.180 A 
ATOM     10  C   LIG    1        2.067   0.709  -0.014  0.00  0.00    -0.140 A 
ATOM     11  C   LIG    1        1.221   1.823   0.000  0.00  0.00    +0.160 A 
ATOM     12  N   LIG    1       -0.017   1.397   0.010  0.00  0.00    -0.200 NA
ENDBRANCH   7   8
ENDBRANCH   1   2
BRANCH   1  14
ATOM     13  O   LIG    1       -4.694   1.396  -1.196  0.00  0.00    -1.030 OA
ATOM     14  S   LIG    1       -4.100   1.735   0.050  0.00  0.00    +2.590 S 
ATOM     15  O   LIG    1       -4.669   1.385   1.304  0.00  0.00    -1.010 OA
BRANCH  14  16
ATOM     16  C   LIG    1       -3.923   3.488   0.056  0.00  0.00    -0.620 A 
ATOM     17  C   LIG    1       -4.363   4.230  -1.023  0.00  0.00    +0.170 A 
ATOM     18  C   LIG    1       -4.229   5.606  -1.018  0.00  0.00    -0.040 A 
ATOM     19  C   LIG    1       -3.645   6.240   0.066  0.00  0.00    +0.150 A 
ATOM     20  C   LIG    1       -3.200   5.496   1.145  0.00  0.00    -0.030 A 
ATOM     21  F   LIG    1       -3.510   7.585   0.070  0.00  0.00    -0.130 F 
ATOM     22  C   LIG    1       -3.339   4.120   1.140  0.00  0.00    +0.090 A 
ATOM     23 CL   LIG    1       -2.781   3.186   2.492  0.00  0.00    -0.010 Cl
ENDBRANCH  14  16
ENDBRANCH   1  14
TORSDOF 4
