REMARK  Name = ZINCqH0000005Iv4.0
REMARK                            x       y       z     vdW  Elec       q    Type
REMARK                         _______ _______ _______ _____ _____    ______ ____
ROOT
ATOM      1  N   LIG    1       -0.965  -2.218   0.032  0.00  0.00    -0.700 N 
ATOM      2  H   LIG    1       -0.924  -2.722   0.860  0.00  0.00    +0.410 HD
ATOM      3  C   LIG    1       -0.771  -2.843  -1.146  0.00  0.00    +0.550 C 
ATOM      4  O   LIG    1       -0.912  -2.234  -2.186  0.00  0.00    -0.520 OA
ENDROOT
BRANCH   3   5
ATOM      5  C   LIG    1       -0.379  -4.298  -1.173  0.00  0.00    -0.070 C 
ATOM      6  C   LIG    1        1.093  -4.546  -0.801  0.00  0.00    +0.060 C 
ATOM      7  C   LIG    1        1.415  -4.377  -2.298  0.00  0.00    +0.030 C 
ATOM      8  C   LIG    1       -0.032  -4.817  -2.578  0.00  0.00    +0.070 C 
BRANCH   5   9
ATOM      9  C   LIG    1       -1.347  -5.178  -0.426  0.00  0.00    -0.120 A 
ATOM     10  C   LIG    1       -0.948  -5.842   0.725  0.00  0.00    +0.090 A 
ATOM     11  C   LIG    1       -1.873  -6.638   1.382  0.00  0.00    +0.000 A 
ATOM     12  C   LIG    1       -3.152  -6.751   0.866  0.00  0.00    +0.170 A 
ATOM     13  N   LIG    1       -3.495  -6.108  -0.234  0.00  0.00    -0.470 NA
ATOM     14 CL   LIG    1       -4.319  -7.750   1.676  0.00  0.00    -0.030 Cl
ATOM     15  C   LIG    1       -2.641  -5.339  -0.882  0.00  0.00    +0.290 A 
ENDBRANCH   5   9
ENDBRANCH   3   5
BRANCH   1  16
ATOM     16  C   LIG    1       -1.236  -0.779   0.063  0.00  0.00    +0.290 C 
BRANCH  16  17
ATOM     17  C   LIG    1        0.067  -0.021   0.040  0.00  0.00    +0.450 C 
ATOM     18  O   LIG    1        1.114  -0.622   0.002  0.00  0.00    -0.500 OA
BRANCH  17  20
ATOM     19  C   LIG    1        1.354   1.984   0.037  0.00  0.00    +0.260 C 
ATOM     20  O   LIG    1        0.063   1.321   0.061  0.00  0.00    -0.360 OA
ENDBRANCH  17  20
ENDBRANCH  16  17
BRANCH  16  21
ATOM     21  C   LIG    1       -2.006  -0.432   1.339  0.00  0.00    +0.060 C 
BRANCH  21  22
ATOM     22  C   LIG    1       -3.380  -1.103   1.303  0.00  0.00    -0.010 C 
ATOM     23  C   LIG    1       -4.207  -0.512   0.159  0.00  0.00    +0.010 C 
ATOM     24  C   LIG    1       -5.581  -1.183   0.124  0.00  0.00    +0.000 C 
ATOM     25  C   LIG    1       -6.302  -0.939   1.452  0.00  0.00    +0.000 C 
ATOM     26  C   LIG    1       -5.475  -1.530   2.596  0.00  0.00    +0.000 C 
ATOM     27  C   LIG    1       -4.101  -0.859   2.631  0.00  0.00    +0.020 C 
ENDBRANCH  21  22
ENDBRANCH  16  21
ENDBRANCH   1  16
TORSDOF 7
