REMARK  Name = ZINCrg000000oTOj.0
REMARK                            x       y       z     vdW  Elec       q    Type
REMARK                         _______ _______ _______ _____ _____    ______ ____
ROOT
ATOM      1  C   LIG    1        3.818  -2.623  -3.726  0.00  0.00    +0.330 A 
ATOM      2  N   LIG    1        4.443  -1.851  -2.897  0.00  0.00    -0.550 NA
ATOM      3  C   LIG    1        3.770  -0.830  -2.375  0.00  0.00    +0.140 A 
ATOM      4  C   LIG    1        2.502  -0.758  -2.810  0.00  0.00    -0.310 A 
ATOM      5  C   LIG    1        1.504   0.293  -2.394  0.00  0.00    +0.390 C 
ATOM      6  N   LIG    1        2.090   1.047  -1.272  0.00  0.00    -0.610 N 
ATOM      7  C   LIG    1        3.507   1.427  -1.367  0.00  0.00    +0.300 C 
ATOM      8  C   LIG    1        1.353   1.371  -0.191  0.00  0.00    +0.530 C 
ATOM      9  O   LIG    1        1.857   1.988   0.723  0.00  0.00    -0.530 OA
ATOM     10  C   LIG    1        4.365   0.160  -1.386  0.00  0.00    +0.130 C 
ATOM     11  S   LIG    1        2.209  -2.082  -3.930  0.00  0.00    +0.110 S 
ENDROOT
BRANCH   8  12
ATOM     12  C   LIG    1       -0.098   0.969  -0.120  0.00  0.00    -0.020 C 
ATOM     13  C   LIG    1       -0.861   1.597  -1.288  0.00  0.00    +0.030 C 
ATOM     14  C   LIG    1       -2.328   1.161  -1.234  0.00  0.00    +0.020 C 
ATOM     15  C   LIG    1       -2.955   1.653   0.074  0.00  0.00    +0.280 C 
ATOM     16  N   LIG    1       -2.141   1.172   1.199  0.00  0.00    -0.600 N 
ATOM     17  C   LIG    1       -0.700   1.458   1.201  0.00  0.00    +0.320 C 
BRANCH  16  18
ATOM     18  C   LIG    1       -2.719   0.465   2.233  0.00  0.00    +0.440 A 
ATOM     19  C   LIG    1       -2.207   0.563   3.517  0.00  0.00    -0.220 A 
ATOM     20  C   LIG    1       -2.827  -0.168   4.540  0.00  0.00    +0.530 A 
ATOM     21  N   LIG    1       -3.887  -0.944   4.232  0.00  0.00    -0.640 N 
ATOM     22  H   LIG    1       -4.326  -1.460   4.927  0.00  0.00    +0.420 HD
ATOM     23  C   LIG    1       -4.339  -1.006   2.964  0.00  0.00    +0.610 A 
ATOM     24  O   LIG    1       -2.412  -0.107   5.686  0.00  0.00    -0.550 OA
ATOM     25  N   LIG    1       -3.777  -0.328   2.002  0.00  0.00    -0.570 NA
ENDBRANCH  16  18
ENDBRANCH   8  12
BRANCH   1  27
ATOM     26  C   LIG    1        5.766  -4.093  -4.100  0.00  0.00    +0.300 C 
ATOM     27  N   LIG    1        4.370  -3.727  -4.355  0.00  0.00    -0.590 N 
ATOM     28  C   LIG    1        3.559  -4.527  -5.276  0.00  0.00    +0.300 C 
ENDBRANCH   1  27
TORSDOF 3
