REMARK  Name = ZINCrH000004nR3j.0
REMARK                            x       y       z     vdW  Elec       q    Type
REMARK                         _______ _______ _______ _____ _____    ______ ____
ROOT
ATOM      1  C   LIG    1       -0.755   1.598  -1.235  0.00  0.00    +0.270 C 
ENDROOT
BRANCH   1   2
ATOM      2  C   LIG    1        0.019   1.211  -2.468  0.00  0.00    +0.520 C 
ATOM      3  N   LIG    1        1.281   1.654  -2.639  0.00  0.00    -0.660 N 
ATOM      4  H   LIG    1        1.666   2.276  -2.002  0.00  0.00    +0.420 HD
ATOM      5  O   LIG    1       -0.492   0.500  -3.307  0.00  0.00    -0.510 OA
BRANCH   3   6
ATOM      6  C   LIG    1        2.034   1.216  -3.734  0.00  0.00    +0.080 A 
ATOM      7  C   LIG    1        1.420   0.977  -4.948  0.00  0.00    +0.090 A 
ATOM      8  C   LIG    1        2.221   0.538  -6.018  0.00  0.00    -0.090 A 
ATOM      9  C   LIG    1        1.668   0.275  -7.282  0.00  0.00    +0.030 A 
ATOM     10  C   LIG    1        2.475  -0.147  -8.294  0.00  0.00    +0.020 A 
ATOM     11  C   LIG    1        3.842  -0.322  -8.093  0.00  0.00    +0.030 A 
ATOM     12  C   LIG    1        4.411  -0.076  -6.881  0.00  0.00    +0.050 A 
ATOM     13  C   LIG    1        3.612   0.361  -5.811  0.00  0.00    +0.110 A 
ATOM     14  N   LIG    1        4.146   0.610  -4.611  0.00  0.00    -0.450 NA
ATOM     15  C   LIG    1        3.415   1.024  -3.606  0.00  0.00    +0.280 A 
ENDBRANCH   3   6
ENDBRANCH   1   2
BRANCH   1  16
ATOM     16  N   LIG    1       -2.089   0.995  -1.286  0.00  0.00    -0.710 N 
ATOM     17  H   LIG    1       -2.237   0.189  -1.805  0.00  0.00    +0.410 HD
ATOM     18  C   LIG    1       -3.110   1.559  -0.612  0.00  0.00    +0.570 C 
ATOM     19  O   LIG    1       -2.925   2.569   0.039  0.00  0.00    -0.530 OA
BRANCH  18  20
ATOM     20  C   LIG    1       -4.456   0.950  -0.663  0.00  0.00    -0.140 A 
ATOM     21  C   LIG    1       -4.674  -0.207  -1.414  0.00  0.00    +0.050 A 
ATOM     22  C   LIG    1       -5.932  -0.773  -1.454  0.00  0.00    +0.000 A 
ATOM     23  C   LIG    1       -6.978  -0.191  -0.761  0.00  0.00    +0.040 A 
ATOM     24  C   LIG    1       -6.770   0.958  -0.019  0.00  0.00    +0.000 A 
ATOM     25  C   LIG    1       -5.516   1.531   0.034  0.00  0.00    +0.080 A 
ENDBRANCH  18  20
ENDBRANCH   1  16
BRANCH   1  26
ATOM     26  C   LIG    1       -0.017   1.099   0.009  0.00  0.00    +0.070 C 
BRANCH  26  27
ATOM     27  C   LIG    1       -0.736   1.599   1.264  0.00  0.00    +0.100 C 
BRANCH  27  29
ATOM     28  C   LIG    1       -0.846   1.691   4.099  0.00  0.00    +0.140 C 
ATOM     29  S   LIG    1        0.140   1.008   2.738  0.00  0.00    -0.270 S 
ENDBRANCH  27  29
ENDBRANCH  26  27
ENDBRANCH   1  26
TORSDOF 7
