REMARK  Name = ZINCqH0000000ugt.0
REMARK                            x       y       z     vdW  Elec       q    Type
REMARK                         _______ _______ _______ _____ _____    ______ ____
ROOT
ATOM      1  N   LIG    1        5.102  -3.090  -1.770  0.00  0.00    -0.730 N 
ATOM      2  H   LIG    1        5.051  -3.776  -1.087  0.00  0.00    +0.400 HD
ENDROOT
BRANCH   1   7
ATOM      3  C   LIG    1        4.398  -5.061  -4.796  0.00  0.00    +0.180 A 
ATOM      4  C   LIG    1        4.472  -4.075  -5.771  0.00  0.00    -0.040 A 
ATOM      5  C   LIG    1        4.754  -2.769  -5.416  0.00  0.00    +0.060 A 
ATOM      6  C   LIG    1        4.957  -2.440  -4.090  0.00  0.00    -0.060 A 
ATOM      7  C   LIG    1        4.890  -3.423  -3.110  0.00  0.00    +0.230 A 
ATOM      8  C   LIG    1        4.607  -4.734  -3.464  0.00  0.00    -0.190 A 
ATOM      9  C   LIG    1        4.528  -5.802  -2.403  0.00  0.00    +0.080 C 
BRANCH   3  12
ATOM     10  C   LIG    1        3.974  -8.200  -6.829  0.00  0.00    +0.110 C 
ATOM     11  C   LIG    1        4.394  -6.817  -6.401  0.00  0.00    +0.510 C 
ATOM     12  N   LIG    1        4.112  -6.382  -5.157  0.00  0.00    -0.670 N 
ATOM     13  H   LIG    1        3.711  -6.985  -4.511  0.00  0.00    +0.410 HD
ATOM     14  O   LIG    1        4.986  -6.096  -7.176  0.00  0.00    -0.520 OA
ENDBRANCH   3  12
ENDBRANCH   1   7
BRANCH   1  15
ATOM     15  C   LIG    1        5.400  -1.705  -1.398  0.00  0.00    +0.270 C 
ATOM     16  C   LIG    1        6.184  -1.689  -0.084  0.00  0.00    +0.040 C 
ATOM     17  C   LIG    1        5.234  -2.086   1.052  0.00  0.00    +0.030 C 
ATOM     18  C   LIG    1        4.196  -0.975   1.229  0.00  0.00    +0.260 C 
ATOM     19  N   LIG    1        3.580  -0.647  -0.051  0.00  0.00    -0.560 N 
ATOM     20  C   LIG    1        4.116  -0.944  -1.236  0.00  0.00    +0.500 C 
ATOM     21  O   LIG    1        3.534  -0.579  -2.236  0.00  0.00    -0.520 OA
BRANCH  19  22
ATOM     22  C   LIG    1        2.353   0.027  -0.036  0.00  0.00    +0.100 A 
ATOM     23  C   LIG    1        1.165  -0.691  -0.026  0.00  0.00    +0.050 A 
ATOM     24  C   LIG    1       -0.044  -0.024  -0.011  0.00  0.00    +0.020 A 
ATOM     25  C   LIG    1       -0.074   1.359  -0.007  0.00  0.00    +0.060 A 
ATOM     26  C   LIG    1        1.107   2.079  -0.017  0.00  0.00    -0.010 A 
ATOM     27  C   LIG    1        2.321   1.417  -0.031  0.00  0.00    +0.110 A 
ATOM     28  F   LIG    1        3.475   2.121  -0.040  0.00  0.00    -0.130 F 
ENDBRANCH  19  22
ENDBRANCH   1  15
TORSDOF 4
