REMARK  Name = ZINCrg000000sqgy.0
REMARK                            x       y       z     vdW  Elec       q    Type
REMARK                         _______ _______ _______ _____ _____    ______ ____
ROOT
ATOM      1  C   LIG    1       -2.504   1.419   0.021  0.00  0.00    +0.140 C 
ENDROOT
BRANCH   1  14
ATOM      2  C   LIG    1       -2.498   4.330   0.049  0.00  0.00    +0.160 C 
ATOM      3  C   LIG    1       -1.194   3.574   0.032  0.00  0.00    +0.250 A 
ATOM      4  N   LIG    1       -0.055   4.231   0.025  0.00  0.00    -0.480 NA
ATOM      5  C   LIG    1        1.113   3.579   0.010  0.00  0.00    +0.350 A 
ATOM      6  C   LIG    1        2.433   4.027   0.001  0.00  0.00    -0.180 A 
ATOM      7  C   LIG    1        3.261   2.906  -0.013  0.00  0.00    +0.550 A 
ATOM      8  N   LIG    1        2.486   1.805  -0.011  0.00  0.00    -0.510 N 
ATOM      9  H   LIG    1        2.803   0.888  -0.019  0.00  0.00    +0.440 HD
ATOM     10  O   LIG    1        4.482   2.920  -0.023  0.00  0.00    -0.540 OA
ATOM     11  N   LIG    1        1.145   2.207   0.003  0.00  0.00    -0.300 N 
ATOM     12  C   LIG    1       -0.018   1.503   0.010  0.00  0.00    +0.210 A 
ATOM     13  C   LIG    1        0.002  -0.004   0.002  0.00  0.00    +0.160 C 
ATOM     14  C   LIG    1       -1.200   2.175   0.019  0.00  0.00    -0.220 A 
ENDBRANCH   1  14
BRANCH   1  15
ATOM     15  C   LIG    1       -3.002   1.265   1.460  0.00  0.00    +0.060 C 
BRANCH  15  16
ATOM     16  C   LIG    1       -4.306   0.509   1.462  0.00  0.00    +0.520 C 
ATOM     17  N   LIG    1       -4.934   0.253   2.627  0.00  0.00    -0.620 N 
ATOM     18  C   LIG    1       -4.357   0.699   3.902  0.00  0.00    +0.270 C 
ATOM     19  C   LIG    1       -5.405   1.551   4.638  0.00  0.00    +0.270 C 
ATOM     20  N   LIG    1       -6.677   0.815   4.656  0.00  0.00    -0.610 N 
ATOM     21  C   LIG    1       -7.252   0.364   3.380  0.00  0.00    +0.280 C 
ATOM     22  C   LIG    1       -7.306   0.559   5.820  0.00  0.00    +0.550 C 
ATOM     23  O   LIG    1       -8.356  -0.048   5.822  0.00  0.00    -0.530 OA
ATOM     24  C   LIG    1       -6.207  -0.482   2.644  0.00  0.00    +0.280 C 
ATOM     25  O   LIG    1       -4.790   0.132   0.416  0.00  0.00    -0.530 OA
BRANCH  22  26
ATOM     26  C   LIG    1       -6.705   1.028   7.120  0.00  0.00    -0.070 C 
ATOM     27  C   LIG    1       -6.172  -0.040   8.077  0.00  0.00    +0.060 C 
ATOM     28  C   LIG    1       -7.466   0.706   8.407  0.00  0.00    +0.070 C 
ENDBRANCH  22  26
ENDBRANCH  15  16
ENDBRANCH   1  15
TORSDOF 4
