REMARK  Name = ZINCrD000000D2r5.1
REMARK                            x       y       z     vdW  Elec       q    Type
REMARK                         _______ _______ _______ _____ _____    ______ ____
ROOT
ATOM      1  C   LIG    1        3.367   3.338  -2.447  0.00  0.00    +0.240 C 
ATOM      2  C   LIG    1        2.488   2.437  -3.319  0.00  0.00    +0.010 C 
ATOM      3  C   LIG    1        1.633   3.307  -4.243  0.00  0.00    +0.170 C 
ATOM      4  N   LIG    1        2.506   4.135  -5.086  0.00  0.00    -0.530 NA
ATOM      5  C   LIG    1        3.325   5.042  -4.272  0.00  0.00    +0.170 C 
ATOM      6  C   LIG    1        4.231   4.224  -3.349  0.00  0.00    +0.040 C 
ENDROOT
BRANCH   4   7
ATOM      7  C   LIG    1        1.724   4.881  -6.081  0.00  0.00    +0.240 C 
ATOM      8  C   LIG    1        0.705   5.803  -5.379  0.00  0.00    +0.000 C 
ATOM      9  C   LIG    1       -0.496   5.768  -6.347  0.00  0.00    +0.100 C 
ATOM     10  C   LIG    1       -0.385   4.441  -7.066  0.00  0.00    -0.130 A 
ATOM     11  C   LIG    1       -1.327   3.734  -7.799  0.00  0.00    +0.110 A 
ATOM     12  C   LIG    1       -0.993   2.521  -8.376  0.00  0.00    -0.010 A 
ATOM     13  C   LIG    1        0.283   2.014  -8.221  0.00  0.00    +0.050 A 
ATOM     14  C   LIG    1        1.222   2.718  -7.492  0.00  0.00    +0.030 A 
ATOM     15  F   LIG    1       -2.575   4.230  -7.949  0.00  0.00    -0.140 F 
ATOM     16  C   LIG    1        0.890   3.931  -6.914  0.00  0.00    -0.060 A 
ENDBRANCH   4   7
BRANCH   1  17
ATOM     17  N   LIG    1        4.231   2.510  -1.602  0.00  0.00    -1.110 NA
ATOM     18  H   LIG    1        5.073   2.177  -1.948  0.00  0.00    +0.420 HD
BRANCH  17  20
ATOM     19  O   LIG    1        3.367   3.365   0.546  0.00  0.00    -0.950 OA
ATOM     20  S   LIG    1        3.768   2.141  -0.055  0.00  0.00    +2.700 S 
ATOM     21  O   LIG    1        4.787   1.309   0.481  0.00  0.00    -0.950 OA
BRANCH  20  22
ATOM     22  C   LIG    1        2.319   1.145  -0.168  0.00  0.00    -0.690 A 
ATOM     23  C   LIG    1        1.071   1.739  -0.180  0.00  0.00    +0.160 A 
ATOM     24  C   LIG    1       -0.066   0.958  -0.268  0.00  0.00    -0.020 A 
ATOM     25  C   LIG    1        0.045  -0.420  -0.344  0.00  0.00    +0.160 A 
ATOM     26  C   LIG    1        1.296  -1.014  -0.331  0.00  0.00    -0.020 A 
ATOM     27  F   LIG    1       -1.065  -1.184  -0.429  0.00  0.00    -0.130 F 
ATOM     28  C   LIG    1        2.431  -0.231  -0.243  0.00  0.00    +0.160 A 
ENDBRANCH  20  22
ENDBRANCH  17  20
ENDBRANCH   1  17
TORSDOF 4
