REMARK  Name = ZINCrD00000F5LkB.0
REMARK                            x       y       z     vdW  Elec       q    Type
REMARK                         _______ _______ _______ _____ _____    ______ ____
ROOT
ATOM      1  C   LIG    1       -1.993  -0.751   1.184  0.00  0.00    +0.570 C 
ATOM      2  N   LIG    1       -1.372  -0.511   0.012  0.00  0.00    -0.590 N 
ATOM      3  C   LIG    1       -2.072  -0.758  -1.251  0.00  0.00    +0.290 C 
ATOM      4  O   LIG    1       -1.412  -0.546   2.235  0.00  0.00    -0.540 OA
ENDROOT
BRANCH   1   6
ATOM      5  C   LIG    1       -3.946  -1.482   2.374  0.00  0.00    +0.170 C 
ATOM      6  C   LIG    1       -3.321  -1.241   1.194  0.00  0.00    -0.070 C 
BRANCH   5  10
ATOM      7  C   LIG    1       -7.218  -2.696   3.104  0.00  0.00    +0.050 A 
ATOM      8  C   LIG    1       -7.284  -2.708   1.754  0.00  0.00    -0.050 A 
ATOM      9  C   LIG    1       -6.048  -2.248   1.275  0.00  0.00    +0.010 A 
ATOM     10  C   LIG    1       -5.275  -1.972   2.384  0.00  0.00    -0.020 A 
ATOM     11  O   LIG    1       -6.008  -2.258   3.479  0.00  0.00    -0.160 OA
BRANCH   7  15
ATOM     12  C   LIG    1      -10.349  -2.101   5.350  0.00  0.00    +0.060 C 
ATOM     13  C   LIG    1       -8.856  -2.065   5.018  0.00  0.00    -0.030 C 
ATOM     14  C   LIG    1       -7.992  -3.220   5.527  0.00  0.00    +0.050 C 
ATOM     15  C   LIG    1       -8.325  -3.114   4.037  0.00  0.00    +0.050 C 
ENDBRANCH   7  15
ENDBRANCH   5  10
ENDBRANCH   1   6
BRANCH   2  16
ATOM     16  C   LIG    1        0.002  -0.004   0.002  0.00  0.00    +0.400 C 
BRANCH  16  17
ATOM     17  C   LIG    1       -0.018   1.503   0.010  0.00  0.00    +0.430 A 
ATOM     18  N   LIG    1       -1.175   2.105   0.019  0.00  0.00    -0.580 NA
ATOM     19  C   LIG    1       -1.275   3.448   0.033  0.00  0.00    +0.530 A 
ATOM     20  C   LIG    1       -0.029   4.236   0.025  0.00  0.00    -0.210 A 
ATOM     21  C   LIG    1       -0.035   5.628   0.033  0.00  0.00    +0.110 A 
ATOM     22  C   LIG    1        1.162   6.311   0.026  0.00  0.00    -0.010 A 
ATOM     23  C   LIG    1        2.366   5.621   0.010  0.00  0.00    +0.080 A 
ATOM     24  C   LIG    1        2.387   4.242   0.003  0.00  0.00    -0.020 A 
ATOM     25  C   LIG    1        1.192   3.536   0.010  0.00  0.00    +0.180 A 
ATOM     26  O   LIG    1       -2.364   3.996   0.046  0.00  0.00    -0.480 OA
ATOM     27  N   LIG    1        1.157   2.156   0.003  0.00  0.00    -0.620 N 
ATOM     28  H   LIG    1        1.987   1.653  -0.008  0.00  0.00    +0.420 HD
ENDBRANCH  16  17
ENDBRANCH   2  16
TORSDOF 5
