REMARK  Name = ZINCpe00000gMVxO.2
REMARK                            x       y       z     vdW  Elec       q    Type
REMARK                         _______ _______ _______ _____ _____    ______ ____
ROOT
ATOM      1  C   LIG    1        2.275   4.028   0.039  0.00  0.00    +0.100 C 
ATOM      2  C   LIG    1        1.030   3.179  -0.009  0.00  0.00    +0.190 A 
ATOM      3  C   LIG    1        1.134   1.820  -0.052  0.00  0.00    -0.340 A 
ATOM      4  C   LIG    1       -0.045   1.048  -0.096  0.00  0.00    +0.500 A 
ATOM      5  N   LIG    1       -1.236   1.685  -0.099  0.00  0.00    -0.610 NA
ATOM      6  C   LIG    1       -1.275   3.046  -0.049  0.00  0.00    +0.380 A 
ATOM      7  O   LIG    1        0.010  -0.170  -0.136  0.00  0.00    -0.620 OA
ATOM      8  N   LIG    1       -0.170   3.758  -0.008  0.00  0.00    -0.610 NA
ENDROOT
BRANCH   6   9
ATOM      9  C   LIG    1       -2.584   3.735  -0.048  0.00  0.00    +0.200 A 
ATOM     10  C   LIG    1       -2.632   5.128  -0.003  0.00  0.00    +0.020 A 
ATOM     11  C   LIG    1       -3.865   5.759  -0.002  0.00  0.00    +0.040 A 
ATOM     12  C   LIG    1       -5.009   4.976  -0.046  0.00  0.00    -0.050 A 
ATOM     13  C   LIG    1       -4.887   3.597  -0.089  0.00  0.00    +0.240 A 
ATOM     14  N   LIG    1       -3.704   3.023  -0.094  0.00  0.00    -0.440 NA
ENDBRANCH   6   9
BRANCH   3  15
ATOM     15  C   LIG    1        2.487   1.155  -0.054  0.00  0.00    +0.130 C 
BRANCH  15  16
ATOM     16  C   LIG    1        2.861   0.775   1.355  0.00  0.00    +0.520 C 
ATOM     17  N   LIG    1        4.037   0.162   1.598  0.00  0.00    -0.750 N 
ATOM     18  H   LIG    1        4.642  -0.034   0.866  0.00  0.00    +0.400 HD
ATOM     19  O   LIG    1        2.104   1.020   2.271  0.00  0.00    -0.510 OA
BRANCH  17  20
ATOM     20  C   LIG    1        4.401  -0.207   2.968  0.00  0.00    +0.270 C 
BRANCH  20  21
ATOM     21  C   LIG    1        5.717  -0.987   2.954  0.00  0.00    +0.160 C 
ATOM     22  C   LIG    1        6.863  -0.074   2.471  0.00  0.00    +0.080 C 
ATOM     23  C   LIG    1        8.054  -0.503   3.369  0.00  0.00    +0.080 C 
ATOM     24  C   LIG    1        7.340  -0.810   4.709  0.00  0.00    +0.250 C 
ATOM     25  N   LIG    1        6.053  -1.431   4.319  0.00  0.00    -0.380 N 
ATOM     26  C   LIG    1        4.997  -1.009   5.249  0.00  0.00    +0.320 C 
ATOM     27  H   LIG    1        6.138  -2.436   4.338  0.00  0.00    +0.430 HD
ENDBRANCH  20  21
ENDBRANCH  17  20
ENDBRANCH  15  16
ENDBRANCH   3  15
TORSDOF 5
