REMARK  Name = ZINCpe00000gMVxO.1
REMARK                            x       y       z     vdW  Elec       q    Type
REMARK                         _______ _______ _______ _____ _____    ______ ____
ROOT
ATOM      1  C   LIG    1       -2.281   2.041  -4.218  0.00  0.00    +0.090 C 
ATOM      2  C   LIG    1       -3.157   2.504  -3.082  0.00  0.00    +0.190 A 
ATOM      3  C   LIG    1       -2.967   2.003  -1.829  0.00  0.00    -0.340 A 
ATOM      4  C   LIG    1       -3.803   2.449  -0.784  0.00  0.00    +0.500 A 
ATOM      5  N   LIG    1       -4.755   3.365  -1.063  0.00  0.00    -0.610 NA
ATOM      6  C   LIG    1       -4.896   3.827  -2.337  0.00  0.00    +0.380 A 
ATOM      7  O   LIG    1       -3.666   2.018   0.349  0.00  0.00    -0.630 OA
ATOM      8  N   LIG    1       -4.115   3.402  -3.306  0.00  0.00    -0.610 NA
ENDROOT
BRANCH   6   9
ATOM      9  C   LIG    1       -5.946   4.826  -2.635  0.00  0.00    +0.200 A 
ATOM     10  C   LIG    1       -6.096   5.304  -3.936  0.00  0.00    +0.020 A 
ATOM     11  C   LIG    1       -7.084   6.239  -4.199  0.00  0.00    +0.040 A 
ATOM     12  C   LIG    1       -7.888   6.664  -3.154  0.00  0.00    -0.050 A 
ATOM     13  C   LIG    1       -7.684   6.146  -1.885  0.00  0.00    +0.240 A 
ATOM     14  N   LIG    1       -6.742   5.255  -1.663  0.00  0.00    -0.440 NA
ENDBRANCH   6   9
BRANCH   3  15
ATOM     15  C   LIG    1       -1.887   0.986  -1.565  0.00  0.00    +0.130 C 
BRANCH  15  16
ATOM     16  C   LIG    1       -0.645   1.687  -1.079  0.00  0.00    +0.520 C 
ATOM     17  N   LIG    1        0.458   0.973  -0.777  0.00  0.00    -0.770 N 
ATOM     18  H   LIG    1        0.452   0.008  -0.874  0.00  0.00    +0.390 HD
ATOM     19  O   LIG    1       -0.637   2.894  -0.958  0.00  0.00    -0.500 OA
BRANCH  17  20
ATOM     20  C   LIG    1        1.667   1.655  -0.311  0.00  0.00    +0.300 C 
BRANCH  20  21
ATOM     21  C   LIG    1        2.712   0.616   0.103  0.00  0.00    +0.170 C 
ATOM     22  C   LIG    1        3.981   1.315   0.649  0.00  0.00    +0.090 C 
ATOM     23  C   LIG    1        4.585   0.205   1.552  0.00  0.00    +0.070 C 
ATOM     24  C   LIG    1        3.336  -0.484   2.139  0.00  0.00    +0.250 C 
ATOM     25  N   LIG    1        2.210  -0.197   1.232  0.00  0.00    -0.390 N 
ATOM     26  C   LIG    1        1.653  -1.458   0.724  0.00  0.00    +0.320 C 
ATOM     27  H   LIG    1        1.496   0.315   1.728  0.00  0.00    +0.430 HD
ENDBRANCH  20  21
ENDBRANCH  17  20
ENDBRANCH  15  16
ENDBRANCH   3  15
TORSDOF 5
