REMARK  Name = ZINCqH0000006LJB.0
REMARK                            x       y       z     vdW  Elec       q    Type
REMARK                         _______ _______ _______ _____ _____    ______ ____
ROOT
ATOM      1  C   LIG    1        2.423  -0.243   0.079  0.00  0.00    +0.510 C 
ATOM      2  N   LIG    1        2.403   1.101  -0.015  0.00  0.00    -0.670 N 
ATOM      3  H   LIG    1        3.234   1.595  -0.088  0.00  0.00    +0.420 HD
ATOM      4  O   LIG    1        1.383  -0.867   0.085  0.00  0.00    -0.510 OA
ENDROOT
BRANCH   2   5
ATOM      5  C   LIG    1        1.180   1.785  -0.008  0.00  0.00    +0.150 A 
ATOM      6  C   LIG    1        1.084   3.028   0.603  0.00  0.00    +0.000 A 
ATOM      7  C   LIG    1       -0.123   3.701   0.616  0.00  0.00    +0.060 A 
ATOM      8  C   LIG    1       -1.237   3.143   0.012  0.00  0.00    +0.020 A 
ATOM      9  O   LIG    1       -2.519   3.596  -0.115  0.00  0.00    -0.300 OA
ATOM     10  C   LIG    1       -3.305   2.437  -0.451  0.00  0.00    +0.260 C 
ATOM     11  O   LIG    1       -2.367   1.568  -1.112  0.00  0.00    -0.300 OA
ATOM     12  C   LIG    1       -4.447   2.818  -1.395  0.00  0.00    +0.110 C 
ATOM     13  C   LIG    1       -3.853   1.774   0.814  0.00  0.00    +0.070 C 
ATOM     14  C   LIG    1       -1.144   1.895  -0.602  0.00  0.00    +0.050 A 
ATOM     15  C   LIG    1        0.064   1.219  -0.610  0.00  0.00    +0.040 A 
ENDBRANCH   2   5
BRANCH   1  16
ATOM     16  C   LIG    1        3.739  -0.972   0.175  0.00  0.00    +0.070 C 
BRANCH  16  17
ATOM     17  C   LIG    1        3.483  -2.477   0.271  0.00  0.00    +0.110 C 
BRANCH  17  20
ATOM     18  C   LIG    1        6.570  -4.128   1.697  0.00  0.00    +0.170 A 
ATOM     19  C   LIG    1        5.359  -3.457   1.605  0.00  0.00    -0.050 A 
ATOM     20  C   LIG    1        4.798  -3.206   0.367  0.00  0.00    -0.010 A 
ATOM     21  C   LIG    1        5.439  -3.627  -0.782  0.00  0.00    -0.050 A 
ATOM     22  C   LIG    1        6.654  -4.294  -0.696  0.00  0.00    +0.170 A 
ATOM     23  C   LIG    1        7.218  -4.547   0.545  0.00  0.00    -0.170 A 
BRANCH  18  25
ATOM     24  C   LIG    1        8.368  -5.071   2.933  0.00  0.00    +0.250 C 
ATOM     25  O   LIG    1        7.120  -4.375   2.914  0.00  0.00    -0.310 OA
ENDBRANCH  18  25
BRANCH  22  26
ATOM     26  O   LIG    1        7.287  -4.703  -1.827  0.00  0.00    -0.310 OA
ATOM     27  C   LIG    1        8.530  -5.388  -1.663  0.00  0.00    +0.250 C 
ENDBRANCH  22  26
ENDBRANCH  17  20
ENDBRANCH  16  17
ENDBRANCH   1  16
TORSDOF 6
