REMARK  Name = ZINCqH0000007zF5.0
REMARK                            x       y       z     vdW  Elec       q    Type
REMARK                         _______ _______ _______ _____ _____    ______ ____
ROOT
ATOM      1  C   LIG    1       -4.041   5.401  -0.337  0.00  0.00    +0.570 C 
ATOM      2  N   LIG    1       -5.017   4.519  -0.629  0.00  0.00    -0.670 N 
ATOM      3  H   LIG    1       -4.833   3.567  -0.608  0.00  0.00    +0.410 HD
ATOM      4  O   LIG    1       -4.293   6.589  -0.279  0.00  0.00    -0.500 OA
ENDROOT
BRANCH   1  10
ATOM      5  C   LIG    1        1.602   2.432   0.479  0.00  0.00    +0.160 A 
ATOM      6  C   LIG    1        1.245   3.750   0.654  0.00  0.00    +0.000 A 
ATOM      7  C   LIG    1       -0.076   4.151   0.404  0.00  0.00    +0.190 A 
ATOM      8  N   LIG    1       -0.446   5.428   0.567  0.00  0.00    -0.480 NA
ATOM      9  C   LIG    1       -1.672   5.823   0.340  0.00  0.00    +0.230 A 
ATOM     10  C   LIG    1       -2.666   4.925  -0.088  0.00  0.00    -0.210 A 
ATOM     11  C   LIG    1       -2.343   3.585  -0.277  0.00  0.00    +0.140 A 
ATOM     12  C   LIG    1       -2.028   7.273   0.542  0.00  0.00    +0.140 C 
ATOM     13  C   LIG    1       -1.021   3.184  -0.026  0.00  0.00    -0.150 A 
ATOM     14  C   LIG    1       -0.623   1.847  -0.201  0.00  0.00    +0.100 A 
ATOM     15  C   LIG    1        0.663   1.485   0.054  0.00  0.00    -0.050 A 
BRANCH   5  17
ATOM     16  C   LIG    1        3.190   0.664   0.521  0.00  0.00    +0.250 C 
ATOM     17  O   LIG    1        2.881   2.045   0.721  0.00  0.00    -0.310 OA
ENDBRANCH   5  17
ENDBRANCH   1  10
BRANCH   2  18
ATOM     18  C   LIG    1       -6.298   4.976  -0.963  0.00  0.00    +0.110 A 
ATOM     19  C   LIG    1       -7.415   4.230  -0.613  0.00  0.00    +0.030 A 
ATOM     20  C   LIG    1       -8.678   4.685  -0.938  0.00  0.00    -0.050 A 
ATOM     21  C   LIG    1       -8.830   5.881  -1.624  0.00  0.00    +0.120 A 
ATOM     22  C   LIG    1       -7.714   6.625  -1.979  0.00  0.00    +0.020 A 
ATOM     23  C   LIG    1       -6.451   6.174  -1.650  0.00  0.00    +0.070 A 
BRANCH  21  24
ATOM     24  O   LIG    1      -10.073   6.325  -1.949  0.00  0.00    -0.310 OA
BRANCH  24  25
ATOM     25  C   LIG    1      -11.178   5.509  -1.552  0.00  0.00    +0.380 C 
BRANCH  25  26
ATOM     26  C   LIG    1      -12.435   6.141  -1.985  0.00  0.00    +0.210 C 
ATOM     27  N   LIG    1      -13.405   6.629  -2.319  0.00  0.00    -0.390 NA
ENDBRANCH  25  26
ENDBRANCH  24  25
ENDBRANCH  21  24
ENDBRANCH   2  18
TORSDOF 6
