REMARK  Name = ZINCnE000005tmFG.0
REMARK                            x       y       z     vdW  Elec       q    Type
REMARK                         _______ _______ _______ _____ _____    ______ ____
ROOT
ATOM      1  S   LIG    1       -0.015   1.448   0.001  0.00  0.00    +2.640 S 
ATOM      2  O   LIG    1        1.351   1.710   0.294  0.00  0.00    -1.010 OA
ATOM      3  O   LIG    1       -0.494   0.168  -0.387  0.00  0.00    -1.010 OA
ENDROOT
BRANCH   1   4
ATOM      4  C   LIG    1       -0.928   1.908   1.436  0.00  0.00    -0.620 A 
ATOM      5  C   LIG    1       -2.078   1.218   1.774  0.00  0.00    +0.030 A 
ATOM      6  C   LIG    1       -2.792   1.575   2.901  0.00  0.00    +0.000 A 
ATOM      7  C   LIG    1       -2.363   2.630   3.686  0.00  0.00    -0.040 A 
ATOM      8  C   LIG    1       -1.216   3.324   3.345  0.00  0.00    +0.000 A 
ATOM      9 BR   LIG    1       -3.344   3.123   5.226  0.00  0.00    -0.060 Br
ATOM     10  C   LIG    1       -2.548   0.072   0.915  0.00  0.00    +0.120 C 
ATOM     11  C   LIG    1       -0.499   2.962   2.220  0.00  0.00    +0.040 A 
ATOM     12  C   LIG    1        0.751   3.717   1.848  0.00  0.00    +0.120 C 
ENDBRANCH   1   4
BRANCH   1  14
ATOM     13  C   LIG    1        0.111   2.373  -2.432  0.00  0.00    +0.530 C 
ATOM     14  N   LIG    1       -0.443   2.494  -1.209  0.00  0.00    -1.120 NA
ATOM     15  O   LIG    1        0.922   1.497  -2.646  0.00  0.00    -0.620 OA
BRANCH  13  16
ATOM     16  C   LIG    1       -0.279   3.325  -3.533  0.00  0.00    +0.100 C 
BRANCH  16  21
ATOM     17  C   LIG    1        2.618   1.988  -8.351  0.00  0.00    +0.070 C 
ATOM     18  C   LIG    1        1.862   2.336  -7.095  0.00  0.00    -0.110 A 
ATOM     19  C   LIG    1        0.632   1.757  -6.845  0.00  0.00    +0.000 A 
ATOM     20  C   LIG    1       -0.061   2.077  -5.692  0.00  0.00    +0.010 A 
ATOM     21  C   LIG    1        0.476   2.976  -4.790  0.00  0.00    -0.050 A 
ATOM     22  C   LIG    1        1.704   3.559  -5.042  0.00  0.00    +0.010 A 
ATOM     23  C   LIG    1        2.400   3.235  -6.192  0.00  0.00    +0.000 A 
ENDBRANCH  16  21
ENDBRANCH  13  16
ENDBRANCH   1  14
TORSDOF 4
