REMARK  Name = ZINCqH00000022Eq.0
REMARK                            x       y       z     vdW  Elec       q    Type
REMARK                         _______ _______ _______ _____ _____    ______ ____
ROOT
ATOM      1  C   LIG    1        3.837   1.938  -1.286  0.00  0.00    +0.050 C 
ATOM      2  C   LIG    1        3.551   1.462   0.139  0.00  0.00    +0.190 C 
ATOM      3  C   LIG    1        4.659   0.498   0.602  0.00  0.00    -0.020 C 
ATOM      4  C   LIG    1        3.938  -0.845   0.865  0.00  0.00    +0.060 C 
ATOM      5  C   LIG    1        2.648  -0.714   0.023  0.00  0.00    +0.260 C 
ATOM      6  C   LIG    1        3.474   2.661   1.087  0.00  0.00    +0.040 C 
ATOM      7  N   LIG    1        2.282   0.713   0.174  0.00  0.00    -0.630 N 
ATOM      8  C   LIG    1        1.042   1.222   0.319  0.00  0.00    +0.730 C 
ATOM      9  N   LIG    1       -0.026   0.400   0.331  0.00  0.00    -0.740 N 
ATOM     10  H   LIG    1        0.097  -0.557   0.235  0.00  0.00    +0.390 HD
ATOM     11  O   LIG    1        0.888   2.422   0.439  0.00  0.00    -0.580 OA
ENDROOT
BRANCH   3  12
ATOM     12  C   LIG    1        5.311   1.014   1.886  0.00  0.00    +0.460 C 
ATOM     13  F   LIG    1        5.937   2.239   1.632  0.00  0.00    -0.170 F 
ATOM     14  F   LIG    1        6.261   0.089   2.332  0.00  0.00    -0.180 F 
ATOM     15  F   LIG    1        4.331   1.187   2.870  0.00  0.00    -0.170 F 
ENDBRANCH   3  12
BRANCH   9  16
ATOM     16  C   LIG    1       -1.374   0.954   0.482  0.00  0.00    +0.370 C 
BRANCH  16  17
ATOM     17  C   LIG    1       -2.383  -0.165   0.458  0.00  0.00    -0.250 A 
ATOM     18  C   LIG    1       -3.002  -0.655  -0.642  0.00  0.00    +0.260 A 
ATOM     19  N   LIG    1       -3.826  -1.650  -0.241  0.00  0.00    -0.320 N 
ATOM     20  N   LIG    1       -3.714  -1.767   1.150  0.00  0.00    -0.290 NA
ATOM     21  C   LIG    1       -2.849  -0.878   1.568  0.00  0.00    +0.270 A 
BRANCH  19  22
ATOM     22  C   LIG    1       -4.650  -2.423  -1.071  0.00  0.00    +0.150 A 
ATOM     23  C   LIG    1       -4.667  -2.196  -2.441  0.00  0.00    -0.010 A 
ATOM     24  C   LIG    1       -5.476  -2.962  -3.256  0.00  0.00    +0.040 A 
ATOM     25  C   LIG    1       -6.276  -3.948  -2.709  0.00  0.00    +0.000 A 
ATOM     26  C   LIG    1       -6.265  -4.173  -1.345  0.00  0.00    +0.040 A 
ATOM     27  C   LIG    1       -5.454  -3.413  -0.524  0.00  0.00    +0.020 A 
ENDBRANCH  19  22
ENDBRANCH  16  17
ENDBRANCH   9  16
TORSDOF 4
