REMARK  Name = ZINCpk00000Saslp.0
REMARK                            x       y       z     vdW  Elec       q    Type
REMARK                         _______ _______ _______ _____ _____    ______ ____
ROOT
ATOM      1  N   LIG    1        0.002  -0.004   0.002  0.00  0.00    -0.470 N 
ATOM      2  C   LIG    1        0.774  -0.514  -1.138  0.00  0.00    +0.210 C 
ATOM      3  C   LIG    1        0.887  -2.038  -1.038  0.00  0.00    -0.060 C 
ATOM      4  C   LIG    1        1.561  -2.404   0.288  0.00  0.00    +0.220 C 
ATOM      5  O   LIG    1        0.773  -1.906   1.372  0.00  0.00    -0.350 OA
ATOM      6  C   LIG    1       -0.552  -2.438   1.428  0.00  0.00    +0.240 C 
ATOM      7  C   LIG    1       -1.300  -2.074   0.141  0.00  0.00    -0.080 C 
ATOM      8  C   LIG    1       -0.524  -2.640  -1.056  0.00  0.00    +0.170 C 
ATOM      9  C   LIG    1       -1.361  -0.549   0.012  0.00  0.00    +0.220 C 
ENDROOT
BRANCH   1  13
ATOM     10  C   LIG    1       -0.054   4.152   0.024  0.00  0.00    -0.170 A 
ATOM     11  C   LIG    1        1.165   3.468   0.009  0.00  0.00    +0.120 A 
ATOM     12  C   LIG    1        1.180   2.097   0.002  0.00  0.00    -0.030 A 
ATOM     13  C   LIG    1       -0.017   1.386   0.010  0.00  0.00    +0.160 A 
ATOM     14  C   LIG    1       -1.233   2.064   0.019  0.00  0.00    -0.060 A 
ATOM     15  C   LIG    1       -1.255   3.435   0.032  0.00  0.00    +0.110 A 
BRANCH  10  16
ATOM     16  C   LIG    1       -0.074   5.626   0.030  0.00  0.00    +0.520 C 
ATOM     17  O   LIG    1        0.970   6.248   0.023  0.00  0.00    -0.510 OA
BRANCH  16  18
ATOM     18  O   LIG    1       -1.250   6.284   0.044  0.00  0.00    -0.350 OA
BRANCH  18  20
ATOM     19  C   LIG    1       -0.466   8.222  -1.204  0.00  0.00    +0.030 C 
ATOM     20  C   LIG    1       -1.194   7.734   0.050  0.00  0.00    +0.120 C 
ATOM     21  C   LIG    1       -0.442   8.211   1.294  0.00  0.00    +0.030 C 
ATOM     22  C   LIG    1       -2.616   8.300   0.067  0.00  0.00    +0.080 C 
ENDBRANCH  18  20
ENDBRANCH  16  18
ENDBRANCH  10  16
ENDBRANCH   1  13
BRANCH   8  23
ATOM     23  O   LIG    1       -1.186  -2.284  -2.271  0.00  0.00    -0.560 OA
ATOM     24  H   LIG    1       -0.747  -2.611  -3.068  0.00  0.00    +0.380 HD
ENDBRANCH   8  23
BRANCH   7  25
ATOM     25  C   LIG    1       -2.716  -2.653   0.165  0.00  0.00    +0.200 C 
BRANCH  25  26
ATOM     26  O   LIG    1       -3.432  -2.115   1.279  0.00  0.00    -0.570 OA
ATOM     27  H   LIG    1       -4.340  -2.438   1.357  0.00  0.00    +0.380 HD
ENDBRANCH  25  26
ENDBRANCH   7  25
TORSDOF 7
