REMARK  Name = ZINCpk00000k40hN.0
REMARK                            x       y       z     vdW  Elec       q    Type
REMARK                         _______ _______ _______ _____ _____    ______ ____
ROOT
ATOM      1  C   LIG    1        6.581   1.273   2.138  0.00  0.00    +0.230 C 
ATOM      2  C   LIG    1        5.271   1.707   2.798  0.00  0.00    +0.030 C 
ATOM      3  C   LIG    1        4.783   0.591   3.735  0.00  0.00    +0.140 C 
ATOM      4  C   LIG    1        4.872  -0.709   2.970  0.00  0.00    +0.050 A 
ATOM      5  N   LIG    1        4.326  -1.854   3.258  0.00  0.00    -0.270 NA
ATOM      6  N   LIG    1        4.680  -2.773   2.259  0.00  0.00    -0.480 N 
ATOM      7  H   LIG    1        4.412  -3.704   2.219  0.00  0.00    +0.450 HD
ATOM      8  C   LIG    1        5.467  -2.126   1.355  0.00  0.00    +0.250 A 
ATOM      9  C   LIG    1        5.602  -0.849   1.774  0.00  0.00    -0.060 A 
ATOM     10  N   LIG    1        6.327   0.196   1.169  0.00  0.00    -0.430 N 
ENDROOT
BRANCH   1  11
ATOM     11  C   LIG    1        7.196   2.450   1.426  0.00  0.00    +0.460 C 
ATOM     12  O   LIG    1        7.693   2.304   0.334  0.00  0.00    -0.490 OA
BRANCH  11  14
ATOM     13  C   LIG    1        7.803   4.749   1.262  0.00  0.00    +0.260 C 
ATOM     14  O   LIG    1        7.193   3.661   2.005  0.00  0.00    -0.350 OA
ENDBRANCH  11  14
ENDBRANCH   1  11
BRANCH  10  15
ATOM     15  C   LIG    1        5.624   0.708  -0.015  0.00  0.00    +0.250 C 
BRANCH  15  16
ATOM     16  C   LIG    1        5.337  -0.431  -0.960  0.00  0.00    -0.140 A 
ATOM     17  C   LIG    1        4.101  -1.062  -0.943  0.00  0.00    +0.110 A 
ATOM     18  C   LIG    1        3.880  -2.103  -1.828  0.00  0.00    -0.040 A 
ATOM     19  C   LIG    1        4.896  -2.479  -2.697  0.00  0.00    +0.350 A 
ATOM     20  N   LIG    1        6.063  -1.856  -2.680  0.00  0.00    -0.500 NA
ATOM     21  C   LIG    1        6.302  -0.857  -1.853  0.00  0.00    +0.330 A 
BRANCH  19  22
ATOM     22  N   LIG    1        4.685  -3.530  -3.596  0.00  0.00    -0.410 N 
ATOM     23  C   LIG    1        5.585  -4.014  -4.511  0.00  0.00    +0.160 A 
ATOM     24  C   LIG    1        4.972  -5.016  -5.168  0.00  0.00    +0.150 A 
ATOM     25  N   LIG    1        3.735  -5.150  -4.668  0.00  0.00    -0.480 NA
ATOM     26  C   LIG    1        3.549  -4.264  -3.728  0.00  0.00    +0.400 A 
ENDBRANCH  19  22
ENDBRANCH  15  16
ENDBRANCH  10  15
TORSDOF 5
