REMARK  Name = ZINCpk00000k40hN.1
REMARK                            x       y       z     vdW  Elec       q    Type
REMARK                         _______ _______ _______ _____ _____    ______ ____
ROOT
ATOM      1  C   LIG    1       -0.272   1.099  -0.048  0.00  0.00    +0.230 C 
ATOM      2  C   LIG    1        1.186   1.235  -0.497  0.00  0.00    +0.030 C 
ATOM      3  C   LIG    1        2.084   0.465   0.484  0.00  0.00    +0.130 C 
ATOM      4  C   LIG    1        1.651   0.836   1.881  0.00  0.00    +0.050 A 
ATOM      5  C   LIG    1        0.477   1.460   2.169  0.00  0.00    -0.060 A 
ATOM      6  C   LIG    1        0.420   1.643   3.554  0.00  0.00    +0.250 A 
ATOM      7  N   LIG    1        1.514   1.148   4.080  0.00  0.00    -0.280 NA
ATOM      8  N   LIG    1        2.309   0.632   3.045  0.00  0.00    -0.460 N 
ATOM      9  H   LIG    1        3.174   0.205   3.146  0.00  0.00    +0.440 HD
ATOM     10  N   LIG    1       -0.481   1.836   1.208  0.00  0.00    -0.430 N 
ENDROOT
BRANCH   1  11
ATOM     11  C   LIG    1       -1.179   1.660  -1.112  0.00  0.00    +0.470 C 
ATOM     12  O   LIG    1       -2.142   2.319  -0.800  0.00  0.00    -0.480 OA
BRANCH  11  14
ATOM     13  C   LIG    1       -1.832   2.000  -3.379  0.00  0.00    +0.280 C 
ATOM     14  O   LIG    1       -0.916   1.428  -2.408  0.00  0.00    -0.360 OA
ENDBRANCH  11  14
ENDBRANCH   1  11
BRANCH  10  15
ATOM     15  C   LIG    1       -0.454   3.286   0.977  0.00  0.00    +0.240 C 
BRANCH  15  16
ATOM     16  C   LIG    1       -1.063   3.994   2.159  0.00  0.00    -0.130 A 
ATOM     17  C   LIG    1       -2.423   4.266   2.190  0.00  0.00    +0.130 A 
ATOM     18  C   LIG    1       -2.943   4.913   3.298  0.00  0.00    -0.040 A 
ATOM     19  C   LIG    1       -2.088   5.277   4.331  0.00  0.00    +0.350 A 
ATOM     20  N   LIG    1       -0.795   5.005   4.263  0.00  0.00    -0.500 NA
ATOM     21  C   LIG    1       -0.272   4.385   3.223  0.00  0.00    +0.310 A 
BRANCH  19  22
ATOM     22  N   LIG    1       -2.599   5.937   5.453  0.00  0.00    -0.410 N 
ATOM     23  C   LIG    1       -1.885   6.357   6.547  0.00  0.00    +0.160 A 
ATOM     24  C   LIG    1       -2.763   6.941   7.384  0.00  0.00    +0.150 A 
ATOM     25  N   LIG    1       -3.980   6.882   6.823  0.00  0.00    -0.480 NA
ATOM     26  C   LIG    1       -3.894   6.288   5.664  0.00  0.00    +0.400 A 
ENDBRANCH  19  22
ENDBRANCH  15  16
ENDBRANCH  10  15
TORSDOF 5
