REMARK  Name = ZINCvU00000005vx.0
REMARK                            x       y       z     vdW  Elec       q    Type
REMARK                         _______ _______ _______ _____ _____    ______ ____
ROOT
ATOM      1  C   LIG    1        2.430   1.443  -0.094  0.00  0.00    +0.590 C 
ATOM      2  N   LIG    1        2.336   0.123   0.540  0.00  0.00    -0.740 N 
ATOM      3  H   LIG    1        3.040  -0.198   1.125  0.00  0.00    +0.420 HD
ATOM      4  C   LIG    1        1.215  -0.659   0.283  0.00  0.00    +0.240 A 
ATOM      5  C   LIG    1        1.268  -2.041   0.291  0.00  0.00    -0.050 A 
ATOM      6  C   LIG    1        0.126  -2.771   0.018  0.00  0.00    +0.080 A 
ATOM      7  C   LIG    1       -1.069  -2.130  -0.264  0.00  0.00    -0.040 A 
ATOM      8  C   LIG    1       -1.140  -0.751  -0.274  0.00  0.00    +0.110 A 
ATOM      9  C   LIG    1        0.002  -0.004   0.002  0.00  0.00    -0.200 A 
ATOM     10  C   LIG    1       -0.018   1.470   0.010  0.00  0.00    +0.580 C 
ATOM     11  O   LIG    1       -1.075   2.071   0.018  0.00  0.00    -0.520 OA
ATOM     12  N   LIG    1        1.150   2.145   0.003  0.00  0.00    -0.610 N 
ENDROOT
BRANCH   1  19
ATOM     13  C   LIG    1        4.178  -0.903  -1.311  0.00  0.00    +0.180 C 
ATOM     14  C   LIG    1        3.570   0.239  -2.084  0.00  0.00    +0.120 A 
ATOM     15  N   LIG    1        3.671   0.432  -3.375  0.00  0.00    -0.260 NA
ATOM     16  N   LIG    1        2.973   1.602  -3.699  0.00  0.00    -0.310 N 
ATOM     17  C   LIG    1        2.446   2.102  -2.559  0.00  0.00    +0.150 A 
ATOM     18 CL   LIG    1        1.490   3.544  -2.418  0.00  0.00    +0.020 Cl
ATOM     19  C   LIG    1        2.799   1.275  -1.545  0.00  0.00    -0.240 A 
BRANCH  16  20
ATOM     20  C   LIG    1        2.845   2.158  -4.981  0.00  0.00    +0.130 A 
ATOM     21  C   LIG    1        1.667   2.793  -5.348  0.00  0.00    +0.040 A 
ATOM     22  C   LIG    1        1.544   3.344  -6.609  0.00  0.00    +0.020 A 
ATOM     23  C   LIG    1        2.592   3.254  -7.510  0.00  0.00    +0.110 A 
ATOM     24  C   LIG    1        3.766   2.617  -7.147  0.00  0.00    +0.020 A 
ATOM     25  F   LIG    1        2.468   3.789  -8.744  0.00  0.00    -0.130 F 
ATOM     26  C   LIG    1        3.895   2.069  -5.885  0.00  0.00    +0.080 A 
ENDBRANCH  16  20
ENDBRANCH   1  19
BRANCH  12  27
ATOM     27  C   LIG    1        1.137   3.607   0.093  0.00  0.00    +0.410 C 
BRANCH  27  28
ATOM     28  C   LIG    1        1.191   4.022   1.540  0.00  0.00    -0.040 A 
ATOM     29  C   LIG    1        2.310   4.251   2.252  0.00  0.00    -0.050 A 
ATOM     30  C   LIG    1        1.899   4.614   3.555  0.00  0.00    -0.070 A 
ATOM     31  C   LIG    1        0.555   4.584   3.563  0.00  0.00    +0.170 A 
ATOM     32  O   LIG    1        0.131   4.230   2.338  0.00  0.00    -0.160 OA
ENDBRANCH  27  28
ENDBRANCH  12  27
TORSDOF 4
