REMARK  Name = ZINCrD000000fBMG.0
REMARK                            x       y       z     vdW  Elec       q    Type
REMARK                         _______ _______ _______ _____ _____    ______ ____
ROOT
ATOM      1  C   LIG    1        3.143   0.006   2.818  0.00  0.00    -0.140 A 
ATOM      2  C   LIG    1        3.497   0.826   3.877  0.00  0.00    +0.110 A 
ATOM      3  C   LIG    1        4.823   0.834   4.332  0.00  0.00    -0.090 A 
ATOM      4  C   LIG    1        5.218   1.655   5.404  0.00  0.00    +0.040 A 
ATOM      5  C   LIG    1        6.513   1.641   5.822  0.00  0.00    +0.010 A 
ATOM      6  C   LIG    1        7.457   0.824   5.203  0.00  0.00    +0.040 A 
ATOM      7  C   LIG    1        7.112   0.016   4.163  0.00  0.00    +0.010 A 
ATOM      8  C   LIG    1        5.785   0.002   3.702  0.00  0.00    +0.000 A 
ATOM      9  C   LIG    1        5.400  -0.821   2.630  0.00  0.00    -0.060 A 
ATOM     10  C   LIG    1        4.105  -0.822   2.203  0.00  0.00    +0.160 A 
ENDROOT
BRANCH   1  12
ATOM     11  N   LIG    1        0.944   1.049   2.570  0.00  0.00    -0.620 N 
ATOM     12  C   LIG    1        1.748  -0.007   2.336  0.00  0.00    +0.560 C 
ATOM     13  O   LIG    1        1.325  -0.971   1.727  0.00  0.00    -0.510 OA
ATOM     14  C   LIG    1        1.484   2.256   3.199  0.00  0.00    +0.290 C 
BRANCH  11  15
ATOM     15  C   LIG    1       -0.471   0.989   2.195  0.00  0.00    +0.310 C 
BRANCH  15  21
ATOM     16  C   LIG    1       -1.026   0.821  -3.969  0.00  0.00    +0.090 C 
ATOM     17  C   LIG    1       -0.180   0.545  -2.753  0.00  0.00    +0.520 C 
ATOM     18  N   LIG    1       -0.675   0.776  -1.521  0.00  0.00    -0.620 N 
ATOM     19  C   LIG    1       -2.018   1.296  -1.221  0.00  0.00    +0.240 C 
ATOM     20  C   LIG    1       -2.127   1.422   0.313  0.00  0.00    +0.050 C 
ATOM     21  C   LIG    1       -0.642   1.502   0.764  0.00  0.00    -0.030 C 
ATOM     22  C   LIG    1        0.040   0.551  -0.252  0.00  0.00    +0.270 C 
ATOM     23  O   LIG    1        0.946   0.114  -2.883  0.00  0.00    -0.540 OA
ENDBRANCH  15  21
ENDBRANCH  11  15
ENDBRANCH   1  12
BRANCH  10  24
ATOM     24  O   LIG    1        3.740  -1.623   1.170  0.00  0.00    -0.290 OA
BRANCH  24  25
ATOM     25  C   LIG    1        4.760  -2.438   0.588  0.00  0.00    +0.600 C 
ATOM     26  F   LIG    1        5.285  -3.294   1.562  0.00  0.00    -0.200 F 
ATOM     27  F   LIG    1        5.780  -1.621   0.088  0.00  0.00    -0.200 F 
ENDBRANCH  24  25
ENDBRANCH  10  24
TORSDOF 5
