REMARK  Name = ZINCqH0000002JTT.0
REMARK                            x       y       z     vdW  Elec       q    Type
REMARK                         _______ _______ _______ _____ _____    ______ ____
ROOT
ATOM      1  N   LIG    1       -0.469   1.278   1.448  0.00  0.00    -0.520 N 
ATOM      2  C   LIG    1       -0.010   2.394   2.069  0.00  0.00    +0.600 A 
ATOM      3  N   LIG    1       -0.634   2.922   3.080  0.00  0.00    -0.500 NA
ATOM      4  C   LIG    1       -1.766   2.382   3.576  0.00  0.00    +0.070 A 
ATOM      5  C   LIG    1       -2.295   1.231   2.993  0.00  0.00    -0.220 A 
ATOM      6  C   LIG    1       -3.470   0.793   3.620  0.00  0.00    -0.020 A 
ATOM      7  C   LIG    1       -3.882   1.535   4.651  0.00  0.00    -0.170 A 
ATOM      8  C   LIG    1       -4.218  -0.431   3.160  0.00  0.00    +0.120 C 
ATOM      9  S   LIG    1       -2.788   2.881   4.918  0.00  0.00    +0.230 S 
ATOM     10  C   LIG    1       -1.593   0.671   1.877  0.00  0.00    +0.570 A 
ATOM     11  O   LIG    1       -2.006  -0.334   1.325  0.00  0.00    -0.510 OA
ENDROOT
BRANCH   7  12
ATOM     12  C   LIG    1       -5.091   1.260   5.455  0.00  0.00    -0.020 A 
ATOM     13  C   LIG    1       -5.997   2.286   5.732  0.00  0.00    +0.010 A 
ATOM     14  C   LIG    1       -7.126   2.021   6.478  0.00  0.00    +0.010 A 
ATOM     15  C   LIG    1       -7.357   0.745   6.962  0.00  0.00    +0.020 A 
ATOM     16  C   LIG    1       -6.460  -0.274   6.696  0.00  0.00    +0.010 A 
ATOM     17  C   LIG    1       -5.329  -0.025   5.946  0.00  0.00    +0.030 A 
ENDBRANCH   7  12
BRANCH   1  18
ATOM     18  C   LIG    1        0.266   0.725   0.308  0.00  0.00    +0.330 C 
BRANCH  18  21
ATOM     19  N   LIG    1        0.280   0.976  -2.153  0.00  0.00    -0.720 N 
ATOM     20  H   LIG    1        0.995   0.322  -2.184  0.00  0.00    +0.400 HD
ATOM     21  C   LIG    1       -0.252   1.337  -0.968  0.00  0.00    +0.500 C 
ATOM     22  O   LIG    1       -1.147   2.154  -0.929  0.00  0.00    -0.520 OA
BRANCH  19  23
ATOM     23  C   LIG    1       -0.224   1.571  -3.394  0.00  0.00    +0.230 C 
ATOM     24  C   LIG    1       -1.450   0.791  -3.872  0.00  0.00    +0.020 C 
BRANCH  23  25
ATOM     25  C   LIG    1        0.867   1.514  -4.465  0.00  0.00    +0.020 C 
BRANCH  25  27
ATOM     26  C   LIG    1        3.134   2.340  -5.114  0.00  0.00    +0.010 C 
ATOM     27  C   LIG    1        2.044   2.396  -4.042  0.00  0.00    +0.000 C 
ENDBRANCH  25  27
ENDBRANCH  23  25
ENDBRANCH  19  23
ENDBRANCH  18  21
ENDBRANCH   1  18
TORSDOF 6
