REMARK  Name = ZINCrH000004oEtA.0
REMARK                            x       y       z     vdW  Elec       q    Type
REMARK                         _______ _______ _______ _____ _____    ______ ____
ROOT
ATOM      1  C   LIG    1        1.641   7.578   0.009  0.00  0.00    -0.040 A 
ATOM      2  C   LIG    1        1.449   7.676  -1.356  0.00  0.00    +0.020 A 
ATOM      3  C   LIG    1        0.425   8.460  -1.855  0.00  0.00    +0.120 A 
ATOM      4  C   LIG    1       -0.401   9.152  -0.989  0.00  0.00    -0.670 A 
ATOM      5  C   LIG    1       -0.205   9.058   0.376  0.00  0.00    +0.120 A 
ATOM      6  C   LIG    1        0.816   8.271   0.875  0.00  0.00    +0.020 A 
ENDROOT
BRANCH   4   7
ATOM      7  S   LIG    1       -1.702  10.155  -1.625  0.00  0.00    +2.690 S 
ATOM      8  O   LIG    1       -2.665  10.269  -0.587  0.00  0.00    -0.950 OA
ATOM      9  O   LIG    1       -2.008   9.645  -2.916  0.00  0.00    -0.950 OA
BRANCH   7  10
ATOM     10  N   LIG    1       -1.083  11.673  -1.857  0.00  0.00    -1.000 NA
ATOM     11  C   LIG    1       -1.141  12.677  -0.786  0.00  0.00    +0.290 C 
ATOM     12  C   LIG    1        0.277  13.217  -0.546  0.00  0.00    +0.010 C 
ATOM     13  C   LIG    1        0.848  13.740  -1.866  0.00  0.00    +0.020 C 
ATOM     14  C   LIG    1        0.935  12.593  -2.876  0.00  0.00    +0.010 C 
ATOM     15  C   LIG    1       -0.470  12.043  -3.140  0.00  0.00    +0.290 C 
ENDBRANCH   7  10
ENDBRANCH   4   7
BRANCH   1  16
ATOM     16  C   LIG    1        2.754   6.720   0.553  0.00  0.00    +0.260 C 
BRANCH  16  20
ATOM     17  C   LIG    1        1.702   3.287   0.564  0.00  0.00    +0.180 A 
ATOM     18  N   LIG    1        1.389   3.685   1.760  0.00  0.00    -0.380 NA
ATOM     19  O   LIG    1        1.691   4.851   1.908  0.00  0.00    +0.080 OA
ATOM     20  C   LIG    1        2.243   5.321   0.785  0.00  0.00    +0.180 A 
ATOM     21  N   LIG    1        2.259   4.331  -0.075  0.00  0.00    -0.470 NA
BRANCH  17  26
ATOM     22  C   LIG    1       -1.301  -0.560   0.580  0.00  0.00    +0.030 C 
ATOM     23  C   LIG    1        0.002  -0.004   0.002  0.00  0.00    -0.020 C 
ATOM     24  C   LIG    1        1.195  -0.371   0.908  0.00  0.00    +0.020 C 
ATOM     25  C   LIG    1        2.139   0.844   0.906  0.00  0.00    +0.020 C 
ATOM     26  C   LIG    1        1.487   1.907  -0.002  0.00  0.00    +0.100 C 
ATOM     27  C   LIG    1       -0.019   1.545   0.011  0.00  0.00    +0.030 C 
ENDBRANCH  17  26
ENDBRANCH  16  20
ENDBRANCH   1  16
TORSDOF 5
