REMARK  Name = ZINCtV000002MeX5.0
REMARK                            x       y       z     vdW  Elec       q    Type
REMARK                         _______ _______ _______ _____ _____    ______ ____
ROOT
ATOM      1  C   LIG    1       -0.127   0.254  -0.551  0.00  0.00    +0.200 A 
ATOM      2  N   LIG    1        1.035  -0.134  -0.112  0.00  0.00    -0.460 NA
ATOM      3  C   LIG    1        1.757   0.953   0.234  0.00  0.00    +0.050 A 
ATOM      4  C   LIG    1        0.969   2.058  -0.018  0.00  0.00    +0.010 A 
ATOM      5  O   LIG    1       -0.201   1.591  -0.507  0.00  0.00    -0.190 OA
ENDROOT
BRANCH   4   6
ATOM      6  C   LIG    1        1.333   3.471   0.204  0.00  0.00    -0.020 A 
ATOM      7  C   LIG    1        2.638   3.906  -0.038  0.00  0.00    +0.050 A 
ATOM      8  C   LIG    1        2.970   5.229   0.167  0.00  0.00    +0.010 A 
ATOM      9  C   LIG    1        2.016   6.122   0.621  0.00  0.00    +0.030 A 
ATOM     10  C   LIG    1        0.723   5.697   0.868  0.00  0.00    +0.010 A 
ATOM     11  C   LIG    1        0.375   4.378   0.663  0.00  0.00    +0.040 A 
ENDBRANCH   4   6
BRANCH   3  12
ATOM     12  C   LIG    1        3.134   0.959   0.780  0.00  0.00    -0.020 A 
ATOM     13  C   LIG    1        4.050  -0.015   0.380  0.00  0.00    +0.040 A 
ATOM     14  C   LIG    1        5.332  -0.001   0.889  0.00  0.00    +0.010 A 
ATOM     15  C   LIG    1        5.708   0.969   1.800  0.00  0.00    +0.020 A 
ATOM     16  C   LIG    1        4.803   1.934   2.204  0.00  0.00    +0.010 A 
ATOM     17  C   LIG    1        3.519   1.934   1.699  0.00  0.00    +0.030 A 
ENDBRANCH   3  12
BRANCH   1  18
ATOM     18  C   LIG    1       -1.222  -0.660  -1.035  0.00  0.00    +0.220 C 
BRANCH  18  19
ATOM     19  C   LIG    1       -2.123  -1.044   0.140  0.00  0.00    +0.080 C 
BRANCH  19  21
ATOM     20  O   LIG    1       -3.273  -2.273  -1.514  0.00  0.00    -0.510 OA
ATOM     21  C   LIG    1       -3.219  -1.958  -0.344  0.00  0.00    +0.520 C 
ATOM     22  N   LIG    1       -4.138  -2.427   0.523  0.00  0.00    -0.670 N 
ATOM     23  H   LIG    1       -4.125  -2.136   1.448  0.00  0.00    +0.410 HD
BRANCH  22  24
ATOM     24  C   LIG    1       -5.111  -3.334   0.089  0.00  0.00    +0.180 A 
ATOM     25  C   LIG    1       -5.527  -3.326  -1.236  0.00  0.00    +0.030 A 
ATOM     26  C   LIG    1       -6.488  -4.223  -1.661  0.00  0.00    +0.050 A 
ATOM     27  C   LIG    1       -7.036  -5.128  -0.770  0.00  0.00    +0.000 A 
ATOM     28  C   LIG    1       -6.624  -5.138   0.550  0.00  0.00    +0.060 A 
ATOM     29  C   LIG    1       -5.659  -4.248   0.981  0.00  0.00    -0.130 A 
ATOM     30  I   LIG    1       -5.029  -4.270   2.979  0.00  0.00    -0.040 I 
ENDBRANCH  22  24
ENDBRANCH  19  21
ENDBRANCH  18  19
ENDBRANCH   1  18
TORSDOF 6
