REMARK  Name = ZINCpk00000eaUTF.0
REMARK                            x       y       z     vdW  Elec       q    Type
REMARK                         _______ _______ _______ _____ _____    ______ ____
ROOT
ATOM      1  S   LIG    1       -0.115   5.438   1.014  0.00  0.00    +2.700 S 
ATOM      2  O   LIG    1        1.163   5.710   1.573  0.00  0.00    -0.940 OA
ATOM      3  O   LIG    1       -1.327   5.585   1.740  0.00  0.00    -0.950 OA
ENDROOT
BRANCH   1   9
ATOM      4  C   LIG    1       -2.474   0.924  -0.160  0.00  0.00    +0.100 C 
ATOM      5  C   LIG    1       -1.200   1.724  -0.068  0.00  0.00    -0.110 A 
ATOM      6  C   LIG    1        0.005   1.147  -0.422  0.00  0.00    +0.080 A 
ATOM      7  C   LIG    1        1.175   1.879  -0.333  0.00  0.00    -0.110 A 
ATOM      8  C   LIG    1        1.137   3.191   0.100  0.00  0.00    +0.020 A 
ATOM      9  C   LIG    1       -0.068   3.768   0.455  0.00  0.00    -0.680 A 
ATOM     10  C   LIG    1        2.411   3.991   0.193  0.00  0.00    +0.120 C 
ATOM     11  C   LIG    1        2.490   1.248  -0.713  0.00  0.00    +0.090 C 
ATOM     12  C   LIG    1       -1.236   3.035   0.370  0.00  0.00    +0.020 A 
ATOM     13  C   LIG    1       -2.550   3.663   0.757  0.00  0.00    +0.110 C 
ENDBRANCH   1   9
BRANCH   1  14
ATOM     14  N   LIG    1       -0.254   6.401  -0.326  0.00  0.00    -1.110 NA
ATOM     15  H   LIG    1        0.464   7.009  -0.563  0.00  0.00    +0.430 HD
BRANCH  14  16
ATOM     16  C   LIG    1       -1.460   6.333  -1.155  0.00  0.00    +0.380 C 
BRANCH  16  17
ATOM     17  C   LIG    1       -1.509   7.530  -2.069  0.00  0.00    +0.460 C 
ATOM     18  O   LIG    1       -0.627   8.355  -2.032  0.00  0.00    -0.480 OA
BRANCH  17  19
ATOM     19  O   LIG    1       -2.533   7.680  -2.924  0.00  0.00    -0.330 OA
BRANCH  19  20
ATOM     20  C   LIG    1       -2.515   8.857  -3.774  0.00  0.00    +0.160 C 
ATOM     21  C   LIG    1       -3.257   8.575  -5.099  0.00  0.00    +0.070 C 
ATOM     22  C   LIG    1       -4.140   9.834  -5.253  0.00  0.00    +0.190 C 
ATOM     23  O   LIG    1       -4.351  10.299  -3.887  0.00  0.00    -0.330 OA
ATOM     24  C   LIG    1       -5.475   9.475  -5.908  0.00  0.00    +0.090 C 
ATOM     25  C   LIG    1       -3.289   9.986  -3.127  0.00  0.00    +0.470 C 
ATOM     26  O   LIG    1       -2.995  10.521  -2.085  0.00  0.00    -0.420 OA
ENDBRANCH  19  20
ENDBRANCH  17  19
ENDBRANCH  16  17
ENDBRANCH  14  16
ENDBRANCH   1  14
TORSDOF 6
