REMARK  Name = ZINCvU0000000EJ9.0
REMARK                            x       y       z     vdW  Elec       q    Type
REMARK                         _______ _______ _______ _____ _____    ______ ____
ROOT
ATOM      1  C   LIG    1        1.031  10.354  -2.911  0.00  0.00    +0.130 A 
ATOM      2  C   LIG    1        0.281   9.314  -3.353  0.00  0.00    -0.150 A 
ATOM      3  C   LIG    1        0.821   8.922  -4.654  0.00  0.00    -0.100 A 
ATOM      4  C   LIG    1        0.479   7.940  -5.588  0.00  0.00    +0.050 A 
ATOM      5  C   LIG    1        1.198   7.823  -6.744  0.00  0.00    -0.030 A 
ATOM      6  C   LIG    1        2.267   8.671  -6.998  0.00  0.00    +0.030 A 
ATOM      7  C   LIG    1        2.622   9.647  -6.092  0.00  0.00    -0.010 A 
ATOM      8  C   LIG    1        1.904   9.785  -4.909  0.00  0.00    +0.100 A 
ATOM      9  N   LIG    1        2.011  10.641  -3.834  0.00  0.00    -0.590 N 
ATOM     10  H   LIG    1        2.675  11.342  -3.743  0.00  0.00    +0.420 HD
ENDROOT
BRANCH   1  14
ATOM     11  C   LIG    1        0.451  12.407   0.764  0.00  0.00    +0.140 A 
ATOM     12  C   LIG    1        1.731  12.036   0.372  0.00  0.00    -0.020 A 
ATOM     13  C   LIG    1        1.923  11.370  -0.819  0.00  0.00    +0.060 A 
ATOM     14  C   LIG    1        0.830  11.068  -1.632  0.00  0.00    -0.080 A 
ATOM     15  C   LIG    1       -0.455  11.447  -1.238  0.00  0.00    +0.090 A 
ATOM     16  C   LIG    1       -0.639  12.109  -0.042  0.00  0.00    -0.070 A 
BRANCH  11  18
ATOM     17  C   LIG    1       -1.076  13.416   2.280  0.00  0.00    +0.240 C 
ATOM     18  O   LIG    1        0.266  13.064   1.939  0.00  0.00    -0.320 OA
ENDBRANCH  11  18
ENDBRANCH   1  14
BRANCH   2  19
ATOM     19  C   LIG    1       -0.889   8.687  -2.642  0.00  0.00    +0.130 C 
BRANCH  19  20
ATOM     20  C   LIG    1       -0.393   7.546  -1.750  0.00  0.00    +0.050 C 
BRANCH  20  21
ATOM     21  C   LIG    1       -1.564   6.919  -1.039  0.00  0.00    +0.520 C 
ATOM     22  N   LIG    1       -1.365   5.887  -0.195  0.00  0.00    -0.620 N 
ATOM     23  C   LIG    1       -2.488   5.253   0.516  0.00  0.00    +0.280 C 
ATOM     24  C   LIG    1       -2.596   3.808   0.029  0.00  0.00    +0.070 C 
ATOM     25  C   LIG    1       -1.246   3.140   0.029  0.00  0.00    -0.070 A 
ATOM     26  C   LIG    1       -1.216   1.751   0.017  0.00  0.00    +0.000 A 
ATOM     27  C   LIG    1       -0.013   1.076   0.008  0.00  0.00    +0.000 A 
ATOM     28  C   LIG    1        1.174   1.785   0.000  0.00  0.00    +0.000 A 
ATOM     29  C   LIG    1        1.146   3.165   0.012  0.00  0.00    +0.010 A 
ATOM     30  C   LIG    1       -0.063   3.845   0.028  0.00  0.00    -0.100 A 
ATOM     31  C   LIG    1       -0.022   5.352   0.054  0.00  0.00    +0.330 C 
ATOM     32  O   LIG    1       -2.685   7.342  -1.226  0.00  0.00    -0.540 OA
ENDBRANCH  20  21
ENDBRANCH  19  20
ENDBRANCH   2  19
TORSDOF 5
