REMARK  Name = ZINCpe00000MJJbF.0
REMARK                            x       y       z     vdW  Elec       q    Type
REMARK                         _______ _______ _______ _____ _____    ______ ____
ROOT
ATOM      1  C   LIG    1       -1.836   3.941   2.236  0.00  0.00    +0.310 C 
ATOM      2  C   LIG    1       -0.745   3.444   1.261  0.00  0.00    +0.160 C 
ATOM      3  C   LIG    1        0.539   4.014   1.908  0.00  0.00    +0.070 C 
ATOM      4  C   LIG    1        0.178   4.175   3.369  0.00  0.00    +0.530 C 
ATOM      5  O   LIG    1        0.977   4.327   4.268  0.00  0.00    -0.530 OA
ATOM      6  N   LIG    1       -1.156   4.124   3.524  0.00  0.00    -0.610 N 
ATOM      7  C   LIG    1       -1.843   4.238   4.813  0.00  0.00    +0.300 C 
ENDROOT
BRANCH   1  10
ATOM      8  C   LIG    1       -4.138   4.290   0.147  0.00  0.00    +0.130 C 
ATOM      9  C   LIG    1       -3.403   5.401   0.853  0.00  0.00    +0.100 A 
ATOM     10  C   LIG    1       -2.407   5.250   1.757  0.00  0.00    -0.260 A 
ATOM     11  C   LIG    1       -1.998   6.524   2.163  0.00  0.00    +0.250 A 
ATOM     12  N   LIG    1       -2.726   7.408   1.530  0.00  0.00    -0.290 NA
ATOM     13  N   LIG    1       -3.622   6.723   0.699  0.00  0.00    -0.370 N 
ATOM     14  C   LIG    1       -4.618   7.335  -0.184  0.00  0.00    +0.360 C 
ENDBRANCH   1  10
BRANCH   2  15
ATOM     15  N   LIG    1       -0.706   1.976   1.219  0.00  0.00    -0.670 NA
ATOM     16  H   LIG    1       -1.635   1.588   1.282  0.00  0.00    +0.350 HD
BRANCH  15  17
ATOM     17  C   LIG    1       -0.018   1.503   0.010  0.00  0.00    +0.300 C 
BRANCH  17  18
ATOM     18  C   LIG    1        0.002  -0.004   0.002  0.00  0.00    +0.080 A 
ATOM     19  C   LIG    1       -0.891  -0.800  -0.623  0.00  0.00    +0.100 A 
ATOM     20  N   LIG    1       -0.514  -2.094  -0.383  0.00  0.00    -0.400 N 
ATOM     21  C   LIG    1       -1.038  -3.296  -0.760  0.00  0.00    +0.290 A 
ATOM     22  C   LIG    1       -0.426  -4.437  -0.357  0.00  0.00    -0.030 A 
ATOM     23  C   LIG    1        0.728  -4.354   0.436  0.00  0.00    +0.350 A 
ATOM     24  N   LIG    1        1.211  -3.185   0.784  0.00  0.00    -0.430 NA
ATOM     25  C   LIG    1        0.616  -2.049   0.393  0.00  0.00    +0.380 A 
ATOM     26  N   LIG    1        0.911  -0.775   0.607  0.00  0.00    -0.450 NA
ENDBRANCH  17  18
ENDBRANCH  15  17
ENDBRANCH   2  15
TORSDOF 4
