REMARK  Name = ZINCpe00000MJLc4.0
REMARK                            x       y       z     vdW  Elec       q    Type
REMARK                         _______ _______ _______ _____ _____    ______ ____
ROOT
ATOM      1  N   LIG    1        2.067   1.400   1.067  0.00  0.00    -0.520 NA
ATOM      2  C   LIG    1        1.325   1.853   2.253  0.00  0.00    +0.160 C 
ATOM      3  C   LIG    1       -0.163   1.540   2.067  0.00  0.00    +0.230 C 
ATOM      4  O   LIG    1       -0.629   2.162   0.867  0.00  0.00    -0.380 OA
ATOM      5  C   LIG    1        0.072   1.743  -0.308  0.00  0.00    +0.170 C 
ATOM      6  C   LIG    1        1.561   2.058  -0.146  0.00  0.00    +0.170 C 
ENDROOT
BRANCH   1   7
ATOM      7  C   LIG    1        3.509   1.631   1.229  0.00  0.00    +0.220 C 
BRANCH   7  10
ATOM      8  C   LIG    1        6.306   1.975   0.931  0.00  0.00    +0.280 C 
ATOM      9  N   LIG    1        5.586   1.114  -0.011  0.00  0.00    -0.620 N 
ATOM     10  C   LIG    1        4.256   0.940   0.117  0.00  0.00    +0.510 C 
ATOM     11  O   LIG    1        3.660   0.227  -0.662  0.00  0.00    -0.510 OA
BRANCH   9  12
ATOM     12  C   LIG    1        6.312   0.443  -1.091  0.00  0.00    +0.400 C 
BRANCH  12  13
ATOM     13  C   LIG    1        6.333   1.330  -2.309  0.00  0.00    -0.030 A 
ATOM     14  C   LIG    1        7.276   2.245  -2.600  0.00  0.00    -0.050 A 
ATOM     15  C   LIG    1        6.903   2.842  -3.826  0.00  0.00    -0.070 A 
ATOM     16  C   LIG    1        5.755   2.256  -4.211  0.00  0.00    +0.170 A 
ATOM     17  O   LIG    1        5.417   1.337  -3.292  0.00  0.00    -0.160 OA
ENDBRANCH  12  13
ENDBRANCH   9  12
ENDBRANCH   7  10
ENDBRANCH   1   7
BRANCH   5  18
ATOM     18  C   LIG    1       -0.479   2.489  -1.525  0.00  0.00    +0.290 C 
BRANCH  18  19
ATOM     19  N   LIG    1       -1.905   2.189  -1.678  0.00  0.00    -0.710 N 
ATOM     20  H   LIG    1       -2.345   1.595  -1.050  0.00  0.00    +0.410 HD
BRANCH  19  21
ATOM     21  C   LIG    1       -2.627   2.756  -2.722  0.00  0.00    +0.340 A 
ATOM     22  C   LIG    1       -1.998   3.616  -3.623  0.00  0.00    -0.050 A 
ATOM     23  C   LIG    1       -2.760   4.151  -4.649  0.00  0.00    +0.070 A 
ATOM     24  C   LIG    1       -4.104   3.807  -4.711  0.00  0.00    +0.150 A 
ATOM     25  N   LIG    1       -4.618   2.990  -3.813  0.00  0.00    -0.200 NA
ATOM     26  N   LIG    1       -3.916   2.487  -2.863  0.00  0.00    -0.310 NA
ENDBRANCH  19  21
ENDBRANCH  18  19
ENDBRANCH   5  18
TORSDOF 7
