REMARK  Name = ZINCtV000002H08r.0
REMARK                            x       y       z     vdW  Elec       q    Type
REMARK                         _______ _______ _______ _____ _____    ______ ____
ROOT
ATOM      1  C   LIG    1        0.226   1.555   0.463  0.00  0.00    -0.020 A 
ATOM      2  C   LIG    1        1.308   2.311   0.642  0.00  0.00    -0.040 A 
ATOM      3  S   LIG    1        0.946   4.009   0.400  0.00  0.00    +0.170 S 
ATOM      4  C   LIG    1       -0.742   3.673   0.043  0.00  0.00    +0.120 A 
ATOM      5  N   LIG    1       -1.756   4.492  -0.267  0.00  0.00    -0.540 NA
ATOM      6  C   LIG    1       -2.959   4.022  -0.501  0.00  0.00    +0.550 A 
ATOM      7  N   LIG    1       -3.233   2.731  -0.443  0.00  0.00    -0.570 NA
ATOM      8  C   LIG    1       -2.294   1.845  -0.144  0.00  0.00    +0.500 A 
ATOM      9  C   LIG    1       -0.977   2.299   0.110  0.00  0.00    -0.230 A 
ENDROOT
BRANCH   1  14
ATOM     10  C   LIG    1        0.300  -4.176   1.014  0.00  0.00    +0.090 C 
ATOM     11  C   LIG    1        0.281  -2.676   0.870  0.00  0.00    -0.080 A 
ATOM     12  C   LIG    1        1.120  -2.060  -0.042  0.00  0.00    +0.010 A 
ATOM     13  C   LIG    1        1.107  -0.687  -0.178  0.00  0.00    +0.030 A 
ATOM     14  C   LIG    1        0.245   0.080   0.605  0.00  0.00    -0.050 A 
ATOM     15  C   LIG    1       -0.594  -0.545   1.526  0.00  0.00    +0.030 A 
ATOM     16  C   LIG    1       -0.576  -1.919   1.650  0.00  0.00    +0.020 A 
ENDBRANCH   1  14
BRANCH   8  17
ATOM     17  N   LIG    1       -2.595   0.495  -0.087  0.00  0.00    -0.690 N 
ATOM     18  H   LIG    1       -1.887  -0.154   0.043  0.00  0.00    +0.420 HD
BRANCH  17  19
ATOM     19  C   LIG    1       -3.983   0.048  -0.225  0.00  0.00    +0.300 C 
BRANCH  19  20
ATOM     20  C   LIG    1       -4.656   0.043   1.150  0.00  0.00    +0.170 C 
BRANCH  20  21
ATOM     21  C   LIG    1       -4.718   1.450   1.684  0.00  0.00    -0.050 A 
ATOM     22  C   LIG    1       -3.727   1.914   2.528  0.00  0.00    +0.050 A 
ATOM     23  C   LIG    1       -3.784   3.205   3.018  0.00  0.00    +0.000 A 
ATOM     24  C   LIG    1       -4.833   4.033   2.665  0.00  0.00    +0.020 A 
ATOM     25  C   LIG    1       -5.826   3.571   1.821  0.00  0.00    +0.020 A 
ATOM     26  C   LIG    1       -5.766   2.281   1.325  0.00  0.00    -0.010 A 
ATOM     27 CL   LIG    1       -7.007   1.701   0.259  0.00  0.00    -0.070 Cl
ENDBRANCH  20  21
BRANCH  20  28
ATOM     28  N   LIG    1       -3.879  -0.797   2.071  0.00  0.00    -0.530 NA
ATOM     29  C   LIG    1       -3.651  -2.132   1.503  0.00  0.00    +0.190 C 
ATOM     30  C   LIG    1       -4.537  -0.888   3.382  0.00  0.00    +0.190 C 
ENDBRANCH  20  28
ENDBRANCH  19  20
ENDBRANCH  17  19
ENDBRANCH   8  17
TORSDOF 6
