REMARK  Name = ZINCrg00000avU6y.0
REMARK                            x       y       z     vdW  Elec       q    Type
REMARK                         _______ _______ _______ _____ _____    ______ ____
ROOT
ATOM      1  C   LIG    1       -0.044   1.013  -0.044  0.00  0.00    +0.230 C 
ATOM      2  C   LIG    1       -0.808   1.417   1.219  0.00  0.00    +0.040 C 
ENDROOT
BRANCH   1   4
ATOM      3  C   LIG    1        2.299   1.014   0.627  0.00  0.00    +0.600 C 
ATOM      4  N   LIG    1        1.288   1.623  -0.024  0.00  0.00    -0.720 N 
ATOM      5  H   LIG    1        1.442   2.465  -0.480  0.00  0.00    +0.390 HD
ATOM      6  O   LIG    1        2.105  -0.042   1.198  0.00  0.00    -0.530 OA
BRANCH   3  12
ATOM      7  C   LIG    1        4.789   1.110   1.283  0.00  0.00    +0.140 A 
ATOM      8  N   LIG    1        5.774   1.939   1.072  0.00  0.00    -0.300 NA
ATOM      9  N   LIG    1        5.309   3.010   0.302  0.00  0.00    -0.360 N 
ATOM     10  C   LIG    1        4.007   2.812   0.040  0.00  0.00    +0.280 A 
ATOM     11  C   LIG    1        6.108   4.152  -0.148  0.00  0.00    +0.350 C 
ATOM     12  C   LIG    1        3.639   1.627   0.646  0.00  0.00    -0.290 A 
BRANCH   7  14
ATOM     13  C   LIG    1        5.234  -1.325   1.131  0.00  0.00    +0.030 C 
ATOM     14  C   LIG    1        4.865  -0.174   2.069  0.00  0.00    +0.130 C 
ENDBRANCH   7  14
ENDBRANCH   3  12
ENDBRANCH   1   4
BRANCH   1  15
ATOM     15  C   LIG    1       -0.808   1.494  -1.279  0.00  0.00    +0.300 C 
BRANCH  15  16
ATOM     16  N   LIG    1       -0.019   1.213  -2.481  0.00  0.00    -0.600 N 
ATOM     17  C   LIG    1       -0.168   0.039  -3.125  0.00  0.00    +0.610 C 
ATOM     18  O   LIG    1       -0.903  -0.816  -2.669  0.00  0.00    -0.530 OA
ATOM     19  C   LIG    1        0.931   2.208  -2.983  0.00  0.00    +0.300 C 
BRANCH  17  20
ATOM     20  C   LIG    1        0.561  -0.210  -4.383  0.00  0.00    -0.110 A 
ATOM     21  C   LIG    1        0.415  -1.305  -5.187  0.00  0.00    +0.130 A 
ATOM     22  N   LIG    1        1.257  -1.140  -6.228  0.00  0.00    -0.360 N 
ATOM     23  N   LIG    1        1.919   0.079  -6.024  0.00  0.00    -0.070 NA
ATOM     24  N   LIG    1        1.484   0.599  -4.930  0.00  0.00    -0.200 NA
BRANCH  22  25
ATOM     25  C   LIG    1        1.447  -2.060  -7.351  0.00  0.00    +0.320 C 
ATOM     26  C   LIG    1        2.549  -3.065  -7.007  0.00  0.00    +0.060 C 
ENDBRANCH  22  25
BRANCH  21  27
ATOM     27  C   LIG    1       -0.510  -2.471  -4.957  0.00  0.00    +0.130 C 
ATOM     28  C   LIG    1        0.214  -3.545  -4.143  0.00  0.00    +0.050 C 
ENDBRANCH  21  27
ENDBRANCH  17  20
ENDBRANCH  15  16
ENDBRANCH   1  15
TORSDOF 8
