REMARK  Name = ZINCqH0000004B63.0
REMARK                            x       y       z     vdW  Elec       q    Type
REMARK                         _______ _______ _______ _____ _____    ______ ____
ROOT
ATOM      1  N   LIG    1        4.056  -2.847  -7.281  0.00  0.00    -0.620 N 
ATOM      2  H   LIG    1        4.911  -2.846  -6.824  0.00  0.00    +0.430 HD
ATOM      3  C   LIG    1        3.983  -3.225  -8.573  0.00  0.00    +0.510 C 
ATOM      4  O   LIG    1        2.914  -3.226  -9.146  0.00  0.00    -0.500 OA
ENDROOT
BRANCH   1   8
ATOM      5  C   LIG    1        1.662  -1.742  -4.886  0.00  0.00    +0.160 A 
ATOM      6  C   LIG    1        0.642  -1.847  -5.758  0.00  0.00    -0.110 A 
ATOM      7  S   LIG    1        1.288  -2.409  -7.298  0.00  0.00    +0.220 S 
ATOM      8  C   LIG    1        2.905  -2.459  -6.606  0.00  0.00    +0.270 A 
ATOM      9  N   LIG    1        2.858  -2.078  -5.367  0.00  0.00    -0.490 NA
BRANCH   5  13
ATOM     10  C   LIG    1        0.707  -0.490  -1.238  0.00  0.00    -0.170 A 
ATOM     11  C   LIG    1        2.018  -0.728  -1.333  0.00  0.00    +0.000 A 
ATOM     12  C   LIG    1        2.445  -1.169  -2.570  0.00  0.00    +0.060 A 
ATOM     13  C   LIG    1        1.468  -1.290  -3.491  0.00  0.00    -0.130 A 
ATOM     14  S   LIG    1       -0.073  -0.837  -2.775  0.00  0.00    +0.130 S 
BRANCH  10  16
ATOM     15  C   LIG    1       -0.019   1.526   0.010  0.00  0.00    +0.030 C 
ATOM     16  C   LIG    1        0.002  -0.004   0.002  0.00  0.00    +0.100 C 
ENDBRANCH  10  16
ENDBRANCH   5  13
ENDBRANCH   1   8
BRANCH   3  17
ATOM     17  C   LIG    1        5.231  -3.646  -9.306  0.00  0.00    +0.330 C 
BRANCH  17  18
ATOM     18  N   LIG    1        4.889  -4.006 -10.684  0.00  0.00    -0.730 N 
ATOM     19  H   LIG    1        3.969  -3.950 -10.987  0.00  0.00    +0.410 HD
ATOM     20  C   LIG    1        5.853  -4.417 -11.532  0.00  0.00    +0.520 C 
ATOM     21  O   LIG    1        7.003  -4.487 -11.155  0.00  0.00    -0.520 OA
BRANCH  20  22
ATOM     22  C   LIG    1        5.502  -4.787 -12.950  0.00  0.00    +0.120 C 
BRANCH  22  23
ATOM     23  C   LIG    1        6.749  -5.208 -13.683  0.00  0.00    -0.070 A 
ATOM     24  C   LIG    1        7.500  -4.269 -14.366  0.00  0.00    +0.010 A 
ATOM     25  C   LIG    1        8.647  -4.655 -15.034  0.00  0.00    +0.000 A 
ATOM     26  C   LIG    1        9.037  -5.981 -15.029  0.00  0.00    +0.000 A 
ATOM     27  C   LIG    1        8.284  -6.921 -14.351  0.00  0.00    +0.000 A 
ATOM     28  C   LIG    1        7.140  -6.534 -13.678  0.00  0.00    +0.010 A 
ENDBRANCH  22  23
ENDBRANCH  20  22
ENDBRANCH  17  18
ENDBRANCH   3  17
TORSDOF 7
