REMARK  Name = ZINCrD0000070WJd.0
REMARK                            x       y       z     vdW  Elec       q    Type
REMARK                         _______ _______ _______ _____ _____    ______ ____
ROOT
ATOM      1  C   LIG    1       -3.675   1.500   0.062  0.00  0.00    +0.510 C 
ATOM      2  O   LIG    1       -3.854   2.701   0.067  0.00  0.00    -0.490 OA
ENDROOT
BRANCH   1   5
ATOM      3  C   LIG    1       -7.209   0.224   0.048  0.00  0.00    +0.110 A 
ATOM      4  C   LIG    1       -6.130   1.091   0.054  0.00  0.00    +0.130 A 
ATOM      5  C   LIG    1       -4.830   0.581   0.055  0.00  0.00    -0.110 A 
ATOM      6  C   LIG    1       -4.626  -0.801   0.044  0.00  0.00    +0.110 A 
ATOM      7  C   LIG    1       -5.706  -1.658   0.044  0.00  0.00    +0.010 A 
ATOM      8  C   LIG    1       -6.996  -1.153   0.042  0.00  0.00    +0.110 A 
ATOM      9  F   LIG    1       -8.050  -1.997   0.036  0.00  0.00    -0.130 F 
BRANCH   3  12
ATOM     10  C   LIG    1      -10.139   2.558  -0.326  0.00  0.00    +0.120 C 
ATOM     11  C   LIG    1       -8.759   1.964  -0.438  0.00  0.00    +0.510 C 
ATOM     12  N   LIG    1       -8.515   0.730   0.047  0.00  0.00    -0.670 N 
ATOM     13  H   LIG    1       -9.244   0.193   0.396  0.00  0.00    +0.420 HD
ATOM     14  O   LIG    1       -7.868   2.596  -0.965  0.00  0.00    -0.520 OA
ENDBRANCH   3  12
ENDBRANCH   1   5
BRANCH   1  15
ATOM     15  O   LIG    1       -2.421   1.006   0.064  0.00  0.00    -0.330 OA
BRANCH  15  16
ATOM     16  C   LIG    1       -1.334   1.968   0.071  0.00  0.00    +0.260 C 
BRANCH  16  17
ATOM     17  C   LIG    1       -0.016   1.237   0.071  0.00  0.00    +0.530 C 
ATOM     18  N   LIG    1        1.140   1.931   0.071  0.00  0.00    -0.620 N 
ATOM     19  C   LIG    1        1.260   3.400   0.071  0.00  0.00    +0.250 C 
ATOM     20  C   LIG    1        2.656   3.681   0.686  0.00  0.00    +0.040 C 
ATOM     21  C   LIG    1        3.494   2.518   0.095  0.00  0.00    +0.050 C 
ATOM     22  C   LIG    1        2.489   1.347   0.066  0.00  0.00    +0.310 C 
ATOM     23  O   LIG    1        0.005   0.024   0.066  0.00  0.00    -0.500 OA
BRANCH  22  24
ATOM     24  C   LIG    1        2.688   0.527  -1.183  0.00  0.00    -0.180 A 
ATOM     25  C   LIG    1        3.345  -0.632  -1.245  0.00  0.00    +0.020 A 
ATOM     26  C   LIG    1        3.398  -1.205  -2.504  0.00  0.00    +0.010 A 
ATOM     27  C   LIG    1        2.785  -0.511  -3.464  0.00  0.00    -0.050 A 
ATOM     28  S   LIG    1        2.083   0.949  -2.780  0.00  0.00    +0.100 S 
ENDBRANCH  22  24
ENDBRANCH  16  17
ENDBRANCH  15  16
ENDBRANCH   1  15
TORSDOF 6
