REMARK  Name = ZINCrD00000l0igb.0
REMARK                            x       y       z     vdW  Elec       q    Type
REMARK                         _______ _______ _______ _____ _____    ______ ____
ROOT
ATOM      1  C   LIG    1       -0.995  -4.859  -0.510  0.00  0.00    +0.520 C 
ATOM      2  N   LIG    1        0.059  -4.173  -0.022  0.00  0.00    -0.670 N 
ATOM      3  H   LIG    1        0.831  -4.650   0.319  0.00  0.00    +0.410 HD
ATOM      4  O   LIG    1       -1.919  -4.265  -1.024  0.00  0.00    -0.500 OA
ENDROOT
BRANCH   2   5
ATOM      5  C   LIG    1        0.037  -2.773  -0.008  0.00  0.00    +0.110 A 
ATOM      6  C   LIG    1       -1.161  -2.098   0.186  0.00  0.00    +0.060 A 
ATOM      7  C   LIG    1       -1.181  -0.718   0.199  0.00  0.00    +0.010 A 
ATOM      8  C   LIG    1       -0.005  -0.004   0.018  0.00  0.00    +0.120 A 
ATOM      9  C   LIG    1        1.191  -0.677  -0.182  0.00  0.00    -0.060 A 
ATOM     10  C   LIG    1        1.214  -2.058  -0.189  0.00  0.00    +0.030 A 
BRANCH   8  11
ATOM     11  O   LIG    1       -0.026   1.355   0.030  0.00  0.00    -0.310 OA
BRANCH  11  12
ATOM     12  C   LIG    1        1.221   2.025  -0.162  0.00  0.00    +0.240 C 
BRANCH  12  13
ATOM     13  C   LIG    1        1.003   3.515  -0.118  0.00  0.00    -0.100 A 
ATOM     14  C   LIG    1        0.722   4.208  -1.280  0.00  0.00    +0.020 A 
ATOM     15  C   LIG    1        0.517   5.574  -1.239  0.00  0.00    +0.010 A 
ATOM     16  C   LIG    1        0.604   6.250  -0.036  0.00  0.00    +0.020 A 
ATOM     17  C   LIG    1        0.891   5.558   1.126  0.00  0.00    +0.010 A 
ATOM     18  C   LIG    1        1.090   4.191   1.085  0.00  0.00    +0.020 A 
ENDBRANCH  12  13
ENDBRANCH  11  12
ENDBRANCH   8  11
ENDBRANCH   2   5
BRANCH   1  19
ATOM     19  C   LIG    1       -1.024  -6.362  -0.417  0.00  0.00    +0.270 C 
BRANCH  19  20
ATOM     20  O   LIG    1       -2.253  -6.860  -1.008  0.00  0.00    -0.340 OA
BRANCH  20  21
ATOM     21  C   LIG    1       -2.436  -8.197  -1.005  0.00  0.00    +0.540 C 
ATOM     22  O   LIG    1       -1.591  -8.926  -0.522  0.00  0.00    -0.500 OA
BRANCH  21  28
ATOM     23  C   LIG    1       -4.760  -6.614  -2.303  0.00  0.00    +0.330 C 
ATOM     24  N   LIG    1       -4.688  -8.070  -2.163  0.00  0.00    -0.420 N 
ATOM     25  C   LIG    1       -5.626  -8.947  -2.579  0.00  0.00    +0.210 A 
ATOM     26  C   LIG    1       -5.217 -10.204  -2.281  0.00  0.00    -0.060 A 
ATOM     27  C   LIG    1       -3.969 -10.112  -1.657  0.00  0.00    +0.060 A 
ATOM     28  C   LIG    1       -3.653  -8.770  -1.585  0.00  0.00    -0.060 A 
ENDBRANCH  21  28
ENDBRANCH  20  21
ENDBRANCH  19  20
ENDBRANCH   1  19
TORSDOF 8
