REMARK  Name = ZINCrD00000feyrS.0
REMARK                            x       y       z     vdW  Elec       q    Type
REMARK                         _______ _______ _______ _____ _____    ______ ____
ROOT
ATOM      1  C   LIG    1       -2.249  -5.534  -0.005  0.00  0.00    +0.620 C 
ATOM      2  N   LIG    1       -3.597  -5.546   0.008  0.00  0.00    -0.590 N 
ATOM      3  C   LIG    1       -4.465  -4.355   0.029  0.00  0.00    +0.290 C 
ATOM      4  C   LIG    1       -5.808  -4.841  -0.602  0.00  0.00    +0.050 C 
ATOM      5  C   LIG    1       -5.915  -6.273  -0.014  0.00  0.00    +0.030 C 
ATOM      6  C   LIG    1       -5.863  -6.296   1.523  0.00  0.00    +0.050 C 
ATOM      7  C   LIG    1       -4.722  -7.317   1.406  0.00  0.00    +0.070 C 
ATOM      8  C   LIG    1       -4.441  -6.747   0.009  0.00  0.00    +0.230 C 
ATOM      9  O   LIG    1       -1.632  -6.582  -0.017  0.00  0.00    -0.520 OA
ENDROOT
BRANCH   1  15
ATOM     10  C   LIG    1       -0.018   1.503   0.010  0.00  0.00    +0.120 C 
ATOM     11  C   LIG    1        0.002  -0.004   0.002  0.00  0.00    -0.060 A 
ATOM     12  C   LIG    1       -1.164  -0.702   0.015  0.00  0.00    +0.060 A 
ATOM     13  C   LIG    1       -1.125  -2.114   0.002  0.00  0.00    +0.240 A 
ATOM     14  N   LIG    1       -2.083  -3.026   0.006  0.00  0.00    -0.470 NA
ATOM     15  C   LIG    1       -1.523  -4.250  -0.005  0.00  0.00    +0.010 A 
ATOM     16  C   LIG    1       -0.166  -4.097  -0.018  0.00  0.00    +0.190 A 
ATOM     17  N   LIG    1        0.087  -2.758  -0.013  0.00  0.00    -0.370 N 
ATOM     18  C   LIG    1        1.250  -2.041  -0.021  0.00  0.00    +0.230 A 
ATOM     19  C   LIG    1        1.227  -0.693  -0.013  0.00  0.00    +0.030 A 
ENDBRANCH   1  15
BRANCH   8  20
ATOM     20  C   LIG    1       -4.073  -7.758  -1.046  0.00  0.00    +0.180 A 
ATOM     21  N   LIG    1       -4.607  -8.936  -1.205  0.00  0.00    -0.280 NA
ATOM     22  N   LIG    1       -4.050  -9.526  -2.203  0.00  0.00    -0.280 NA
ATOM     23  C   LIG    1       -3.142  -8.745  -2.716  0.00  0.00    +0.170 A 
ATOM     24  O   LIG    1       -3.139  -7.608  -2.000  0.00  0.00    -0.210 OA
BRANCH  23  25
ATOM     25  C   LIG    1       -2.260  -9.057  -3.897  0.00  0.00    +0.100 C 
ATOM     26  C   LIG    1       -3.131  -9.318  -5.128  0.00  0.00    +0.060 C 
ATOM     27  C   LIG    1       -1.421 -10.300  -3.594  0.00  0.00    +0.060 C 
ENDBRANCH  23  25
ENDBRANCH   8  20
TORSDOF 3
