REMARK  Name = ZINCrg000000sZcm.0
REMARK                            x       y       z     vdW  Elec       q    Type
REMARK                         _______ _______ _______ _____ _____    ______ ____
ROOT
ATOM      1  C   LIG    1        6.712  -3.710  -1.348  0.00  0.00    +0.070 A 
ATOM      2  N   LIG    1        5.411  -3.637  -1.198  0.00  0.00    -0.200 NA
ATOM      3  N   LIG    1        4.818  -3.608  -0.064  0.00  0.00    -0.350 N 
ATOM      4  C   LIG    1        5.468  -3.646   1.117  0.00  0.00    +0.520 A 
ATOM      5  C   LIG    1        6.934  -3.734   1.108  0.00  0.00    -0.140 A 
ATOM      6  C   LIG    1        7.696  -3.783   2.271  0.00  0.00    +0.090 A 
ATOM      7  C   LIG    1        9.070  -3.860   2.175  0.00  0.00    +0.030 A 
ATOM      8  C   LIG    1        9.695  -3.889   0.936  0.00  0.00    +0.060 A 
ATOM      9  C   LIG    1        8.957  -3.842  -0.228  0.00  0.00    +0.080 A 
ATOM     10  O   LIG    1        4.853  -3.611   2.167  0.00  0.00    -0.490 OA
ATOM     11  C   LIG    1        7.571  -3.764  -0.155  0.00  0.00    -0.040 A 
ENDROOT
BRANCH   1  15
ATOM     12  N   LIG    1        6.512  -3.687  -3.787  0.00  0.00    -0.830 N 
ATOM     13  H   LIG    1        6.902  -3.705  -4.674  0.00  0.00    +0.410 HD
ATOM     14  H   LIG    1        5.549  -3.633  -3.682  0.00  0.00    +0.410 HD
ATOM     15  C   LIG    1        7.306  -3.738  -2.699  0.00  0.00    +0.600 C 
ATOM     16  O   LIG    1        8.513  -3.805  -2.831  0.00  0.00    -0.520 OA
ENDBRANCH   1  15
BRANCH   3  17
ATOM     17  C   LIG    1        3.356  -3.525  -0.049  0.00  0.00    +0.400 C 
BRANCH  17  18
ATOM     18  C   LIG    1        2.935  -2.078  -0.038  0.00  0.00    +0.520 C 
ATOM     19  N   LIG    1        1.627  -1.756  -0.023  0.00  0.00    -0.620 N 
ATOM     20  H   LIG    1        0.955  -2.457  -0.020  0.00  0.00    +0.440 HD
ATOM     21  O   LIG    1        3.775  -1.203  -0.041  0.00  0.00    -0.510 OA
BRANCH  19  22
ATOM     22  C   LIG    1        1.240  -0.427  -0.012  0.00  0.00    +0.500 A 
ATOM     23  N   LIG    1        0.002  -0.004   0.002  0.00  0.00    -0.510 NA
ATOM     24  C   LIG    1       -0.016   1.354   0.009  0.00  0.00    +0.070 A 
ATOM     25  C   LIG    1       -1.044   2.301   0.029  0.00  0.00    +0.060 A 
ATOM     26  C   LIG    1       -0.737   3.643   0.029  0.00  0.00    +0.010 A 
ATOM     27  C   LIG    1        0.585   4.063   0.019  0.00  0.00    +0.030 A 
ATOM     28  C   LIG    1        1.611   3.141   0.004  0.00  0.00    +0.010 A 
ATOM     29  C   LIG    1        1.321   1.785  -0.001  0.00  0.00    +0.050 A 
ATOM     30  N   LIG    1        2.095   0.638  -0.015  0.00  0.00    -0.590 N 
ATOM     31  H   LIG    1        3.064   0.598  -0.025  0.00  0.00    +0.430 HD
ENDBRANCH  19  22
ENDBRANCH  17  18
ENDBRANCH   3  17
TORSDOF 4
