REMARK  Name = ZINC9p0000002p5F.0
REMARK                            x       y       z     vdW  Elec       q    Type
REMARK                         _______ _______ _______ _____ _____    ______ ____
ROOT
ATOM      1  C   LIG    1       -2.121   0.950   1.341  0.00  0.00    +0.100 C 
ATOM      2  C   LIG    1       -0.729   1.579   1.267  0.00  0.00    +0.060 C 
ATOM      3  C   LIG    1        0.079   1.179   2.503  0.00  0.00    +0.090 C 
ENDROOT
BRANCH   2   4
ATOM      4  N   LIG    1       -0.855   3.042   1.217  0.00  0.00    -0.640 N 
ATOM      5  H   LIG    1        0.064   3.457   1.168  0.00  0.00    +0.430 HD
ATOM      6  H   LIG    1       -1.327   3.367   2.047  0.00  0.00    +0.430 HD
ATOM      7  H   LIG    1       -1.387   3.306   0.402  0.00  0.00    +0.430 HD
ENDBRANCH   2   4
BRANCH   2   8
ATOM      8  C   LIG    1       -0.013   1.086   0.008  0.00  0.00    +0.070 C 
BRANCH   8   9
ATOM      9  C   LIG    1       -0.753   1.593  -1.232  0.00  0.00    -0.050 C 
ATOM     10  C   LIG    1       -1.914   0.685  -1.670  0.00  0.00    +0.020 C 
ATOM     11  C   LIG    1       -1.468   0.950  -3.119  0.00  0.00    +0.010 C 
ATOM     12  C   LIG    1       -0.064   1.221  -2.555  0.00  0.00    +0.030 C 
ENDBRANCH   8   9
ENDBRANCH   2   8
TORSDOF 3
