REMARK  Name = ZINCvU0000000FOH.0
REMARK                            x       y       z     vdW  Elec       q    Type
REMARK                         _______ _______ _______ _____ _____    ______ ____
ROOT
ATOM      1  O   LIG    1       -6.191   2.910   0.272  0.00  0.00    -0.460 OA
ATOM      2  C   LIG    1       -6.034   1.713   0.166  0.00  0.00    +0.540 C 
ATOM      3  C   LIG    1       -7.141   0.681   0.141  0.00  0.00    +0.030 C 
ATOM      4  C   LIG    1       -8.041   0.952  -1.084  0.00  0.00    +0.140 C 
ATOM      5  C   LIG    1       -8.956  -0.299  -1.181  0.00  0.00    -0.080 A 
ATOM      6  C   LIG    1      -10.322  -0.284  -1.153  0.00  0.00    +0.030 A 
ATOM      7  C   LIG    1      -11.007  -1.488  -1.269  0.00  0.00    +0.010 A 
ATOM      8  C   LIG    1      -10.315  -2.676  -1.411  0.00  0.00    +0.010 A 
ATOM      9  C   LIG    1       -8.927  -2.684  -1.440  0.00  0.00    +0.030 A 
ATOM     10  C   LIG    1       -8.260  -1.497  -1.325  0.00  0.00    -0.080 A 
ATOM     11  C   LIG    1       -6.747  -1.348  -1.339  0.00  0.00    +0.130 C 
ATOM     12  C   LIG    1       -6.437  -0.327  -2.424  0.00  0.00    -0.090 A 
ATOM     13  C   LIG    1       -5.573  -0.531  -3.461  0.00  0.00    +0.030 A 
ATOM     14  C   LIG    1       -5.382   0.490  -4.384  0.00  0.00    +0.020 A 
ATOM     15  C   LIG    1       -6.057   1.690  -4.250  0.00  0.00    +0.010 A 
ATOM     16  C   LIG    1       -6.935   1.889  -3.192  0.00  0.00    +0.030 A 
ATOM     17  C   LIG    1       -7.117   0.881  -2.289  0.00  0.00    -0.090 A 
ATOM     18  C   LIG    1       -6.390  -0.653  -0.008  0.00  0.00    +0.030 C 
ATOM     19  C   LIG    1       -4.935  -0.239  -0.056  0.00  0.00    +0.540 C 
ATOM     20  O   LIG    1       -3.993  -0.994  -0.173  0.00  0.00    -0.460 OA
ATOM     21  N   LIG    1       -4.853   1.093   0.054  0.00  0.00    -0.530 N 
ENDROOT
BRANCH  21  22
ATOM     22  C   LIG    1       -3.632   1.781   0.045  0.00  0.00    +0.120 A 
ATOM     23  C   LIG    1       -2.763   1.626   1.089  0.00  0.00    +0.050 A 
ATOM     24  C   LIG    1       -1.538   2.312   1.079  0.00  0.00    -0.040 A 
ATOM     25  C   LIG    1       -0.621   2.182   2.137  0.00  0.00    +0.030 A 
ATOM     26  C   LIG    1        0.555   2.865   2.097  0.00  0.00    +0.020 A 
ATOM     27  C   LIG    1        0.865   3.698   1.023  0.00  0.00    +0.020 A 
ATOM     28  C   LIG    1       -0.001   3.852  -0.016  0.00  0.00    +0.020 A 
ATOM     29  C   LIG    1       -1.225   3.163  -0.011  0.00  0.00    -0.050 A 
ATOM     30  C   LIG    1       -2.142   3.299  -1.067  0.00  0.00    +0.050 A 
ATOM     31  C   LIG    1       -3.319   2.618  -1.031  0.00  0.00    +0.030 A 
ENDBRANCH  21  22
TORSDOF 1
