REMARK  Name = ZINCpe000027pHey.0
REMARK                            x       y       z     vdW  Elec       q    Type
REMARK                         _______ _______ _______ _____ _____    ______ ____
ROOT
ATOM      1  N   LIG    1        4.820  -1.829  -3.753  0.00  0.00    -0.460 N 
ATOM      2  C   LIG    1        5.711  -1.599  -2.586  0.00  0.00    +0.220 C 
ATOM      3  C   LIG    1        5.558  -0.078  -2.316  0.00  0.00    +0.290 C 
ATOM      4  C   LIG    1        4.060   0.172  -2.606  0.00  0.00    +0.260 C 
ATOM      5  C   LIG    1        3.625  -0.989  -3.519  0.00  0.00    +0.220 C 
ENDROOT
BRANCH   1  11
ATOM      6  C   LIG    1        4.773  -5.808  -6.400  0.00  0.00    +0.150 C 
ATOM      7  C   LIG    1        4.436  -5.104  -5.111  0.00  0.00    +0.180 A 
ATOM      8  C   LIG    1        3.807  -5.804  -4.099  0.00  0.00    -0.020 A 
ATOM      9  C   LIG    1        3.497  -5.160  -2.914  0.00  0.00    +0.140 A 
ATOM     10  C   LIG    1        3.836  -3.808  -2.784  0.00  0.00    -0.130 A 
ATOM     11  C   LIG    1        4.475  -3.165  -3.858  0.00  0.00    +0.360 A 
ATOM     12  N   LIG    1        4.744  -3.828  -4.971  0.00  0.00    -0.450 NA
BRANCH  10  13
ATOM     13  C   LIG    1        3.538  -3.094  -1.579  0.00  0.00    +0.250 C 
ATOM     14  N   LIG    1        3.301  -2.528  -0.623  0.00  0.00    -0.400 NA
ENDBRANCH  10  13
ENDBRANCH   1  11
BRANCH   3  15
ATOM     15  N   LIG    1        5.875   0.237  -0.921  0.00  0.00    -0.280 N 
ATOM     16  C   LIG    1        5.729  -0.597   0.133  0.00  0.00    +0.110 A 
ATOM     17  C   LIG    1        6.138   0.095   1.222  0.00  0.00    +0.150 A 
ATOM     18  N   LIG    1        6.510   1.304   0.786  0.00  0.00    -0.260 NA
ATOM     19  N   LIG    1        6.347   1.354  -0.489  0.00  0.00    -0.070 NA
ENDBRANCH   3  15
BRANCH   4  20
ATOM     20  N   LIG    1        3.291   0.155  -1.360  0.00  0.00    -0.730 N 
ATOM     21  H   LIG    1        3.633  -0.318  -0.585  0.00  0.00    +0.410 HD
ATOM     22  C   LIG    1        2.108   0.797  -1.289  0.00  0.00    +0.550 C 
ATOM     23  O   LIG    1        1.680   1.388  -2.257  0.00  0.00    -0.530 OA
BRANCH  22  24
ATOM     24  C   LIG    1        1.317   0.779  -0.006  0.00  0.00    -0.080 C 
ATOM     25  C   LIG    1       -0.019   1.526   0.010  0.00  0.00    +0.080 C 
ATOM     26  C   LIG    1        0.002  -0.004   0.002  0.00  0.00    +0.060 C 
ENDBRANCH  22  24
ENDBRANCH   4  20
TORSDOF 5
