REMARK  Name = ZINCAx0000000hcQ.0
REMARK                            x       y       z     vdW  Elec       q    Type
REMARK                         _______ _______ _______ _____ _____    ______ ____
ROOT
ATOM      1  N   LIG    1       -2.509   3.571   0.112  0.00  0.00    -0.520 N 
ATOM      2  C   LIG    1       -2.715   4.767  -0.474  0.00  0.00    +0.580 C 
ATOM      3  O   LIG    1       -3.841   5.110  -0.777  0.00  0.00    -0.510 OA
ENDROOT
BRANCH   1   9
ATOM      4  N   LIG    1        0.670   1.749   0.387  0.00  0.00    -0.540 N 
ATOM      5  C   LIG    1        1.304   2.492   1.312  0.00  0.00    +0.710 A 
ATOM      6  N   LIG    1        0.724   3.578   1.853  0.00  0.00    -0.660 N 
ATOM      7  H   LIG    1        1.202   4.097   2.518  0.00  0.00    +0.440 HD
ATOM      8  C   LIG    1       -0.518   3.950   1.486  0.00  0.00    +0.560 A 
ATOM      9  C   LIG    1       -1.210   3.199   0.516  0.00  0.00    -0.160 A 
ATOM     10  O   LIG    1       -1.038   4.933   1.986  0.00  0.00    -0.500 OA
ATOM     11  O   LIG    1        2.425   2.176   1.665  0.00  0.00    -0.520 OA
ATOM     12  C   LIG    1       -0.598   2.088  -0.028  0.00  0.00    +0.480 A 
BRANCH  12  13
ATOM     13  N   LIG    1       -1.246   1.329  -0.972  0.00  0.00    -0.830 N 
ATOM     14  H   LIG    1       -2.162   1.536  -1.215  0.00  0.00    +0.430 HD
ATOM     15  H   LIG    1       -0.788   0.586  -1.395  0.00  0.00    +0.410 HD
ENDBRANCH  12  13
BRANCH   4  16
ATOM     16  C   LIG    1        1.332   0.573  -0.181  0.00  0.00    +0.310 C 
BRANCH  16  17
ATOM     17  C   LIG    1        1.000  -0.658   0.666  0.00  0.00    +0.010 C 
BRANCH  17  19
ATOM     18  C   LIG    1        1.360  -3.117   0.919  0.00  0.00    +0.020 C 
ATOM     19  C   LIG    1        1.692  -1.887   0.072  0.00  0.00    +0.020 C 
ENDBRANCH  17  19
ENDBRANCH  16  17
ENDBRANCH   4  16
ENDBRANCH   1   9
BRANCH   2  20
ATOM     20  C   LIG    1       -1.571   5.662  -0.750  0.00  0.00    -0.130 A 
ATOM     21  C   LIG    1       -0.286   5.135  -0.889  0.00  0.00    +0.090 A 
ATOM     22  C   LIG    1        0.776   5.975  -1.152  0.00  0.00    -0.010 A 
ATOM     23  C   LIG    1        0.572   7.338  -1.267  0.00  0.00    +0.140 A 
ATOM     24  C   LIG    1       -0.698   7.868  -1.124  0.00  0.00    -0.680 A 
ATOM     25  C   LIG    1       -1.770   7.039  -0.867  0.00  0.00    +0.190 A 
BRANCH  24  26
ATOM     26  S   LIG    1       -0.947   9.606  -1.272  0.00  0.00    +2.680 S 
ATOM     27  O   LIG    1       -2.310   9.787  -1.632  0.00  0.00    -0.950 OA
ATOM     28  O   LIG    1        0.134  10.102  -2.050  0.00  0.00    -0.950 OA
BRANCH  26  29
ATOM     29  N   LIG    1       -0.772  10.257   0.241  0.00  0.00    -0.990 NA
ATOM     30  C   LIG    1       -1.941  10.375   1.083  0.00  0.00    +0.280 C 
ATOM     31  C   LIG    1       -2.634  11.731   0.835  0.00  0.00    +0.010 C 
ATOM     32  C   LIG    1       -1.823  12.827   1.388  0.00  0.00    +0.000 C 
ATOM     33  C   LIG    1       -0.448  12.979   0.744  0.00  0.00    +0.010 C 
ATOM     34  C   LIG    1        0.526  12.044   1.417  0.00  0.00    +0.020 C 
ATOM     35  C   LIG    1        0.569  10.698   0.670  0.00  0.00    +0.270 C 
ENDBRANCH  26  29
ENDBRANCH  24  26
ENDBRANCH   2  20
BRANCH   1  36
ATOM     36  C   LIG    1       -3.634   2.659   0.331  0.00  0.00    +0.280 C 
BRANCH  36  37
ATOM     37  C   LIG    1       -4.160   2.830   1.757  0.00  0.00    -0.040 C 
ATOM     38  C   LIG    1       -5.284   1.824   2.010  0.00  0.00    +0.020 C 
ATOM     39  C   LIG    1       -4.698   4.251   1.935  0.00  0.00    +0.030 C 
ENDBRANCH  36  37
ENDBRANCH   1  36
TORSDOF 10
