REMARK  Name = ZINCc70000003YWV.0
REMARK                            x       y       z     vdW  Elec       q    Type
REMARK                         _______ _______ _______ _____ _____    ______ ____
ROOT
ATOM      1  C   LIG    1        3.879   4.250  -0.031  0.00  0.00    +0.190 C 
ATOM      2  C   LIG    1        3.036   3.001  -0.019  0.00  0.00    +0.250 C 
ATOM      3  N   LIG    1        3.503   1.752  -0.014  0.00  0.00    -0.580 NA
ATOM      4  C   LIG    1        2.498   0.902  -0.004  0.00  0.00    +0.530 C 
ATOM      5  N   LIG    1        1.353   1.617  -0.002  0.00  0.00    -0.410 NA
ATOM      6  N   LIG    1        1.730   2.969  -0.018  0.00  0.00    -0.330 NA
ENDROOT
BRANCH   5   7
ATOM      7  C   LIG    1       -0.013   1.086   0.008  0.00  0.00    +0.240 C 
ATOM      8  C   LIG    1       -0.788   1.610   1.237  0.00  0.00    +0.020 C 
ATOM      9  C   LIG    1       -1.966   2.402   0.628  0.00  0.00    +0.220 C 
ATOM     10  O   LIG    1       -2.148   1.838  -0.689  0.00  0.00    -0.370 OA
ATOM     11  C   LIG    1       -0.811   1.623  -1.200  0.00  0.00    +0.220 C 
ENDBRANCH   5   7
BRANCH   4  12
ATOM     12  N   LIG    1        2.598  -0.477   0.004  0.00  0.00    -0.830 NA
ATOM     13  H   LIG    1        3.471  -0.900   0.002  0.00  0.00    +0.430 HD
ATOM     14  H   LIG    1        1.795  -1.021   0.011  0.00  0.00    +0.410 HD
ENDBRANCH   4  12
TORSDOF 2
