REMARK  Name = ZINCrg000000mQ5Y.1
REMARK                            x       y       z     vdW  Elec       q    Type
REMARK                         _______ _______ _______ _____ _____    ______ ____
ROOT
ATOM      1  C   LIG    1       -0.317   4.457   7.902  0.00  0.00    +0.010 C 
ATOM      2  C   LIG    1       -1.421   5.386   7.391  0.00  0.00    +0.020 C 
ATOM      3  C   LIG    1       -2.451   4.566   6.612  0.00  0.00    +0.170 C 
ATOM      4  N   LIG    1       -1.792   3.894   5.485  0.00  0.00    -0.530 NA
ATOM      5  C   LIG    1       -0.760   2.961   5.953  0.00  0.00    +0.160 C 
ATOM      6  C   LIG    1        0.321   3.733   6.713  0.00  0.00    +0.030 C 
ENDROOT
BRANCH   1  15
ATOM      7  C   LIG    1       -1.767   6.509  11.196  0.00  0.00    +0.070 C 
ATOM      8  C   LIG    1       -1.001   5.629  10.242  0.00  0.00    +0.510 C 
ATOM      9  N   LIG    1        0.116   6.092   9.647  0.00  0.00    -0.600 N 
ATOM     10  C   LIG    1        0.645   7.407  10.060  0.00  0.00    +0.260 C 
ATOM     11  C   LIG    1        2.178   7.398  10.201  0.00  0.00    +0.020 C 
ATOM     12  C   LIG    1        2.632   6.112  10.847  0.00  0.00    +0.000 C 
ATOM     13  C   LIG    1        2.944   5.084   9.763  0.00  0.00    +0.000 C 
ATOM     14  C   LIG    1        1.774   4.327   9.290  0.00  0.00    +0.010 C 
ATOM     15  C   LIG    1        0.747   5.280   8.631  0.00  0.00    +0.240 C 
ATOM     16  O   LIG    1       -1.391   4.504  10.008  0.00  0.00    -0.530 OA
ENDBRANCH   1  15
BRANCH   4  17
ATOM     17  C   LIG    1       -2.774   3.209   4.633  0.00  0.00    +0.260 C 
BRANCH  17  18
ATOM     18  C   LIG    1       -2.102   2.743   3.367  0.00  0.00    +0.220 A 
ATOM     19  C   LIG    1       -1.988   1.423   3.105  0.00  0.00    -0.130 A 
ATOM     20  C   LIG    1       -1.354   1.011   1.909  0.00  0.00    +0.550 A 
ATOM     21  N   LIG    1       -0.877   1.942   1.058  0.00  0.00    -0.560 N 
ATOM     22  C   LIG    1       -1.000   3.251   1.346  0.00  0.00    +0.690 A 
ATOM     23  O   LIG    1       -0.560   4.079   0.571  0.00  0.00    -0.540 OA
ATOM     24  C   LIG    1       -0.218   1.526  -0.183  0.00  0.00    +0.340 C 
ATOM     25  O   LIG    1       -1.240  -0.174   1.651  0.00  0.00    -0.520 OA
ATOM     26  N   LIG    1       -1.605   3.656   2.477  0.00  0.00    -0.520 N 
ATOM     27  C   LIG    1       -1.728   5.088   2.761  0.00  0.00    +0.350 C 
ENDBRANCH  17  18
ENDBRANCH   4  17
TORSDOF 3
