REMARK  Name = ZINCqH0000006Ikx.0
REMARK                            x       y       z     vdW  Elec       q    Type
REMARK                         _______ _______ _______ _____ _____    ______ ____
ROOT
ATOM      1  C   LIG    1       -1.143   3.497   0.028  0.00  0.00    +0.250 C 
ENDROOT
BRANCH   1   2
ATOM      2  C   LIG    1       -2.546   4.047   0.037  0.00  0.00    -0.070 A 
ATOM      3  C   LIG    1       -3.212   4.255  -1.157  0.00  0.00    +0.030 A 
ATOM      4  C   LIG    1       -4.498   4.754  -1.156  0.00  0.00    +0.030 A 
ATOM      5  C   LIG    1       -5.124   5.058   0.054  0.00  0.00    -0.120 A 
ATOM      6  C   LIG    1       -4.444   4.851   1.256  0.00  0.00    +0.080 A 
ATOM      7  C   LIG    1       -3.160   4.347   1.240  0.00  0.00    +0.030 A 
BRANCH   5   8
ATOM      8  C   LIG    1       -6.500   5.598   0.063  0.00  0.00    +0.570 C 
ATOM      9  N   LIG    1       -7.095   5.947  -1.095  0.00  0.00    -0.620 N 
ATOM     10  C   LIG    1       -6.533   5.751  -2.439  0.00  0.00    +0.250 C 
ATOM     11  C   LIG    1       -7.551   6.323  -3.449  0.00  0.00    +0.030 C 
ATOM     12  C   LIG    1       -8.365   7.325  -2.588  0.00  0.00    +0.040 C 
ATOM     13  C   LIG    1       -8.413   6.594  -1.223  0.00  0.00    +0.250 C 
ATOM     14  O   LIG    1       -7.096   5.726   1.115  0.00  0.00    -0.530 OA
ENDBRANCH   5   8
ENDBRANCH   1   2
BRANCH   1  15
ATOM     15  O   LIG    1       -1.190   2.070   0.087  0.00  0.00    -0.290 OA
BRANCH  15  21
ATOM     16  C   LIG    1        0.022   0.019   0.144  0.00  0.00    +0.090 A 
ATOM     17  C   LIG    1        1.228  -0.651   0.138  0.00  0.00    +0.030 A 
ATOM     18  C   LIG    1        2.426   0.071   0.076  0.00  0.00    -0.170 A 
ATOM     19  C   LIG    1        2.393   1.470   0.020  0.00  0.00    +0.080 A 
ATOM     20  C   LIG    1        1.185   2.130   0.026  0.00  0.00    -0.050 A 
ATOM     21  C   LIG    1       -0.002   1.413   0.087  0.00  0.00    +0.140 A 
BRANCH  18  22
ATOM     22  C   LIG    1        3.713  -0.636   0.070  0.00  0.00    +0.400 C 
ATOM     23  O   LIG    1        3.740  -1.847   0.119  0.00  0.00    -0.460 OA
ATOM     24  C   LIG    1        5.001   0.144   0.003  0.00  0.00    +0.080 C 
ENDBRANCH  18  22
BRANCH  16  26
ATOM     25  C   LIG    1       -1.044  -2.104   0.260  0.00  0.00    +0.240 C 
ATOM     26  O   LIG    1       -1.144  -0.679   0.205  0.00  0.00    -0.300 OA
ENDBRANCH  16  26
ENDBRANCH  15  21
ENDBRANCH   1  15
TORSDOF 6
