REMARK  Name = ZINCqH0000035RBU.0
REMARK                            x       y       z     vdW  Elec       q    Type
REMARK                         _______ _______ _______ _____ _____    ______ ____
ROOT
ATOM      1  C   LIG    1       -1.187   1.624   0.017  0.00  0.00    +0.570 C 
ATOM      2  N   LIG    1       -0.011   0.966   0.007  0.00  0.00    -0.650 N 
ATOM      3  H   LIG    1        0.002  -0.004   0.002  0.00  0.00    +0.410 HD
ATOM      4  O   LIG    1       -1.204   2.840   0.023  0.00  0.00    -0.500 OA
ENDROOT
BRANCH   1   8
ATOM      5  C   LIG    1       -4.835  -0.556   0.022  0.00  0.00    +0.140 A 
ATOM      6  C   LIG    1       -3.623  -1.232   0.012  0.00  0.00    -0.030 A 
ATOM      7  C   LIG    1       -2.438  -0.528   0.005  0.00  0.00    +0.050 A 
ATOM      8  C   LIG    1       -2.455   0.869   0.018  0.00  0.00    -0.140 A 
ATOM      9  C   LIG    1       -3.676   1.550   0.028  0.00  0.00    +0.040 A 
ATOM     10  C   LIG    1       -4.860   0.838   0.030  0.00  0.00    +0.100 A 
BRANCH   5  12
ATOM     11  C   LIG    1       -5.902  -2.680   0.016  0.00  0.00    +0.250 C 
ATOM     12  O   LIG    1       -6.000  -1.254   0.024  0.00  0.00    -0.300 OA
ENDBRANCH   5  12
BRANCH  10  13
ATOM     13  O   LIG    1       -6.049   1.498   0.039  0.00  0.00    -0.300 OA
ATOM     14  C   LIG    1       -5.999   2.926   0.047  0.00  0.00    +0.250 C 
ENDBRANCH  10  13
ENDBRANCH   1   8
BRANCH   2  15
ATOM     15  C   LIG    1        1.186   1.679  -0.000  0.00  0.00    +0.310 A 
ATOM     16  C   LIG    1        1.317   3.034  -0.000  0.00  0.00    -0.080 A 
ATOM     17  C   LIG    1        2.682   3.334  -0.006  0.00  0.00    +0.100 A 
ATOM     18  N   LIG    1        3.353   2.210  -0.019  0.00  0.00    -0.280 NA
ATOM     19  C   LIG    1        3.280   4.717  -0.006  0.00  0.00    +0.170 C 
ATOM     20  N   LIG    1        2.439   1.149  -0.015  0.00  0.00    -0.340 N 
BRANCH  20  21
ATOM     21  C   LIG    1        2.759  -0.216  -0.025  0.00  0.00    +0.150 A 
ATOM     22  C   LIG    1        1.969  -1.121   0.671  0.00  0.00    -0.030 A 
ATOM     23  C   LIG    1        2.284  -2.466   0.655  0.00  0.00    +0.050 A 
ATOM     24  C   LIG    1        3.390  -2.910  -0.045  0.00  0.00    -0.090 A 
ATOM     25  C   LIG    1        4.182  -2.011  -0.736  0.00  0.00    +0.040 A 
ATOM     26  C   LIG    1        3.734  -4.377  -0.055  0.00  0.00    +0.090 C 
ATOM     27  C   LIG    1        3.869  -0.665  -0.728  0.00  0.00    +0.040 A 
ENDBRANCH  20  21
ENDBRANCH   2  15
TORSDOF 5
