REMARK  Name = ZINCpk00000l1W7N.0
REMARK                            x       y       z     vdW  Elec       q    Type
REMARK                         _______ _______ _______ _____ _____    ______ ____
ROOT
ATOM      1  O   LIG    1       -5.584   2.546   2.050  0.00  0.00    -0.500 OA
ATOM      2  C   LIG    1       -4.601   3.256   2.071  0.00  0.00    +0.510 C 
ATOM      3  N   LIG    1       -3.630   3.090   1.151  0.00  0.00    -0.610 N 
ATOM      4  C   LIG    1       -3.748   2.053   0.117  0.00  0.00    +0.280 C 
ATOM      5  C   LIG    1       -2.490   1.179   0.150  0.00  0.00    +0.040 C 
ATOM      6  C   LIG    1       -1.252   2.068   0.011  0.00  0.00    -0.010 C 
ATOM      7  C   LIG    1       -1.191   3.048   1.185  0.00  0.00    +0.040 C 
ATOM      8  C   LIG    1       -2.434   3.943   1.163  0.00  0.00    +0.280 C 
ENDROOT
BRANCH   6   9
ATOM      9  C   LIG    1       -0.014   1.209   0.009  0.00  0.00    +0.530 C 
ATOM     10  N   LIG    1        1.052   1.565  -0.734  0.00  0.00    -0.620 N 
ATOM     11  C   LIG    1        1.108   2.703  -1.663  0.00  0.00    +0.240 C 
ATOM     12  C   LIG    1        2.512   2.704  -2.303  0.00  0.00    +0.030 C 
ATOM     13  C   LIG    1        2.972   1.233  -2.129  0.00  0.00    +0.030 C 
ATOM     14  C   LIG    1        2.354   0.874  -0.755  0.00  0.00    +0.250 C 
ATOM     15  O   LIG    1        0.020   0.194   0.672  0.00  0.00    -0.530 OA
ENDBRANCH   6   9
BRANCH   2  16
ATOM     16  C   LIG    1       -4.466   4.325   3.125  0.00  0.00    +0.360 C 
BRANCH  16  17
ATOM     17  N   LIG    1       -5.643   4.302   3.997  0.00  0.00    -0.290 N 
ATOM     18  C   LIG    1       -5.629   4.174   5.344  0.00  0.00    +0.140 A 
ATOM     19  C   LIG    1       -6.923   4.205   5.739  0.00  0.00    -0.000 A 
ATOM     20  N   LIG    1       -7.657   4.340   4.628  0.00  0.00    -0.260 NA
ATOM     21  N   LIG    1       -6.868   4.394   3.613  0.00  0.00    -0.050 NA
BRANCH  19  22
ATOM     22  C   LIG    1       -7.438   4.101   7.152  0.00  0.00    +0.080 C 
ATOM     23  C   LIG    1       -6.349   4.299   8.220  0.00  0.00    +0.020 C 
ATOM     24  C   LIG    1       -7.027   3.162   9.006  0.00  0.00    +0.010 C 
ATOM     25  C   LIG    1       -7.564   2.654   7.657  0.00  0.00    +0.020 C 
ENDBRANCH  19  22
ENDBRANCH  16  17
ENDBRANCH   2  16
TORSDOF 4
