REMARK  Name = ZINCvU0000000EJd.0
REMARK                            x       y       z     vdW  Elec       q    Type
REMARK                         _______ _______ _______ _____ _____    ______ ____
ROOT
ATOM      1  C   LIG    1       -4.158   3.595   1.815  0.00  0.00    +0.160 C 
ATOM      2  N   LIG    1       -4.520   2.877   0.808  0.00  0.00    -0.230 NA
ATOM      3  N   LIG    1       -3.651   2.941  -0.279  0.00  0.00    -0.460 N 
ATOM      4  C   LIG    1       -2.537   3.843   0.056  0.00  0.00    +0.270 C 
ATOM      5  C   LIG    1       -3.805   2.286  -1.446  0.00  0.00    +0.590 C 
ATOM      6  O   LIG    1       -3.038   2.493  -2.366  0.00  0.00    -0.490 OA
ATOM      7  C   LIG    1       -2.863   4.305   1.490  0.00  0.00    +0.100 C 
ENDROOT
BRANCH   4   8
ATOM      8  C   LIG    1       -1.226   3.101   0.023  0.00  0.00    -0.120 A 
ATOM      9  C   LIG    1       -1.214   1.720  -0.005  0.00  0.00    +0.050 A 
ATOM     10  C   LIG    1       -0.011   1.038  -0.029  0.00  0.00    +0.010 A 
ATOM     11  C   LIG    1        1.181   1.738  -0.036  0.00  0.00    +0.050 A 
ATOM     12  C   LIG    1        1.172   3.120  -0.014  0.00  0.00    -0.010 A 
ATOM     13  C   LIG    1       -0.032   3.804   0.016  0.00  0.00    +0.110 A 
ATOM     14  F   LIG    1       -0.043   5.154   0.038  0.00  0.00    -0.140 F 
ENDBRANCH   4   8
BRANCH   5  15
ATOM     15  C   LIG    1       -4.907   1.315  -1.608  0.00  0.00    -0.140 A 
ATOM     16  C   LIG    1       -5.862   1.164  -0.601  0.00  0.00    +0.130 A 
ATOM     17  C   LIG    1       -6.889   0.256  -0.759  0.00  0.00    -0.010 A 
ATOM     18  C   LIG    1       -6.974  -0.504  -1.911  0.00  0.00    +0.050 A 
ATOM     19  C   LIG    1       -6.031  -0.361  -2.914  0.00  0.00    +0.010 A 
ATOM     20  C   LIG    1       -5.001   0.548  -2.772  0.00  0.00    +0.020 A 
ATOM     21 CL   LIG    1       -3.823   0.732  -4.034  0.00  0.00    -0.040 Cl
ENDBRANCH   5  15
BRANCH   1  25
ATOM     22  C   LIG    1       -6.277   3.923   5.482  0.00  0.00    +0.190 A 
ATOM     23  C   LIG    1       -5.092   4.625   5.299  0.00  0.00    -0.110 A 
ATOM     24  C   LIG    1       -4.402   4.522   4.111  0.00  0.00    +0.130 A 
ATOM     25  C   LIG    1       -4.893   3.708   3.087  0.00  0.00    -0.110 A 
ATOM     26  C   LIG    1       -6.091   3.004   3.273  0.00  0.00    +0.210 A 
ATOM     27  C   LIG    1       -6.773   3.112   4.471  0.00  0.00    -0.110 A 
BRANCH  22  29
ATOM     28  C   LIG    1       -6.386   4.881   7.655  0.00  0.00    +0.240 C 
ATOM     29  O   LIG    1       -6.952   4.030   6.657  0.00  0.00    -0.310 OA
ENDBRANCH  22  29
BRANCH  26  30
ATOM     30  O   LIG    1       -6.578   2.215   2.281  0.00  0.00    -0.290 OA
ATOM     31  C   LIG    1       -7.804   1.528   2.541  0.00  0.00    +0.240 C 
ENDBRANCH  26  30
ENDBRANCH   1  25
TORSDOF 5
