REMARK  Name = ZINCqH0000036ba8.0
REMARK                            x       y       z     vdW  Elec       q    Type
REMARK                         _______ _______ _______ _____ _____    ______ ____
ROOT
ATOM      1  C   LIG    1        1.120   1.985   0.092  0.00  0.00    +0.120 A 
ATOM      2  C   LIG    1       -0.052   1.281  -0.141  0.00  0.00    -0.050 A 
ATOM      3  C   LIG    1       -0.009  -0.073  -0.414  0.00  0.00    +0.060 A 
ATOM      4  C   LIG    1        1.208  -0.736  -0.457  0.00  0.00    +0.070 A 
ATOM      5  O   LIG    1        1.238  -2.070  -0.720  0.00  0.00    -0.310 OA
ATOM      6  C   LIG    1        2.468  -2.629  -1.186  0.00  0.00    +0.160 C 
ATOM      7  C   LIG    1        3.604  -2.169  -0.262  0.00  0.00    +0.280 C 
ATOM      8  N   LIG    1        3.620  -0.696  -0.276  0.00  0.00    -0.540 N 
ATOM      9  C   LIG    1        4.780  -0.013  -0.336  0.00  0.00    +0.610 C 
ATOM     10  O   LIG    1        4.767   1.197  -0.464  0.00  0.00    -0.480 OA
ATOM     11  C   LIG    1        2.379  -4.157  -1.168  0.00  0.00    +0.080 C 
ATOM     12  C   LIG    1        2.386  -0.029  -0.226  0.00  0.00    +0.120 A 
ATOM     13  C   LIG    1        2.341   1.328   0.050  0.00  0.00    +0.030 A 
ENDROOT
BRANCH   9  14
ATOM     14  C   LIG    1        6.065  -0.731  -0.246  0.00  0.00    -0.090 A 
ATOM     15  C   LIG    1        7.313  -0.201  -0.413  0.00  0.00    +0.060 A 
ATOM     16  C   LIG    1        8.181  -1.311  -0.223  0.00  0.00    +0.060 A 
ATOM     17  N   LIG    1        7.412  -2.341   0.025  0.00  0.00    -0.330 NA
ATOM     18  O   LIG    1        6.242  -2.039   0.022  0.00  0.00    +0.120 OA
BRANCH  16  19
ATOM     19  C   LIG    1        9.664  -1.304  -0.293  0.00  0.00    -0.030 A 
ATOM     20  C   LIG    1       10.345  -0.122  -0.575  0.00  0.00    +0.040 A 
ATOM     21  C   LIG    1       11.724  -0.120  -0.634  0.00  0.00    +0.010 A 
ATOM     22  C   LIG    1       12.429  -1.291  -0.424  0.00  0.00    +0.030 A 
ATOM     23  C   LIG    1       11.758  -2.469  -0.148  0.00  0.00    +0.010 A 
ATOM     24  C   LIG    1       10.379  -2.481  -0.082  0.00  0.00    +0.040 A 
ENDBRANCH  16  19
ENDBRANCH   9  14
BRANCH   1  26
ATOM     25  C   LIG    1       -0.219   3.927   0.389  0.00  0.00    +0.250 C 
ATOM     26  O   LIG    1        1.073   3.317   0.362  0.00  0.00    -0.310 OA
ENDBRANCH   1  26
TORSDOF 3
