REMARK  Name = ZINCtV00000L6jA3.0
REMARK                            x       y       z     vdW  Elec       q    Type
REMARK                         _______ _______ _______ _____ _____    ______ ____
ROOT
ATOM      1  C   LIG    1        3.659   2.159  -0.030  0.00  0.00    -0.010 A 
ATOM      2  C   LIG    1        4.652   1.908   0.821  0.00  0.00    -0.020 A 
ATOM      3  S   LIG    1        5.985   3.024   0.593  0.00  0.00    +0.200 S 
ATOM      4  C   LIG    1        5.156   3.862  -0.711  0.00  0.00    +0.110 A 
ATOM      5  N   LIG    1        5.529   4.904  -1.464  0.00  0.00    -0.510 NA
ATOM      6  C   LIG    1        4.741   5.378  -2.401  0.00  0.00    +0.380 A 
ATOM      7  N   LIG    1        3.551   4.859  -2.647  0.00  0.00    -0.560 NA
ATOM      8  C   LIG    1        3.097   3.827  -1.953  0.00  0.00    +0.420 A 
ATOM      9  C   LIG    1        5.207   6.553  -3.221  0.00  0.00    +0.180 C 
ATOM     10  C   LIG    1        3.910   3.273  -0.936  0.00  0.00    -0.190 A 
ENDROOT
BRANCH   1  14
ATOM     11  C   LIG    1        0.058  -0.108  -0.112  0.00  0.00    +0.110 A 
ATOM     12  C   LIG    1        0.005   1.276  -0.067  0.00  0.00    -0.030 A 
ATOM     13  C   LIG    1        1.171   2.014  -0.041  0.00  0.00    +0.050 A 
ATOM     14  C   LIG    1        2.406   1.368  -0.059  0.00  0.00    -0.040 A 
ATOM     15  C   LIG    1        2.461  -0.025  -0.104  0.00  0.00    -0.010 A 
ATOM     16  C   LIG    1        1.289  -0.760  -0.131  0.00  0.00    +0.100 A 
BRANCH  11  18
ATOM     17  C   LIG    1       -2.320  -0.099  -0.118  0.00  0.00    +0.250 C 
ATOM     18  O   LIG    1       -1.093  -0.832  -0.138  0.00  0.00    -0.300 OA
ENDBRANCH  11  18
BRANCH  16  19
ATOM     19  O   LIG    1        1.339  -2.118  -0.174  0.00  0.00    -0.300 OA
ATOM     20  C   LIG    1        2.635  -2.720  -0.191  0.00  0.00    +0.240 C 
ENDBRANCH  16  19
ENDBRANCH   1  14
BRANCH   8  21
ATOM     21  O   LIG    1        1.875   3.306  -2.217  0.00  0.00    -0.220 OA
BRANCH  21  22
ATOM     22  C   LIG    1        1.101   3.931  -3.143  0.00  0.00    +0.090 A 
ATOM     23  C   LIG    1        0.041   4.729  -2.739  0.00  0.00    +0.030 A 
ATOM     24  C   LIG    1       -0.741   5.368  -3.681  0.00  0.00    +0.050 A 
ATOM     25  C   LIG    1       -0.474   5.203  -5.029  0.00  0.00    -0.030 A 
ATOM     26  C   LIG    1        0.579   4.403  -5.435  0.00  0.00    -0.060 A 
ATOM     27  C   LIG    1        0.868   4.226  -6.904  0.00  0.00    +0.110 C 
ATOM     28 CL   LIG    1       -1.462   6.002  -6.212  0.00  0.00    -0.060 Cl
ATOM     29  C   LIG    1        1.367   3.767  -4.495  0.00  0.00    +0.030 A 
ENDBRANCH  21  22
ENDBRANCH   8  21
TORSDOF 5
