REMARK  Name = ZINCnE00000rho3B.0
REMARK                            x       y       z     vdW  Elec       q    Type
REMARK                         _______ _______ _______ _____ _____    ______ ____
ROOT
ATOM      1  N   LIG    1        0.285  -6.928  -0.038  0.00  0.00    -0.500 N 
ATOM      2  C   LIG    1       -0.683  -6.027  -0.019  0.00  0.00    +0.550 C 
ATOM      3  C   LIG    1       -0.231  -4.632  -0.021  0.00  0.00    -0.240 C 
ATOM      4  S   LIG    1        1.540  -4.753  -0.037  0.00  0.00    +0.130 S 
ATOM      5  C   LIG    1       -0.993  -3.504  -0.008  0.00  0.00    +0.270 C 
ATOM      6  O   LIG    1       -1.861  -6.332  -0.004  0.00  0.00    -0.450 OA
ATOM      7  C   LIG    1        1.560  -6.525  -0.047  0.00  0.00    +0.260 C 
ATOM      8  S   LIG    1        2.947  -7.529  -0.064  0.00  0.00    -0.350 S 
ENDROOT
BRANCH   5   9
ATOM      9  C   LIG    1       -0.374  -2.231  -0.006  0.00  0.00    +0.020 A 
ATOM     10  C   LIG    1       -1.033  -1.036   0.006  0.00  0.00    +0.040 A 
ATOM     11  C   LIG    1        0.002  -0.004   0.002  0.00  0.00    -0.140 A 
ATOM     12  C   LIG    1       -0.017   1.393   0.010  0.00  0.00    +0.070 A 
ATOM     13  C   LIG    1        1.161   2.086   0.002  0.00  0.00    -0.010 A 
ATOM     14  C   LIG    1        2.374   1.412  -0.012  0.00  0.00    +0.060 A 
ATOM     15  C   LIG    1        2.414   0.033  -0.020  0.00  0.00    +0.030 A 
ATOM     16  C   LIG    1        1.230  -0.693  -0.013  0.00  0.00    +0.080 A 
ATOM     17  O   LIG    1        0.958  -2.014  -0.018  0.00  0.00    -0.180 OA
ENDBRANCH   5   9
BRANCH   1  18
ATOM     18  C   LIG    1       -0.038  -8.357  -0.043  0.00  0.00    +0.290 C 
BRANCH  18  19
ATOM     19  C   LIG    1       -0.138  -8.863   1.397  0.00  0.00    +0.040 C 
BRANCH  19  20
ATOM     20  C   LIG    1       -0.475 -10.356   1.392  0.00  0.00    -0.060 C 
BRANCH  20  22
ATOM     21  O   LIG    1       -0.391 -10.086   3.740  0.00  0.00    -0.700 OA
ATOM     22  C   LIG    1       -0.573 -10.854   2.810  0.00  0.00    +0.490 C 
ATOM     23  O   LIG    1       -0.835 -12.024   3.029  0.00  0.00    -0.700 OA
ENDBRANCH  20  22
ENDBRANCH  19  20
ENDBRANCH  18  19
ENDBRANCH   1  18
TORSDOF 5
