REMARK  Name = ZINCvU00000008ZF.0
REMARK                            x       y       z     vdW  Elec       q    Type
REMARK                         _______ _______ _______ _____ _____    ______ ____
ROOT
ATOM      1  C   LIG    1        2.663   7.323   2.876  0.00  0.00    +0.120 C 
ENDROOT
BRANCH   1   5
ATOM      2  C   LIG    1        5.304   8.650   5.963  0.00  0.00    +0.130 A 
ATOM      3  C   LIG    1        5.201   9.368   4.780  0.00  0.00    -0.020 A 
ATOM      4  C   LIG    1        4.347   8.937   3.784  0.00  0.00    +0.070 A 
ATOM      5  C   LIG    1        3.595   7.791   3.964  0.00  0.00    -0.110 A 
ATOM      6  C   LIG    1        3.691   7.077   5.144  0.00  0.00    +0.060 A 
ATOM      7  C   LIG    1        4.548   7.501   6.141  0.00  0.00    -0.080 A 
BRANCH   2   8
ATOM      8  O   LIG    1        6.143   9.073   6.945  0.00  0.00    -0.310 OA
BRANCH   8   9
ATOM      9  C   LIG    1        6.198   8.284   8.135  0.00  0.00    +0.300 C 
BRANCH   9  16
ATOM     10  C   LIG    1        9.375   7.684   8.401  0.00  0.00    +0.160 C 
ATOM     11  C   LIG    1        8.559   8.646   9.225  0.00  0.00    +0.040 A 
ATOM     12  N   LIG    1        8.990   9.407  10.189  0.00  0.00    -0.360 NA
ATOM     13  O   LIG    1        8.097  10.068  10.667  0.00  0.00    +0.100 OA
ATOM     14  C   LIG    1        6.926   9.827  10.061  0.00  0.00    +0.000 A 
ATOM     15  C   LIG    1        5.597  10.460  10.382  0.00  0.00    +0.190 C 
ATOM     16  C   LIG    1        7.174   8.902   9.103  0.00  0.00    -0.220 A 
ENDBRANCH   9  16
ENDBRANCH   8   9
ENDBRANCH   2   8
ENDBRANCH   1   5
BRANCH   1  17
ATOM     17  C   LIG    1        3.401   6.391   1.950  0.00  0.00    +0.520 C 
ATOM     18  N   LIG    1        2.764   5.845   0.895  0.00  0.00    -0.610 N 
ATOM     19  C   LIG    1        1.354   6.158   0.649  0.00  0.00    +0.290 C 
ATOM     20  O   LIG    1        4.568   6.131   2.154  0.00  0.00    -0.520 OA
BRANCH  18  21
ATOM     21  C   LIG    1        3.481   4.938  -0.004  0.00  0.00    +0.350 C 
ATOM     22  C   LIG    1        3.473   5.514  -1.422  0.00  0.00    +0.060 C 
BRANCH  21  23
ATOM     23  C   LIG    1        2.804   3.592  -0.005  0.00  0.00    +0.020 A 
ATOM     24  C   LIG    1        3.441   2.413  -0.018  0.00  0.00    -0.030 A 
ATOM     25  C   LIG    1        2.395   1.383  -0.013  0.00  0.00    -0.130 A 
ATOM     26  C   LIG    1        2.400  -0.011  -0.021  0.00  0.00    +0.060 A 
ATOM     27  C   LIG    1        1.204  -0.696  -0.014  0.00  0.00    -0.010 A 
ATOM     28  C   LIG    1        0.002  -0.004   0.002  0.00  0.00    +0.050 A 
ATOM     29  C   LIG    1       -0.017   1.374   0.010  0.00  0.00    +0.020 A 
ATOM     30  C   LIG    1        1.177   2.084   0.002  0.00  0.00    +0.050 A 
ATOM     31  O   LIG    1        1.473   3.400   0.007  0.00  0.00    -0.190 OA
ENDBRANCH  21  23
ENDBRANCH  18  21
ENDBRANCH   1  17
TORSDOF 7
