REMARK  Name = ZINCvU00000009PK.0
REMARK                            x       y       z     vdW  Elec       q    Type
REMARK                         _______ _______ _______ _____ _____    ______ ____
ROOT
ATOM      1  C   LIG    1        0.011   1.099  -2.433  0.00  0.00    -0.160 A 
ATOM      2  C   LIG    1       -0.499   0.425  -3.493  0.00  0.00    +0.150 A 
ATOM      3  N   LIG    1        0.507   0.144  -4.389  0.00  0.00    -0.470 N 
ATOM      4  C   LIG    1        1.703   0.639  -3.917  0.00  0.00    +0.110 A 
ATOM      5  C   LIG    1        3.001   0.631  -4.415  0.00  0.00    +0.000 A 
ATOM      6  C   LIG    1        4.016   1.222  -3.694  0.00  0.00    +0.030 A 
ATOM      7  C   LIG    1        3.756   1.828  -2.473  0.00  0.00    +0.000 A 
ATOM      8  C   LIG    1        2.489   1.848  -1.963  0.00  0.00    +0.030 A 
ATOM      9  C   LIG    1        0.332  -0.573  -5.654  0.00  0.00    +0.310 C 
ATOM     10  C   LIG    1        1.443   1.260  -2.680  0.00  0.00    -0.100 A 
ENDROOT
BRANCH   2  11
ATOM     11  C   LIG    1       -1.920   0.050  -3.662  0.00  0.00    -0.030 A 
ATOM     12  C   LIG    1       -2.629  -0.506  -2.596  0.00  0.00    +0.030 A 
ATOM     13  C   LIG    1       -3.955  -0.849  -2.758  0.00  0.00    +0.010 A 
ATOM     14  C   LIG    1       -4.580  -0.652  -3.977  0.00  0.00    +0.020 A 
ATOM     15  C   LIG    1       -3.881  -0.106  -5.039  0.00  0.00    +0.020 A 
ATOM     16  C   LIG    1       -2.556   0.246  -4.888  0.00  0.00    +0.020 A 
ENDBRANCH   2  11
BRANCH   1  17
ATOM     17  C   LIG    1       -0.753   1.593  -1.232  0.00  0.00    +0.140 C 
BRANCH  17  21
ATOM     18  C   LIG    1       -3.514   4.623  -2.450  0.00  0.00    +0.100 A 
ATOM     19  C   LIG    1       -2.157   4.787  -2.675  0.00  0.00    -0.040 A 
ATOM     20  C   LIG    1       -1.266   3.805  -2.280  0.00  0.00    +0.020 A 
ATOM     21  C   LIG    1       -1.727   2.659  -1.660  0.00  0.00    -0.070 A 
ATOM     22  C   LIG    1       -3.081   2.487  -1.437  0.00  0.00    -0.010 A 
ATOM     23  C   LIG    1       -3.978   3.469  -1.825  0.00  0.00    +0.110 A 
BRANCH  18  25
ATOM     24  C   LIG    1       -3.843   6.744  -3.474  0.00  0.00    +0.240 C 
ATOM     25  O   LIG    1       -4.391   5.587  -2.838  0.00  0.00    -0.310 OA
ENDBRANCH  18  25
BRANCH  23  26
ATOM     26  O   LIG    1       -5.309   3.303  -1.601  0.00  0.00    -0.300 OA
ATOM     27  C   LIG    1       -5.713   2.094  -0.956  0.00  0.00    +0.230 C 
ENDBRANCH  23  26
ENDBRANCH  17  21
BRANCH  17  28
ATOM     28  C   LIG    1        0.225   2.176  -0.210  0.00  0.00    +0.270 C 
BRANCH  28  29
ATOM     29  N   LIG    1       -0.503   2.547   1.006  0.00  0.00    -0.020 N 
ATOM     30  O   LIG    1       -1.559   3.149   0.924  0.00  0.00    -0.140 OA
ATOM     31  O   LIG    1       -0.052   2.254   2.099  0.00  0.00    -0.170 OA
ENDBRANCH  28  29
ENDBRANCH  17  28
ENDBRANCH   1  17
TORSDOF 7
