REMARK  Name = ZINCrg00000AxUTX.0
REMARK                            x       y       z     vdW  Elec       q    Type
REMARK                         _______ _______ _______ _____ _____    ______ ____
ROOT
ATOM      1  C   LIG    1        0.038   2.710  -1.805  0.00  0.00    +0.560 C 
ATOM      2  N   LIG    1       -0.546   2.393  -0.632  0.00  0.00    -0.610 N 
ATOM      3  C   LIG    1       -1.913   2.840  -0.321  0.00  0.00    +0.250 C 
ATOM      4  C   LIG    1       -1.901   3.502   1.062  0.00  0.00    +0.210 C 
ATOM      5  O   LIG    1       -1.294   2.615   2.004  0.00  0.00    -0.370 OA
ATOM      6  C   LIG    1        0.076   2.312   1.723  0.00  0.00    +0.230 C 
ATOM      7  C   LIG    1        0.165   1.588   0.375  0.00  0.00    +0.190 C 
ATOM      8  O   LIG    1        1.132   2.257  -2.082  0.00  0.00    -0.500 OA
ENDROOT
BRANCH   1  14
ATOM      9  C   LIG    1       -4.169   4.293  -3.964  0.00  0.00    +0.090 C 
ATOM     10  C   LIG    1       -2.673   4.374  -3.796  0.00  0.00    -0.100 A 
ATOM     11  C   LIG    1       -1.946   5.293  -4.533  0.00  0.00    +0.050 A 
ATOM     12  C   LIG    1       -0.575   5.377  -4.388  0.00  0.00    -0.010 A 
ATOM     13  C   LIG    1        0.082   4.542  -3.496  0.00  0.00    +0.160 A 
ATOM     14  C   LIG    1       -0.650   3.607  -2.752  0.00  0.00    -0.160 A 
ATOM     15  C   LIG    1       -2.036   3.533  -2.909  0.00  0.00    +0.050 A 
BRANCH  13  16
ATOM     16  O   LIG    1        1.428   4.627  -3.348  0.00  0.00    -0.490 OA
ATOM     17  H   LIG    1        1.926   4.056  -3.948  0.00  0.00    +0.400 HD
ENDBRANCH  13  16
ENDBRANCH   1  14
BRANCH   7  18
ATOM     18  C   LIG    1        1.632   1.434  -0.031  0.00  0.00    +0.300 C 
BRANCH  18  19
ATOM     19  N   LIG    1        1.739   0.452  -1.113  0.00  0.00    -0.690 N 
ATOM     20  H   LIG    1        0.937   0.074  -1.506  0.00  0.00    +0.390 HD
ATOM     21  C   LIG    1        2.952   0.073  -1.561  0.00  0.00    +0.600 C 
ATOM     22  O   LIG    1        3.958   0.546  -1.068  0.00  0.00    -0.560 OA
BRANCH  21  23
ATOM     23  C   LIG    1        3.060  -0.916  -2.650  0.00  0.00    -0.290 A 
ATOM     24  C   LIG    1        4.227  -1.396  -3.208  0.00  0.00    +0.160 A 
ATOM     25  N   LIG    1        3.884  -2.275  -4.163  0.00  0.00    -0.360 N 
ATOM     26  N   LIG    1        2.488  -2.354  -4.213  0.00  0.00    -0.300 NA
ATOM     27  C   LIG    1        4.815  -3.024  -5.011  0.00  0.00    +0.350 C 
ATOM     28  C   LIG    1        5.630  -1.005  -2.818  0.00  0.00    +0.170 C 
ATOM     29  C   LIG    1        1.987  -1.554  -3.312  0.00  0.00    +0.260 A 
ENDBRANCH  21  23
ENDBRANCH  18  19
ENDBRANCH   7  18
TORSDOF 5
