REMARK  Name = ZINCpe000000Ws9h.0
REMARK                            x       y       z     vdW  Elec       q    Type
REMARK                         _______ _______ _______ _____ _____    ______ ____
ROOT
ATOM      1  N   LIG    1        3.583  -0.273   0.488  0.00  0.00    -0.730 N 
ATOM      2  H   LIG    1        3.681  -1.236   0.418  0.00  0.00    +0.410 HD
ENDROOT
BRANCH   1   6
ATOM      3  C   LIG    1       -0.204   1.467   0.281  0.00  0.00    +0.050 A 
ATOM      4  C   LIG    1        0.917   2.262   0.450  0.00  0.00    +0.000 A 
ATOM      5  C   LIG    1        2.172   1.685   0.518  0.00  0.00    -0.050 A 
ATOM      6  C   LIG    1        2.312   0.308   0.418  0.00  0.00    +0.220 A 
ATOM      7  C   LIG    1        1.191  -0.494   0.249  0.00  0.00    -0.040 A 
ATOM      8  C   LIG    1       -0.068   0.084   0.180  0.00  0.00    +0.170 A 
BRANCH   3  10
ATOM      9  C   LIG    1       -1.503   3.459   0.320  0.00  0.00    +0.230 C 
ATOM     10  O   LIG    1       -1.438   2.036   0.209  0.00  0.00    -0.320 OA
ENDBRANCH   3  10
BRANCH   8  11
ATOM     11  N   LIG    1       -1.200  -0.721   0.009  0.00  0.00    -1.050 N 
ATOM     12  H   LIG    1       -1.944  -0.404  -0.525  0.00  0.00    +0.430 HD
BRANCH  11  13
ATOM     13  S   LIG    1       -1.267  -2.216   0.718  0.00  0.00    +2.610 S 
ATOM     14  O   LIG    1       -0.111  -2.886   0.235  0.00  0.00    -0.950 OA
ATOM     15  O   LIG    1       -2.571  -2.691   0.411  0.00  0.00    -0.950 OA
ATOM     16  C   LIG    1       -1.114  -1.882   2.495  0.00  0.00    -0.280 C 
ENDBRANCH  11  13
ENDBRANCH   8  11
ENDBRANCH   1   6
BRANCH   1  17
ATOM     17  C   LIG    1        4.766   0.572   0.666  0.00  0.00    +0.250 C 
ATOM     18  C   LIG    1        4.973   0.852   2.156  0.00  0.00    +0.050 C 
BRANCH  17  19
ATOM     19  C   LIG    1        5.977  -0.135   0.115  0.00  0.00    +0.510 C 
ATOM     20  N   LIG    1        7.187   0.457   0.171  0.00  0.00    -0.690 N 
ATOM     21  H   LIG    1        7.278   1.338   0.565  0.00  0.00    +0.410 HD
ATOM     22  C   LIG    1        8.270  -0.176  -0.322  0.00  0.00    +0.700 C 
ATOM     23  N   LIG    1        9.479   0.415  -0.267  0.00  0.00    -0.710 N 
ATOM     24  H   LIG    1        9.570   1.297   0.128  0.00  0.00    +0.400 HD
ATOM     25  O   LIG    1        8.156  -1.281  -0.817  0.00  0.00    -0.520 OA
ATOM     26  O   LIG    1        5.863  -1.237  -0.378  0.00  0.00    -0.450 OA
BRANCH  23  27
ATOM     27  C   LIG    1       10.657  -0.272  -0.803  0.00  0.00    +0.230 C 
ATOM     28  C   LIG    1       11.939  -0.230   0.030  0.00  0.00    +0.020 C 
ATOM     29  C   LIG    1       11.835   0.592  -1.256  0.00  0.00    +0.020 C 
ENDBRANCH  23  27
ENDBRANCH  17  19
ENDBRANCH   1  17
TORSDOF 7
