REMARK  Name = ZINCrD00000hQ588.0
REMARK                            x       y       z     vdW  Elec       q    Type
REMARK                         _______ _______ _______ _____ _____    ______ ____
ROOT
ATOM      1  C   LIG    1        0.961   3.605  -0.001  0.00  0.00    -0.180 A 
ATOM      2  C   LIG    1        2.116   4.387  -0.068  0.00  0.00    +0.060 A 
ATOM      3  C   LIG    1        3.347   3.784  -0.216  0.00  0.00    -0.020 A 
ATOM      4  C   LIG    1        3.445   2.405  -0.300  0.00  0.00    +0.060 A 
ATOM      5  C   LIG    1        2.312   1.618  -0.230  0.00  0.00    +0.020 A 
ATOM      6  C   LIG    1        1.064   2.208  -0.086  0.00  0.00    +0.230 A 
ENDROOT
BRANCH   6   7
ATOM      7  N   LIG    1       -0.081   1.417  -0.021  0.00  0.00    -0.680 N 
ATOM      8  H   LIG    1       -0.908   1.727  -0.421  0.00  0.00    +0.420 HD
ATOM      9  C   LIG    1       -0.037   0.218   0.593  0.00  0.00    +0.710 C 
ATOM     10  N   LIG    1       -1.164  -0.507   0.736  0.00  0.00    -0.620 N 
ATOM     11  C   LIG    1       -2.426  -0.057   0.133  0.00  0.00    +0.260 C 
ATOM     12  C   LIG    1       -2.989  -1.196  -0.731  0.00  0.00    +0.010 C 
ATOM     13  C   LIG    1       -3.116  -2.460   0.123  0.00  0.00    +0.020 C 
ATOM     14  C   LIG    1       -1.734  -2.877   0.629  0.00  0.00    +0.010 C 
ATOM     15  C   LIG    1       -1.155  -1.760   1.503  0.00  0.00    +0.300 C 
ATOM     16  O   LIG    1        1.019  -0.209   1.018  0.00  0.00    -0.580 OA
ENDBRANCH   6   7
BRANCH   1  19
ATOM     17  N   LIG    1       -0.446   5.576   0.339  0.00  0.00    -0.720 N 
ATOM     18  H   LIG    1        0.360   6.115   0.366  0.00  0.00    +0.400 HD
ATOM     19  C   LIG    1       -0.359   4.244   0.157  0.00  0.00    +0.570 C 
ATOM     20  O   LIG    1       -1.369   3.568   0.124  0.00  0.00    -0.540 OA
BRANCH  17  21
ATOM     21  C   LIG    1       -1.757   6.210   0.497  0.00  0.00    +0.260 C 
BRANCH  21  22
ATOM     22  C   LIG    1       -1.575   7.718   0.687  0.00  0.00    +0.100 C 
BRANCH  22  23
ATOM     23  C   LIG    1       -2.944   8.380   0.851  0.00  0.00    +0.030 C 
ATOM     24  N   LIG    1       -4.067   7.563   1.317  0.00  0.00    -0.120 NA
ATOM     25  N   LIG    1       -4.081   7.833   0.107  0.00  0.00    -0.120 NA
BRANCH  23  26
ATOM     26  C   LIG    1       -2.937   9.873   1.184  0.00  0.00    +0.120 C 
BRANCH  26  27
ATOM     27  C   LIG    1       -4.377  10.374   1.313  0.00  0.00    +0.160 C 
BRANCH  27  29
ATOM     28  C   LIG    1       -4.364  12.957   1.888  0.00  0.00    +0.030 C 
ATOM     29  C   LIG    1       -4.370  11.811   1.633  0.00  0.00    -0.190 C 
ENDBRANCH  27  29
ENDBRANCH  26  27
ENDBRANCH  23  26
ENDBRANCH  22  23
ENDBRANCH  21  22
ENDBRANCH  17  21
ENDBRANCH   1  19
TORSDOF 8
