REMARK  Name = ZINCpk000000nute.0
REMARK                            x       y       z     vdW  Elec       q    Type
REMARK                         _______ _______ _______ _____ _____    ______ ____
ROOT
ATOM      1  C   LIG    1       -0.042   3.956   1.094  0.00  0.00    +0.150 C 
ATOM      2  C   LIG    1        1.221   3.095   1.174  0.00  0.00    +0.040 C 
ATOM      3  C   LIG    1        1.238   2.109   0.002  0.00  0.00    +0.290 C 
ATOM      4  N   LIG    1       -0.016   1.344   0.009  0.00  0.00    -0.610 N 
ATOM      5  C   LIG    1       -1.290   2.075   0.019  0.00  0.00    +0.280 C 
ATOM      6  C   LIG    1        0.002  -0.004   0.002  0.00  0.00    +0.510 C 
ATOM      7  O   LIG    1        1.060  -0.596  -0.011  0.00  0.00    -0.520 OA
ATOM      8  C   LIG    1       -1.279   3.061   1.198  0.00  0.00    +0.000 C 
ENDROOT
BRANCH   1   9
ATOM      9  O   LIG    1       -0.045   4.898   2.168  0.00  0.00    -0.380 OA
BRANCH   9  10
ATOM     10  C   LIG    1       -0.718   6.122   1.866  0.00  0.00    +0.170 C 
BRANCH  10  12
ATOM     11  C   LIG    1       -1.268   8.405   2.718  0.00  0.00    +0.030 C 
ATOM     12  C   LIG    1       -0.658   7.050   3.081  0.00  0.00    -0.020 C 
ATOM     13  C   LIG    1       -1.447   6.429   4.236  0.00  0.00    +0.020 C 
ENDBRANCH  10  12
ENDBRANCH   9  10
ENDBRANCH   1   9
BRANCH   6  14
ATOM     14  C   LIG    1       -1.293  -0.775   0.010  0.00  0.00    +0.360 C 
BRANCH  14  15
ATOM     15  N   LIG    1       -1.005  -2.212  -0.000  0.00  0.00    -0.450 N 
ATOM     16  N   LIG    1       -0.880  -2.889  -1.216  0.00  0.00    +0.090 NA
ATOM     17  N   LIG    1       -0.629  -4.146  -1.292  0.00  0.00    -0.190 NA
ATOM     18  C   LIG    1       -0.466  -4.914  -0.186  0.00  0.00    +0.060 A 
ATOM     19  C   LIG    1       -0.192  -6.280  -0.285  0.00  0.00    +0.080 A 
ATOM     20  C   LIG    1       -0.031  -7.029   0.860  0.00  0.00    +0.070 A 
ATOM     21  C   LIG    1       -0.139  -6.443   2.114  0.00  0.00    +0.040 A 
ATOM     22  C   LIG    1       -0.408  -5.097   2.237  0.00  0.00    +0.100 A 
ATOM     23  C   LIG    1       -0.573  -4.321   1.091  0.00  0.00    -0.150 A 
ATOM     24  C   LIG    1       -0.856  -2.880   1.168  0.00  0.00    +0.540 A 
ATOM     25  O   LIG    1       -0.956  -2.311   2.240  0.00  0.00    -0.500 OA
ENDBRANCH  14  15
ENDBRANCH   6  14
TORSDOF 5
