REMARK  Name = ZINCrD00000748xk.0
REMARK                            x       y       z     vdW  Elec       q    Type
REMARK                         _______ _______ _______ _____ _____    ______ ____
ROOT
ATOM      1  N   LIG    1        3.469  -2.155   0.541  0.00  0.00    -0.720 N 
ATOM      2  H   LIG    1        2.600  -2.579   0.462  0.00  0.00    +0.400 HD
ATOM      3  C   LIG    1        4.472  -2.786   1.183  0.00  0.00    +0.520 C 
ATOM      4  O   LIG    1        5.557  -2.255   1.282  0.00  0.00    -0.510 OA
ENDROOT
BRANCH   1   6
ATOM      5  C   LIG    1        4.244  -0.974  -1.456  0.00  0.00    +0.040 C 
ATOM      6  C   LIG    1        3.690  -0.827  -0.037  0.00  0.00    +0.280 C 
BRANCH   6   7
ATOM      7  C   LIG    1        2.385  -0.075  -0.083  0.00  0.00    -0.080 A 
ATOM      8  C   LIG    1        1.208  -0.752  -0.167  0.00  0.00    +0.010 A 
ATOM      9  C   LIG    1       -0.009  -0.074  -0.210  0.00  0.00    +0.020 A 
ATOM     10  C   LIG    1       -0.055   1.286  -0.170  0.00  0.00    +0.030 A 
ATOM     11  C   LIG    1        1.140   2.020  -0.084  0.00  0.00    -0.050 A 
ATOM     12  C   LIG    1        1.132   3.424  -0.040  0.00  0.00    +0.020 A 
ATOM     13  C   LIG    1        2.310   4.102   0.044  0.00  0.00    +0.020 A 
ATOM     14  C   LIG    1        3.526   3.424   0.087  0.00  0.00    +0.020 A 
ATOM     15  C   LIG    1        3.573   2.064   0.047  0.00  0.00    +0.020 A 
ATOM     16  C   LIG    1        2.378   1.330  -0.039  0.00  0.00    -0.040 A 
ENDBRANCH   6   7
ENDBRANCH   1   6
BRANCH   3  17
ATOM     17  C   LIG    1        4.244  -4.152   1.778  0.00  0.00    +0.270 C 
BRANCH  17  18
ATOM     18  O   LIG    1        5.466  -4.614   2.410  0.00  0.00    -0.330 OA
BRANCH  18  19
ATOM     19  C   LIG    1        5.431  -5.828   2.994  0.00  0.00    +0.510 C 
ATOM     20  O   LIG    1        4.408  -6.481   2.976  0.00  0.00    -0.500 OA
BRANCH  19  21
ATOM     21  C   LIG    1        6.638  -6.363   3.657  0.00  0.00    -0.120 A 
ATOM     22  C   LIG    1        7.818  -5.617   3.675  0.00  0.00    +0.080 A 
ATOM     23  C   LIG    1        8.940  -6.121   4.300  0.00  0.00    +0.020 A 
ATOM     24  C   LIG    1        8.900  -7.368   4.899  0.00  0.00    -0.060 A 
ATOM     25  C   LIG    1        7.736  -8.115   4.880  0.00  0.00    +0.030 A 
ATOM     26  C   LIG    1        6.605  -7.621   4.264  0.00  0.00    +0.090 A 
BRANCH  24  27
ATOM     27  C   LIG    1       10.131  -7.915   5.575  0.00  0.00    +0.230 C 
BRANCH  27  28
ATOM     28  O   LIG    1       10.904  -8.656   4.629  0.00  0.00    -0.570 OA
ATOM     29  H   LIG    1       11.713  -9.038   4.996  0.00  0.00    +0.380 HD
ENDBRANCH  27  28
ENDBRANCH  24  27
ENDBRANCH  19  21
ENDBRANCH  18  19
ENDBRANCH  17  18
ENDBRANCH   3  17
TORSDOF 8
