REMARK  Name = ZINCrH000004tSYr.1
REMARK                            x       y       z     vdW  Elec       q    Type
REMARK                         _______ _______ _______ _____ _____    ______ ____
ROOT
ATOM      1  O   LIG    1        0.610   6.076  -0.860  0.00  0.00    -0.450 OA
ATOM      2  C   LIG    1       -0.292   6.136  -0.052  0.00  0.00    +0.510 C 
ATOM      3  N   LIG    1       -0.643   7.325   0.479  0.00  0.00    -0.630 N 
ATOM      4  H   LIG    1       -1.364   7.373   1.126  0.00  0.00    +0.430 HD
ENDROOT
BRANCH   3   5
ATOM      5  C   LIG    1        0.029   8.481   0.099  0.00  0.00    +0.230 A 
ATOM      6  N   LIG    1        1.010   8.543  -0.750  0.00  0.00    -0.270 NA
ATOM      7  N   LIG    1        1.509   9.678  -0.988  0.00  0.00    -0.200 NA
ATOM      8  C   LIG    1        0.997  10.682  -0.349  0.00  0.00    -0.000 A 
ATOM      9  S   LIG    1       -0.295  10.060   0.679  0.00  0.00    +0.130 S 
BRANCH   8  10
ATOM     10  C   LIG    1        1.427  12.121  -0.463  0.00  0.00    +0.270 C 
ATOM     11  C   LIG    1        2.799  12.329   0.226  0.00  0.00    +0.040 C 
ATOM     12  C   LIG    1        3.323  13.580  -0.530  0.00  0.00    +0.020 C 
ATOM     13  C   LIG    1        2.754  13.366  -1.950  0.00  0.00    +0.210 C 
ATOM     14  O   LIG    1        1.643  12.469  -1.840  0.00  0.00    -0.360 OA
ENDBRANCH   8  10
ENDBRANCH   3   5
BRANCH   2  15
ATOM     15  C   LIG    1       -1.020   4.883   0.360  0.00  0.00    +0.120 C 
BRANCH  15  16
ATOM     16  C   LIG    1       -0.431   3.683  -0.384  0.00  0.00    +0.190 C 
ATOM     17  C   LIG    1       -1.154   2.375   0.016  0.00  0.00    +0.100 C 
ATOM     18  C   LIG    1       -0.017   1.373   0.010  0.00  0.00    -0.180 A 
ATOM     19  C   LIG    1        0.002  -0.004   0.002  0.00  0.00    +0.120 A 
ATOM     20  C   LIG    1        1.210  -0.679  -0.021  0.00  0.00    -0.220 A 
ATOM     21  C   LIG    1        2.394   0.034  -0.036  0.00  0.00    +0.120 A 
ATOM     22  C   LIG    1        2.378   1.413  -0.025  0.00  0.00    +0.000 A 
ATOM     23  C   LIG    1        1.167   2.100   0.002  0.00  0.00    +0.150 A 
ATOM     24  O   LIG    1        0.923   3.439   0.035  0.00  0.00    -0.280 OA
BRANCH  20  25
ATOM     25  C   LIG    1        1.234  -2.186  -0.028  0.00  0.00    +0.510 C 
ATOM     26  F   LIG    1        0.110  -2.674   0.647  0.00  0.00    -0.180 F 
ATOM     27  F   LIG    1        2.394  -2.637   0.610  0.00  0.00    -0.180 F 
ATOM     28  F   LIG    1        1.220  -2.646  -1.350  0.00  0.00    -0.180 F 
ENDBRANCH  20  25
ENDBRANCH  15  16
ENDBRANCH   2  15
TORSDOF 5
