REMARK  Name = ZINCrD000000D73f.0
REMARK                            x       y       z     vdW  Elec       q    Type
REMARK                         _______ _______ _______ _____ _____    ______ ____
ROOT
ATOM      1  C   LIG    1        0.002  -0.004   0.002  0.00  0.00    -0.750 A 
ATOM      2  C   LIG    1        1.222  -0.668  -0.013  0.00  0.00    +0.200 A 
ATOM      3  C   LIG    1        2.383   0.084  -0.020  0.00  0.00    -0.020 A 
ATOM      4  C   LIG    1        2.290   1.472  -0.012  0.00  0.00    +0.160 A 
ATOM      5  N   LIG    1        1.107   2.069   0.003  0.00  0.00    -0.500 NA
ATOM      6  C   LIG    1       -0.017   1.377   0.010  0.00  0.00    +0.400 A 
ENDROOT
BRANCH   1   8
ATOM      7  O   LIG    1       -1.199  -2.195   0.546  0.00  0.00    -0.950 OA
ATOM      8  S   LIG    1       -1.506  -0.914   0.011  0.00  0.00    +2.720 S 
ATOM      9  O   LIG    1       -2.491  -0.055   0.569  0.00  0.00    -0.950 OA
BRANCH   8  10
ATOM     10  N   LIG    1       -1.941  -1.159  -1.568  0.00  0.00    -1.010 NA
ATOM     11  C   LIG    1       -2.788  -0.266  -2.372  0.00  0.00    +0.270 C 
ATOM     12  C   LIG    1       -2.938  -0.910  -3.767  0.00  0.00    +0.030 C 
ATOM     13  C   LIG    1       -2.643  -2.408  -3.489  0.00  0.00    +0.040 C 
ATOM     14  C   LIG    1       -1.547  -2.312  -2.399  0.00  0.00    +0.270 C 
ENDBRANCH   8  10
ENDBRANCH   1   8
BRANCH   4  15
ATOM     15  S   LIG    1        3.758   2.446  -0.021  0.00  0.00    -0.040 S 
BRANCH  15  16
ATOM     16  C   LIG    1        3.122   4.145  -0.005  0.00  0.00    +0.160 C 
BRANCH  16  17
ATOM     17  C   LIG    1        4.276   5.114  -0.011  0.00  0.00    -0.100 A 
ATOM     18  C   LIG    1        4.812   5.555   1.184  0.00  0.00    +0.070 A 
ATOM     19  C   LIG    1        5.873   6.439   1.182  0.00  0.00    -0.010 A 
ATOM     20  C   LIG    1        6.395   6.893  -0.022  0.00  0.00    +0.170 A 
ATOM     21  C   LIG    1        5.851   6.452  -1.221  0.00  0.00    +0.020 A 
ATOM     22  C   LIG    1        4.793   5.564  -1.212  0.00  0.00    +0.070 A 
BRANCH  20  23
ATOM     23  N   LIG    1        7.468   7.794  -0.027  0.00  0.00    -0.330 N 
ATOM     24  C   LIG    1        8.085   8.304   1.063  0.00  0.00    +0.230 A 
ATOM     25  C   LIG    1        9.067   9.129   0.632  0.00  0.00    -0.100 A 
ATOM     26  C   LIG    1        9.046   9.131  -0.767  0.00  0.00    +0.250 A 
ATOM     27  N   LIG    1        8.088   8.331  -1.163  0.00  0.00    -0.290 NA
ENDBRANCH  20  23
ENDBRANCH  16  17
ENDBRANCH  15  16
ENDBRANCH   4  15
TORSDOF 6
