REMARK  Name = ZINCvU0000000DFB.0
REMARK                            x       y       z     vdW  Elec       q    Type
REMARK                         _______ _______ _______ _____ _____    ______ ____
ROOT
ATOM      1  C   LIG    1       -4.819   1.245   0.208  0.00  0.00    -0.050 A 
ATOM      2  C   LIG    1       -3.602   1.914   0.114  0.00  0.00    +0.070 A 
ATOM      3  C   LIG    1       -2.417   1.195   0.113  0.00  0.00    +0.110 A 
ATOM      4  C   LIG    1       -2.443  -0.191   0.199  0.00  0.00    +0.030 A 
ATOM      5  C   LIG    1       -3.649  -0.859   0.298  0.00  0.00    -0.060 A 
ATOM      6  C   LIG    1       -4.838  -0.150   0.300  0.00  0.00    +0.130 A 
ENDROOT
BRANCH   1  10
ATOM      7  C   LIG    1       -8.465   3.436   0.213  0.00  0.00    +0.130 A 
ATOM      8  C   LIG    1       -7.436   3.800   1.072  0.00  0.00    -0.020 A 
ATOM      9  C   LIG    1       -6.253   3.092   1.072  0.00  0.00    +0.070 A 
ATOM     10  C   LIG    1       -6.090   2.009   0.210  0.00  0.00    -0.080 A 
ATOM     11  C   LIG    1       -7.123   1.649  -0.654  0.00  0.00    +0.080 A 
ATOM     12  C   LIG    1       -8.306   2.357  -0.646  0.00  0.00    -0.080 A 
BRANCH   7  14
ATOM     13  C   LIG    1      -10.645   3.707  -0.694  0.00  0.00    +0.250 C 
ATOM     14  O   LIG    1       -9.629   4.136   0.214  0.00  0.00    -0.320 OA
ENDBRANCH   7  14
ENDBRANCH   1  10
BRANCH   3  15
ATOM     15  N   LIG    1       -1.191   1.867   0.018  0.00  0.00    -0.670 N 
ATOM     16  H   LIG    1       -0.409   1.516   0.472  0.00  0.00    +0.410 HD
ATOM     17  C   LIG    1       -1.098   3.001  -0.704  0.00  0.00    +0.520 C 
ATOM     18  O   LIG    1       -2.049   3.389  -1.349  0.00  0.00    -0.510 OA
BRANCH  17  19
ATOM     19  C   LIG    1        0.186   3.791  -0.705  0.00  0.00    +0.080 C 
BRANCH  19  20
ATOM     20  C   LIG    1        0.023   5.027  -1.592  0.00  0.00    +0.230 C 
BRANCH  20  21
ATOM     21  C   LIG    1        1.307   5.816  -1.593  0.00  0.00    +0.190 A 
ATOM     22  N   LIG    1        2.310   5.668  -2.422  0.00  0.00    -0.470 NA
ATOM     23  C   LIG    1        3.230   6.587  -2.046  0.00  0.00    +0.240 A 
ATOM     24  N   LIG    1        2.738   7.227  -1.014  0.00  0.00    -0.370 NA
ATOM     25  O   LIG    1        1.637   6.795  -0.745  0.00  0.00    +0.090 OA
BRANCH  23  26
ATOM     26  C   LIG    1        4.546   6.820  -2.677  0.00  0.00    -0.140 A 
ATOM     27  C   LIG    1        5.446   7.744  -2.283  0.00  0.00    +0.060 A 
ATOM     28  C   LIG    1        6.606   7.771  -3.026  0.00  0.00    +0.010 A 
ATOM     29  C   LIG    1        6.659   6.888  -4.028  0.00  0.00    -0.030 A 
ATOM     30  S   LIG    1        5.177   5.942  -4.064  0.00  0.00    +0.190 S 
ENDBRANCH  23  26
ENDBRANCH  20  21
ENDBRANCH  19  20
ENDBRANCH  17  19
ENDBRANCH   3  15
BRANCH   6  31
ATOM     31  O   LIG    1       -6.024  -0.810   0.393  0.00  0.00    -0.310 OA
ATOM     32  C   LIG    1       -5.968  -2.235   0.484  0.00  0.00    +0.240 C 
ENDBRANCH   6  31
TORSDOF 8
