REMARK  Name = ZINCrD00000F5LyZ.0
REMARK                            x       y       z     vdW  Elec       q    Type
REMARK                         _______ _______ _______ _____ _____    ______ ____
ROOT
ATOM      1  C   LIG    1       -2.367   4.426   0.307  0.00  0.00    +0.370 C 
ENDROOT
BRANCH   1   2
ATOM      2  N   LIG    1       -2.100   5.858   0.468  0.00  0.00    -0.330 N 
ATOM      3  N   LIG    1       -2.091   6.363   1.648  0.00  0.00    -0.210 NA
ATOM      4  C   LIG    1       -1.859   7.636   1.865  0.00  0.00    +0.100 A 
ATOM      5  C   LIG    1       -1.607   8.509   0.781  0.00  0.00    +0.100 A 
ATOM      6  C   LIG    1       -1.614   7.990  -0.480  0.00  0.00    -0.010 A 
ATOM      7  C   LIG    1       -1.867   6.608  -0.625  0.00  0.00    +0.480 A 
ATOM      8  O   LIG    1       -1.878   6.098  -1.734  0.00  0.00    -0.520 OA
BRANCH   4   9
ATOM      9  C   LIG    1       -1.861   8.162   3.252  0.00  0.00    -0.010 A 
ATOM     10  C   LIG    1       -1.609   9.512   3.488  0.00  0.00    +0.050 A 
ATOM     11  C   LIG    1       -1.617   9.997   4.780  0.00  0.00    +0.050 A 
ATOM     12  C   LIG    1       -1.863   9.143   5.841  0.00  0.00    -0.080 A 
ATOM     13  C   LIG    1       -2.107   7.800   5.612  0.00  0.00    +0.050 A 
ATOM     14 BR   LIG    1       -1.864   9.813   7.609  0.00  0.00    -0.040 Br
ATOM     15  C   LIG    1       -2.108   7.306   4.324  0.00  0.00    +0.060 A 
ENDBRANCH   4   9
ENDBRANCH   1   2
BRANCH   1  18
ATOM     16  N   LIG    1       -1.067   2.324   0.228  0.00  0.00    -0.660 N 
ATOM     17  H   LIG    1       -1.907   1.842   0.171  0.00  0.00    +0.410 HD
ATOM     18  C   LIG    1       -1.067   3.665   0.356  0.00  0.00    +0.500 C 
ATOM     19  O   LIG    1       -0.021   4.260   0.510  0.00  0.00    -0.510 OA
BRANCH  16  23
ATOM     20  C   LIG    1        2.542   0.237   0.088  0.00  0.00    +0.210 A 
ATOM     21  C   LIG    1        2.420   1.359   0.896  0.00  0.00    -0.050 A 
ATOM     22  C   LIG    1        1.226   2.051   0.941  0.00  0.00    +0.070 A 
ATOM     23  C   LIG    1        0.147   1.625   0.178  0.00  0.00    +0.080 A 
ATOM     24  C   LIG    1        0.269   0.502  -0.630  0.00  0.00    +0.040 A 
ATOM     25  C   LIG    1        1.463  -0.190  -0.675  0.00  0.00    -0.050 A 
BRANCH  20  27
ATOM     26  C   LIG    1        4.849  -0.090   0.938  0.00  0.00    +0.280 C 
ATOM     27  N   LIG    1        3.751  -0.465   0.043  0.00  0.00    -0.640 N 
ATOM     28  C   LIG    1        3.920  -1.574  -0.899  0.00  0.00    +0.280 C 
ENDBRANCH  20  27
ENDBRANCH  16  23
ENDBRANCH   1  18
TORSDOF 5
