REMARK  Name = ZINCpk00001AZiZg.0
REMARK                            x       y       z     vdW  Elec       q    Type
REMARK                         _______ _______ _______ _____ _____    ______ ____
ROOT
ATOM      1  N   LIG    1        3.483   5.486  -1.913  0.00  0.00    -0.610 N 
ATOM      2  C   LIG    1        2.680   4.559  -1.356  0.00  0.00    +0.510 C 
ATOM      3  O   LIG    1        2.525   3.485  -1.899  0.00  0.00    -0.500 OA
ENDROOT
BRANCH   2   4
ATOM      4  C   LIG    1        1.973   4.855  -0.058  0.00  0.00    +0.280 C 
ATOM      5  C   LIG    1        2.980   4.808   1.093  0.00  0.00    +0.070 C 
BRANCH   4   6
ATOM      6  N   LIG    1        0.927   3.855   0.167  0.00  0.00    -0.620 N 
ATOM      7  C   LIG    1       -0.509   4.140   0.306  0.00  0.00    +0.250 C 
ATOM      8  C   LIG    1       -1.143   2.752   0.517  0.00  0.00    +0.250 C 
ATOM      9  N   LIG    1        0.004   1.832   0.484  0.00  0.00    -0.750 N 
ATOM     10  H   LIG    1       -0.044   0.869   0.589  0.00  0.00    +0.430 HD
ATOM     11  C   LIG    1        1.126   2.535   0.280  0.00  0.00    +0.710 C 
ATOM     12  O   LIG    1        2.225   2.022   0.205  0.00  0.00    -0.560 OA
ENDBRANCH   4   6
ENDBRANCH   2   4
BRANCH   1  13
ATOM     13  C   LIG    1        4.064   5.253  -3.238  0.00  0.00    +0.370 C 
BRANCH  13  16
ATOM     14  C   LIG    1        4.183   8.239  -4.160  0.00  0.00    +0.140 C 
ATOM     15  C   LIG    1        3.244   7.185  -4.686  0.00  0.00    +0.100 A 
ATOM     16  C   LIG    1        3.192   5.893  -4.288  0.00  0.00    -0.260 A 
ATOM     17  C   LIG    1        2.183   5.257  -5.018  0.00  0.00    +0.250 A 
ATOM     18  N   LIG    1        1.651   6.135  -5.830  0.00  0.00    -0.300 NA
ATOM     19  N   LIG    1        2.307   7.359  -5.641  0.00  0.00    -0.370 N 
ATOM     20  C   LIG    1        2.022   8.608  -6.351  0.00  0.00    +0.350 C 
ENDBRANCH  13  16
ENDBRANCH   1  13
BRANCH   1  21
ATOM     21  C   LIG    1        3.777   6.728  -1.193  0.00  0.00    +0.270 C 
BRANCH  21  22
ATOM     22  C   LIG    1        5.261   6.765  -0.823  0.00  0.00    +0.000 C 
ATOM     23  C   LIG    1        5.612   5.590   0.059  0.00  0.00    -0.040 C 
ATOM     24  C   LIG    1        6.357   5.963   1.065  0.00  0.00    -0.050 C 
ATOM     25  C   LIG    1        6.626   7.449   1.020  0.00  0.00    +0.050 C 
ATOM     26  C   LIG    1        5.571   8.012   0.037  0.00  0.00    +0.030 C 
ENDBRANCH  21  22
ENDBRANCH   1  21
TORSDOF 6
