REMARK  Name = ZINCrH000004mupL.0
REMARK                            x       y       z     vdW  Elec       q    Type
REMARK                         _______ _______ _______ _____ _____    ______ ____
ROOT
ATOM      1  C   LIG    1       -5.930  -0.796  -0.682  0.00  0.00    +0.570 C 
ATOM      2  N   LIG    1       -6.086  -1.917   0.051  0.00  0.00    -0.660 N 
ATOM      3  H   LIG    1       -5.324  -2.307   0.508  0.00  0.00    +0.410 HD
ATOM      4  O   LIG    1       -6.861  -0.360  -1.331  0.00  0.00    -0.490 OA
ENDROOT
BRANCH   1   8
ATOM      5  C   LIG    1       -2.188   1.211  -0.722  0.00  0.00    +0.230 A 
ATOM      6  C   LIG    1       -2.347   0.055   0.034  0.00  0.00    -0.060 A 
ATOM      7  C   LIG    1       -3.558  -0.599   0.049  0.00  0.00    +0.160 A 
ATOM      8  C   LIG    1       -4.630  -0.099  -0.696  0.00  0.00    -0.180 A 
ATOM      9  C   LIG    1       -4.466   1.064  -1.454  0.00  0.00    +0.230 A 
ATOM     10  C   LIG    1       -3.253   1.715  -1.460  0.00  0.00    -0.050 A 
BRANCH  10  11
ATOM     11  N   LIG    1       -3.081   2.950  -2.257  0.00  0.00    -0.020 N 
ATOM     12  O   LIG    1       -1.919   3.571  -2.267  0.00  0.00    -0.140 OA
ATOM     13  O   LIG    1       -4.089   3.428  -2.957  0.00  0.00    -0.180 OA
ENDBRANCH  10  11
BRANCH   5  15
ATOM     14  C   LIG    1        0.057   1.284   0.051  0.00  0.00    +0.270 C 
ATOM     15  O   LIG    1       -0.993   1.853  -0.734  0.00  0.00    -0.270 OA
ENDBRANCH   5  15
ENDBRANCH   1   8
BRANCH   2  16
ATOM     16  C   LIG    1       -7.330  -2.511   0.149  0.00  0.00    +0.180 A 
ATOM     17  C   LIG    1       -7.433  -3.905   0.245  0.00  0.00    -0.030 A 
ATOM     18  C   LIG    1       -8.656  -4.493   0.347  0.00  0.00    +0.100 A 
ATOM     19  C   LIG    1       -9.820  -3.699   0.345  0.00  0.00    -0.150 A 
ATOM     20  C   LIG    1       -9.712  -2.299   0.243  0.00  0.00    +0.100 A 
ATOM     21  C   LIG    1       -8.485  -1.718   0.147  0.00  0.00    +0.010 A 
BRANCH  19  22
ATOM     22  S   LIG    1      -11.406  -4.456   0.471  0.00  0.00    +0.100 S 
BRANCH  22  23
ATOM     23  C   LIG    1      -11.691  -4.823  -1.177  0.00  0.00    +0.090 A 
ATOM     24  N   LIG    1      -10.906  -4.471  -2.202  0.00  0.00    -0.450 NA
ATOM     25  C   LIG    1      -11.428  -4.919  -3.320  0.00  0.00    +0.160 A 
ATOM     26  C   LIG    1      -12.619  -5.600  -3.003  0.00  0.00    +0.120 A 
ATOM     27  N   LIG    1      -12.762  -5.534  -1.666  0.00  0.00    -0.410 N 
ATOM     28  C   LIG    1      -13.857  -6.108  -0.879  0.00  0.00    +0.340 C 
ENDBRANCH  22  23
ENDBRANCH  19  22
ENDBRANCH   2  16
TORSDOF 6
