REMARK  Name = ZINCfA000000yvFx.0
REMARK                            x       y       z     vdW  Elec       q    Type
REMARK                         _______ _______ _______ _____ _____    ______ ____
ROOT
ATOM      1  C   LIG    1        3.712  -0.708  -0.037  0.00  0.00    +0.280 C 
ENDROOT
BRANCH   1   2
ATOM      2  C   LIG    1        2.397   0.028  -0.021  0.00  0.00    -0.120 A 
ATOM      3  C   LIG    1        1.210  -0.679  -0.013  0.00  0.00    +0.060 A 
ATOM      4  C   LIG    1        0.002  -0.004   0.002  0.00  0.00    -0.020 A 
ATOM      5  C   LIG    1       -0.017   1.379   0.010  0.00  0.00    +0.060 A 
ATOM      6  C   LIG    1        1.172   2.086   0.002  0.00  0.00    -0.020 A 
ATOM      7 CL   LIG    1        1.149   3.822   0.011  0.00  0.00    -0.030 Cl
ATOM      8 CL   LIG    1       -1.489  -0.893   0.011  0.00  0.00    -0.030 Cl
ATOM      9  C   LIG    1        2.379   1.410  -0.013  0.00  0.00    +0.040 A 
ENDBRANCH   1   2
BRANCH   1  10
ATOM     10  O   LIG    1        4.659   0.027  -0.815  0.00  0.00    -0.540 OA
ATOM     11  H   LIG    1        4.835   0.917  -0.482  0.00  0.00    +0.390 HD
ENDBRANCH   1  10
BRANCH   1  12
ATOM     12  C   LIG    1        4.232  -0.855   1.394  0.00  0.00    +0.240 C 
BRANCH  12  13
ATOM     13  N   LIG    1        5.514  -1.572   1.378  0.00  0.00    -0.500 N 
ATOM     14  H   LIG    1        6.183  -1.054   0.829  0.00  0.00    +0.430 HD
ATOM     15  H   LIG    1        5.383  -2.487   0.972  0.00  0.00    +0.430 HD
BRANCH  13  17
ATOM     16  C   LIG    1        7.283  -2.567   2.748  0.00  0.00    +0.090 C 
ATOM     17  C   LIG    1        6.013  -1.714   2.752  0.00  0.00    +0.160 C 
ATOM     18  C   LIG    1        6.331  -0.330   3.324  0.00  0.00    +0.080 C 
ENDBRANCH  13  17
ENDBRANCH  12  13
ENDBRANCH   1  12
TORSDOF 5
