REMARK  Name = ZINCkj000005jUf3.0
REMARK                            x       y       z     vdW  Elec       q    Type
REMARK                         _______ _______ _______ _____ _____    ______ ____
ROOT
ATOM      1  C   LIG    1        2.116   9.392   1.486  0.00  0.00    +0.110 C 
ATOM      2  C   LIG    1        1.987   7.869   1.424  0.00  0.00    +0.150 C 
ATOM      3  C   LIG    1        1.097   7.479   0.234  0.00  0.00    +0.330 C 
ATOM      4  N   LIG    1        1.093   6.013   0.122  0.00  0.00    -0.630 N 
ATOM      5  C   LIG    1        2.389   5.315   0.109  0.00  0.00    +0.310 C 
ATOM      6  C   LIG    1        3.218   5.807   1.300  0.00  0.00    +0.270 C 
ATOM      7  C   LIG    1       -0.064   5.327   0.028  0.00  0.00    +0.580 C 
ATOM      8  O   LIG    1       -1.121   5.925  -0.029  0.00  0.00    -0.490 OA
ATOM      9  N   LIG    1        3.317   7.272   1.254  0.00  0.00    -0.500 N 
ATOM     10  H   LIG    1        3.699   7.554   0.363  0.00  0.00    +0.430 HD
ATOM     11  H   LIG    1        3.925   7.590   1.994  0.00  0.00    +0.430 HD
ENDROOT
BRANCH   7  12
ATOM     12  C   LIG    1       -0.047   3.849  -0.005  0.00  0.00    -0.120 A 
ATOM     13  C   LIG    1        0.816   3.178  -0.873  0.00  0.00    +0.020 A 
ATOM     14  C   LIG    1        0.829   1.798  -0.902  0.00  0.00    +0.060 A 
ATOM     15  C   LIG    1       -0.011   1.077  -0.074  0.00  0.00    +0.020 A 
ATOM     16  C   LIG    1       -0.876   1.736   0.790  0.00  0.00    +0.180 A 
ATOM     17  C   LIG    1       -0.893   3.121   0.831  0.00  0.00    +0.080 A 
BRANCH  16  18
ATOM     18  N   LIG    1       -1.730   1.000   1.624  0.00  0.00    -0.340 N 
ATOM     19  C   LIG    1       -1.750  -0.346   1.753  0.00  0.00    +0.230 A 
ATOM     20  C   LIG    1       -2.711  -0.659   2.653  0.00  0.00    -0.090 A 
ATOM     21  C   LIG    1       -3.304   0.533   3.082  0.00  0.00    +0.270 A 
ATOM     22  N   LIG    1       -2.717   1.528   2.467  0.00  0.00    -0.290 NA
ENDBRANCH  16  18
ENDBRANCH   7  12
TORSDOF 2
