REMARK  Name = ZINCrD000000C8Oa.0
REMARK                            x       y       z     vdW  Elec       q    Type
REMARK                         _______ _______ _______ _____ _____    ______ ____
ROOT
ATOM      1  O   LIG    1       -2.361   5.250  -0.052  0.00  0.00    -0.510 OA
ATOM      2  C   LIG    1       -1.333   5.895  -0.058  0.00  0.00    +0.520 C 
ATOM      3  N   LIG    1       -0.143   5.268   0.030  0.00  0.00    -0.660 N 
ATOM      4  H   LIG    1        0.673   5.785   0.107  0.00  0.00    +0.410 HD
ENDROOT
BRANCH   3   5
ATOM      5  C   LIG    1       -0.087   3.874   0.011  0.00  0.00    +0.160 A 
ATOM      6  C   LIG    1       -1.092   3.144  -0.587  0.00  0.00    +0.020 A 
ATOM      7  C   LIG    1       -1.041   1.754  -0.613  0.00  0.00    +0.060 A 
ATOM      8  C   LIG    1       -0.006   1.077  -0.044  0.00  0.00    +0.030 A 
ATOM      9  C   LIG    1        1.041   1.781   0.576  0.00  0.00    +0.140 A 
ATOM     10  N   LIG    1        2.069   1.135   1.136  0.00  0.00    -0.470 NA
ATOM     11  C   LIG    1        3.048   1.786   1.716  0.00  0.00    +0.290 A 
ATOM     12  C   LIG    1        3.068   3.176   1.778  0.00  0.00    -0.030 A 
ATOM     13  C   LIG    1        2.047   3.898   1.224  0.00  0.00    +0.070 A 
ATOM     14  C   LIG    1        1.000   3.197   0.604  0.00  0.00    -0.120 A 
ENDBRANCH   3   5
BRANCH   2  15
ATOM     15  C   LIG    1       -1.387   7.397  -0.163  0.00  0.00    -0.010 C 
ATOM     16  C   LIG    1       -0.637   7.849  -1.418  0.00  0.00    +0.040 C 
ATOM     17  C   LIG    1       -0.663   9.376  -1.508  0.00  0.00    +0.030 C 
ATOM     18  C   LIG    1       -2.115   9.853  -1.614  0.00  0.00    +0.290 C 
ATOM     19  N   LIG    1       -2.877   9.302  -0.485  0.00  0.00    -1.000 NA
ATOM     20  C   LIG    1       -2.847   7.852  -0.253  0.00  0.00    +0.330 C 
BRANCH  19  21
ATOM     21  S   LIG    1       -3.754  10.297   0.507  0.00  0.00    +2.720 S 
ATOM     22  O   LIG    1       -3.171  11.588   0.397  0.00  0.00    -0.950 OA
ATOM     23  O   LIG    1       -3.894   9.610   1.743  0.00  0.00    -0.940 OA
BRANCH  21  24
ATOM     24  C   LIG    1       -5.372  10.422  -0.179  0.00  0.00    -0.800 A 
ATOM     25  C   LIG    1       -6.394   9.614   0.109  0.00  0.00    +0.170 A 
ATOM     26  C   LIG    1       -7.574   9.907  -0.553  0.00  0.00    -0.010 A 
ATOM     27  C   LIG    1       -7.510  10.953  -1.379  0.00  0.00    +0.010 A 
ATOM     28  S   LIG    1       -5.890  11.637  -1.341  0.00  0.00    +0.210 S 
ENDBRANCH  21  24
ENDBRANCH  19  21
ENDBRANCH   2  15
TORSDOF 4
