REMARK  Name = ZINCnE000001Ia1f.1
REMARK                            x       y       z     vdW  Elec       q    Type
REMARK                         _______ _______ _______ _____ _____    ______ ____
ROOT
ATOM      1  N   LIG    1       -0.017   1.386   0.010  0.00  0.00    -0.710 NA
ATOM      2  C   LIG    1        1.141   2.075   0.002  0.00  0.00    +0.660 C 
ATOM      3  N   LIG    1        1.123   3.423   0.010  0.00  0.00    -0.740 N 
ATOM      4  H   LIG    1        0.276   3.897   0.020  0.00  0.00    +0.390 HD
ATOM      5  O   LIG    1        2.202   1.482  -0.011  0.00  0.00    -0.610 OA
ENDROOT
BRANCH   1   9
ATOM      6  C   LIG    1       -0.366  -2.439  -0.007  0.00  0.00    -0.330 A 
ATOM      7  C   LIG    1        0.908  -2.042  -0.017  0.00  0.00    +0.230 A 
ATOM      8  N   LIG    1        1.075  -0.732  -0.012  0.00  0.00    -0.560 NA
ATOM      9  C   LIG    1        0.002  -0.004   0.002  0.00  0.00    +0.360 A 
ATOM     10  S   LIG    1       -1.386  -1.002   0.017  0.00  0.00    +0.010 S 
BRANCH   6  12
ATOM     11  C   LIG    1       -0.998  -4.357   1.431  0.00  0.00    +0.010 C 
ATOM     12  C   LIG    1       -0.848  -3.866  -0.010  0.00  0.00    +0.100 C 
ENDBRANCH   6  12
ENDBRANCH   1   9
BRANCH   3  13
ATOM     13  C   LIG    1        2.381   4.173   0.002  0.00  0.00    +0.390 C 
BRANCH  13  14
ATOM     14  C   LIG    1        2.160   5.533   0.612  0.00  0.00    +0.200 A 
ATOM     15  N   LIG    1        2.930   6.130   1.489  0.00  0.00    -0.480 NA
ATOM     16  C   LIG    1        2.342   7.313   1.741  0.00  0.00    +0.200 A 
ATOM     17  N   LIG    1        1.264   7.373   1.018  0.00  0.00    -0.390 NA
ATOM     18  O   LIG    1        1.144   6.363   0.357  0.00  0.00    +0.080 OA
BRANCH  16  19
ATOM     19  C   LIG    1        2.841   8.373   2.689  0.00  0.00    +0.060 C 
ATOM     20  C   LIG    1        1.914   9.556   2.977  0.00  0.00    +0.050 C 
ATOM     21  C   LIG    1        3.155   9.752   2.105  0.00  0.00    +0.050 C 
ENDBRANCH  16  19
ENDBRANCH  13  14
BRANCH  13  22
ATOM     22  C   LIG    1        2.870   4.333  -1.439  0.00  0.00    -0.030 C 
ATOM     23  C   LIG    1        1.820   5.092  -2.252  0.00  0.00    +0.030 C 
ATOM     24  C   LIG    1        3.095   2.953  -2.058  0.00  0.00    +0.050 C 
ENDBRANCH  13  22
ENDBRANCH   3  13
TORSDOF 6
