REMARK  Name = ZINCrD000000Bt7P.0
REMARK                            x       y       z     vdW  Elec       q    Type
REMARK                         _______ _______ _______ _____ _____    ______ ____
ROOT
ATOM      1  O   LIG    1        4.198   5.943   0.022  0.00  0.00    -0.530 OA
ATOM      2  C   LIG    1        4.980   5.018   0.122  0.00  0.00    +0.560 C 
ATOM      3  N   LIG    1        4.763   3.875  -0.557  0.00  0.00    -0.720 N 
ATOM      4  H   LIG    1        5.387   3.137  -0.477  0.00  0.00    +0.400 HD
ENDROOT
BRANCH   2   5
ATOM      5  C   LIG    1        6.168   5.147   0.989  0.00  0.00    -0.160 A 
ATOM      6  C   LIG    1        7.066   4.083   1.110  0.00  0.00    +0.090 A 
ATOM      7  C   LIG    1        8.176   4.209   1.915  0.00  0.00    -0.060 A 
ATOM      8  C   LIG    1        8.398   5.389   2.615  0.00  0.00    +0.130 A 
ATOM      9  C   LIG    1        7.505   6.448   2.501  0.00  0.00    +0.000 A 
ATOM     10  C   LIG    1        6.396   6.332   1.694  0.00  0.00    +0.130 A 
BRANCH   8  11
ATOM     11  O   LIG    1        9.490   5.507   3.412  0.00  0.00    -0.320 OA
BRANCH  11  12
ATOM     12  C   LIG    1       10.367   4.380   3.483  0.00  0.00    +0.600 C 
ATOM     13  F   LIG    1       10.862   4.094   2.207  0.00  0.00    -0.200 F 
ATOM     14  F   LIG    1        9.664   3.273   3.970  0.00  0.00    -0.200 F 
ENDBRANCH  11  12
ENDBRANCH   8  11
ENDBRANCH   2   5
BRANCH   3  15
ATOM     15  C   LIG    1        3.583   3.747  -1.417  0.00  0.00    +0.320 C 
BRANCH  15  16
ATOM     16  C   LIG    1        3.575   2.383  -2.058  0.00  0.00    -0.110 A 
ATOM     17  C   LIG    1        3.968   2.236  -3.375  0.00  0.00    +0.040 A 
ATOM     18  C   LIG    1        3.954   0.985  -3.964  0.00  0.00    +0.010 A 
ATOM     19  C   LIG    1        3.552  -0.118  -3.235  0.00  0.00    +0.010 A 
ATOM     20  C   LIG    1        3.164   0.028  -1.916  0.00  0.00    +0.010 A 
ATOM     21  C   LIG    1        3.178   1.278  -1.327  0.00  0.00    -0.080 A 
BRANCH  21  22
ATOM     22  C   LIG    1        2.755   1.439   0.110  0.00  0.00    +0.350 C 
BRANCH  22  23
ATOM     23  N   LIG    1        2.509   0.119   0.697  0.00  0.00    -0.620 N 
ATOM     24  C   LIG    1        1.192  -0.526   0.761  0.00  0.00    +0.250 C 
ATOM     25  C   LIG    1        1.333  -1.647   1.815  0.00  0.00    +0.040 C 
ATOM     26  C   LIG    1        2.851  -1.945   1.755  0.00  0.00    +0.050 C 
ATOM     27  C   LIG    1        3.460  -0.657   1.246  0.00  0.00    +0.520 C 
ATOM     28  O   LIG    1        4.635  -0.368   1.317  0.00  0.00    -0.520 OA
ENDBRANCH  22  23
ENDBRANCH  21  22
ENDBRANCH  15  16
ENDBRANCH   3  15
TORSDOF 7
