REMARK  Name = ZINCkj000005iBZN.1
REMARK                            x       y       z     vdW  Elec       q    Type
REMARK                         _______ _______ _______ _____ _____    ______ ____
ROOT
ATOM      1  C   LIG    1        3.485   1.644  -1.274  0.00  0.00    +0.330 C 
ENDROOT
BRANCH   1   6
ATOM      2  C   LIG    1        3.701   5.178  -2.578  0.00  0.00    +0.260 C 
ATOM      3  C   LIG    1        3.625   5.871  -1.372  0.00  0.00    -0.040 C 
ATOM      4  C   LIG    1        3.507   5.160  -0.196  0.00  0.00    +0.210 C 
ATOM      5  N   LIG    1        3.467   3.842  -0.203  0.00  0.00    -0.470 NA
ATOM      6  C   LIG    1        3.536   3.149  -1.325  0.00  0.00    +0.150 C 
ATOM      7  H   LIG    1        3.384   3.368   0.639  0.00  0.00    +0.440 HD
ATOM      8  C   LIG    1        3.424   5.900   1.115  0.00  0.00    +0.190 C 
ATOM      9  C   LIG    1        3.660   3.786  -2.542  0.00  0.00    +0.030 C 
BRANCH   2  11
ATOM     10  C   LIG    1        3.858   7.268  -3.696  0.00  0.00    +0.300 C 
ATOM     11  O   LIG    1        3.818   5.841  -3.756  0.00  0.00    -0.270 OA
ENDBRANCH   2  11
ENDBRANCH   1   6
BRANCH   1  12
ATOM     12  N   LIG    1        2.084   1.202  -1.249  0.00  0.00    -0.510 NA
ATOM     13  C   LIG    1        1.423   1.617  -0.003  0.00  0.00    +0.150 C 
ATOM     14  C   LIG    1       -0.013   1.086   0.008  0.00  0.00    +0.180 C 
ATOM     15  O   LIG    1       -0.700   1.560  -1.153  0.00  0.00    -0.360 OA
ATOM     16  C   LIG    1       -0.084   1.175  -2.385  0.00  0.00    +0.120 C 
ATOM     17  C   LIG    1       -0.066  -0.352  -2.492  0.00  0.00    +0.040 C 
ATOM     18  C   LIG    1       -0.874   1.760  -3.557  0.00  0.00    +0.080 C 
ATOM     19  C   LIG    1        1.351   1.706  -2.420  0.00  0.00    +0.170 C 
BRANCH  14  20
ATOM     20  C   LIG    1       -0.731   1.580   1.266  0.00  0.00    +0.200 C 
BRANCH  20  21
ATOM     21  O   LIG    1       -2.031   0.993   1.333  0.00  0.00    -0.560 OA
ATOM     22  H   LIG    1       -2.545   1.262   2.107  0.00  0.00    +0.390 HD
ENDBRANCH  20  21
ENDBRANCH  14  20
ENDBRANCH   1  12
TORSDOF 5
