REMARK  Name = ZINCnE000001TDfv.0
REMARK                            x       y       z     vdW  Elec       q    Type
REMARK                         _______ _______ _______ _____ _____    ______ ____
ROOT
ATOM      1  C   LIG    1        4.238   1.060  -3.089  0.00  0.00    -0.130 A 
ATOM      2  C   LIG    1        3.761  -0.184  -3.506  0.00  0.00    +0.020 A 
ATOM      3  C   LIG    1        2.567  -0.656  -3.011  0.00  0.00    +0.010 A 
ATOM      4  C   LIG    1        1.830   0.091  -2.099  0.00  0.00    -0.090 A 
ATOM      5  C   LIG    1        2.297   1.319  -1.679  0.00  0.00    -0.090 A 
ATOM      6  C   LIG    1        1.552   2.174  -0.687  0.00  0.00    +0.060 C 
ATOM      7  C   LIG    1        0.096   1.724  -0.578  0.00  0.00    +0.020 C 
ATOM      8  C   LIG    1        0.075   0.211  -0.330  0.00  0.00    -0.020 C 
ATOM      9  C   LIG    1        0.530  -0.492  -1.607  0.00  0.00    +0.220 C 
ATOM     10  C   LIG    1        3.496   1.806  -2.173  0.00  0.00    +0.030 A 
ENDROOT
BRANCH   1  12
ATOM     11  O   LIG    1        5.927   2.672  -3.243  0.00  0.00    -0.690 OA
ATOM     12  C   LIG    1        5.515   1.582  -3.612  0.00  0.00    +0.520 C 
ATOM     13  O   LIG    1        6.161   0.924  -4.415  0.00  0.00    -0.690 OA
ENDBRANCH   1  12
BRANCH   9  14
ATOM     14  N   LIG    1        0.716  -1.923  -1.331  0.00  0.00    -0.670 NA
ATOM     15  H   LIG    1        1.114  -2.066  -0.415  0.00  0.00    +0.350 HD
BRANCH  14  16
ATOM     16  C   LIG    1       -0.549  -2.655  -1.476  0.00  0.00    +0.280 C 
BRANCH  16  17
ATOM     17  C   LIG    1       -0.296  -4.132  -1.312  0.00  0.00    +0.020 A 
ATOM     18  N   LIG    1        0.089  -4.964  -2.236  0.00  0.00    -0.320 NA
ATOM     19  O   LIG    1        0.208  -6.087  -1.802  0.00  0.00    +0.130 OA
ATOM     20  C   LIG    1       -0.092  -6.145  -0.497  0.00  0.00    -0.130 A 
ATOM     21  C   LIG    1       -0.425  -4.886  -0.123  0.00  0.00    +0.010 A 
BRANCH  20  22
ATOM     22  C   LIG    1       -0.060  -7.369   0.382  0.00  0.00    +0.510 C 
ATOM     23  F   LIG    1       -1.337  -7.599   0.907  0.00  0.00    -0.180 F 
ATOM     24  F   LIG    1        0.845  -7.167   1.429  0.00  0.00    -0.180 F 
ENDBRANCH  20  22
ENDBRANCH  16  17
ENDBRANCH  14  16
ENDBRANCH   9  14
TORSDOF 5
