REMARK  Name = ZINCrg00000J1LI4.0
REMARK                            x       y       z     vdW  Elec       q    Type
REMARK                         _______ _______ _______ _____ _____    ______ ____
ROOT
ATOM      1  C   LIG    1       -5.472  -0.540  -3.768  0.00  0.00    +0.270 C 
ENDROOT
BRANCH   1   2
ATOM      2  C   LIG    1       -6.725  -1.208  -4.274  0.00  0.00    +0.520 C 
ATOM      3  N   LIG    1       -7.592  -0.521  -5.043  0.00  0.00    -0.670 N 
ATOM      4  H   LIG    1       -7.444   0.421  -5.218  0.00  0.00    +0.420 HD
ATOM      5  O   LIG    1       -6.952  -2.365  -3.988  0.00  0.00    -0.480 OA
BRANCH   3   6
ATOM      6  C   LIG    1       -8.707  -1.167  -5.590  0.00  0.00    +0.210 A 
ATOM      7  C   LIG    1       -9.346  -2.174  -4.878  0.00  0.00    +0.060 A 
ATOM      8  C   LIG    1      -10.450  -2.806  -5.418  0.00  0.00    +0.140 A 
ATOM      9  C   LIG    1      -10.911  -2.446  -6.671  0.00  0.00    -0.050 A 
ATOM     10  C   LIG    1      -10.273  -1.448  -7.386  0.00  0.00    +0.150 A 
ATOM     11  C   LIG    1       -9.173  -0.807  -6.849  0.00  0.00    -0.070 A 
ATOM     12 CL   LIG    1       -8.372   0.445  -7.747  0.00  0.00    -0.030 Cl
BRANCH   9  13
ATOM     13  N   LIG    1      -12.089  -3.130  -7.249  0.00  0.00    +0.030 N 
ATOM     14  O   LIG    1      -12.652  -4.009  -6.620  0.00  0.00    -0.150 OA
ATOM     15  O   LIG    1      -12.497  -2.814  -8.352  0.00  0.00    -0.150 OA
ENDBRANCH   9  13
ENDBRANCH   3   6
ENDBRANCH   1   2
BRANCH   1  16
ATOM     16  O   LIG    1       -4.710  -1.482  -2.969  0.00  0.00    -0.330 OA
BRANCH  16  17
ATOM     17  C   LIG    1       -3.558  -1.040  -2.441  0.00  0.00    +0.460 C 
ATOM     18  O   LIG    1       -3.198   0.097  -2.640  0.00  0.00    -0.490 OA
BRANCH  17  19
ATOM     19  C   LIG    1       -2.712  -1.961  -1.599  0.00  0.00    +0.430 C 
BRANCH  19  25
ATOM     20  C   LIG    1       -0.061   1.541   0.068  0.00  0.00    +0.090 C 
ATOM     21  C   LIG    1       -0.036   0.011   0.057  0.00  0.00    +0.120 C 
ATOM     22  N   LIG    1        0.584  -0.488  -1.182  0.00  0.00    -0.720 N 
ATOM     23  H   LIG    1        1.493  -0.327  -1.482  0.00  0.00    +0.440 HD
ATOM     24  C   LIG    1       -0.360  -1.211  -1.817  0.00  0.00    +0.710 C 
ATOM     25  N   LIG    1       -1.516  -1.247  -1.145  0.00  0.00    -0.570 N 
ATOM     26  O   LIG    1       -0.181  -1.770  -2.882  0.00  0.00    -0.530 OA
ATOM     27  C   LIG    1        0.707  -0.522   1.284  0.00  0.00    +0.090 C 
ATOM     28  C   LIG    1       -1.445  -0.545   0.004  0.00  0.00    +0.540 C 
ATOM     29  O   LIG    1       -2.324  -0.392   0.824  0.00  0.00    -0.450 OA
ENDBRANCH  19  25
ENDBRANCH  17  19
ENDBRANCH  16  17
ENDBRANCH   1  16
TORSDOF 7
