REMARK  Name = ZINCrH000004uNOD.0
REMARK                            x       y       z     vdW  Elec       q    Type
REMARK                         _______ _______ _______ _____ _____    ______ ____
ROOT
ATOM      1  C   LIG    1       -5.793   4.094  -4.386  0.00  0.00    +0.270 C 
ENDROOT
BRANCH   1   2
ATOM      2  C   LIG    1       -6.534   2.965  -5.056  0.00  0.00    -0.100 A 
ATOM      3  C   LIG    1       -6.900   1.849  -4.326  0.00  0.00    +0.000 A 
ATOM      4  C   LIG    1       -7.582   0.816  -4.940  0.00  0.00    +0.000 A 
ATOM      5  C   LIG    1       -7.892   0.894  -6.285  0.00  0.00    +0.000 A 
ATOM      6  C   LIG    1       -7.521   2.008  -7.016  0.00  0.00    +0.000 A 
ATOM      7  C   LIG    1       -6.842   3.043  -6.401  0.00  0.00    +0.030 A 
ENDBRANCH   1   2
BRANCH   1  10
ATOM      8  O   LIG    1       -3.306   3.306  -5.070  0.00  0.00    -0.530 OA
ATOM      9  C   LIG    1       -3.589   3.179  -3.894  0.00  0.00    +0.580 C 
ATOM     10  N   LIG    1       -4.808   3.544  -3.451  0.00  0.00    -0.700 N 
ATOM     11  H   LIG    1       -5.033   3.443  -2.513  0.00  0.00    +0.420 HD
BRANCH   9  12
ATOM     12  C   LIG    1       -2.592   2.624  -2.949  0.00  0.00    +0.080 A 
ATOM     13  C   LIG    1       -1.334   2.248  -3.414  0.00  0.00    +0.040 A 
ATOM     14  C   LIG    1       -0.415   1.731  -2.514  0.00  0.00    +0.070 A 
ATOM     15  C   LIG    1       -0.785   1.607  -1.184  0.00  0.00    -0.120 A 
ATOM     16  C   LIG    1       -0.013   1.086   0.008  0.00  0.00    +0.090 C 
ATOM     17  C   LIG    1       -0.777   1.604   1.245  0.00  0.00    +0.050 C 
ATOM     18  C   LIG    1       -2.215   1.766   0.700  0.00  0.00    +0.110 C 
ATOM     19  C   LIG    1       -2.054   2.000  -0.788  0.00  0.00    +0.120 A 
ATOM     20  N   LIG    1       -2.906   2.489  -1.668  0.00  0.00    -0.450 NA
ENDBRANCH   9  12
ENDBRANCH   1  10
BRANCH   1  21
ATOM     21  C   LIG    1       -6.785   4.973  -3.623  0.00  0.00    +0.270 C 
BRANCH  21  22
ATOM     22  C   LIG    1       -7.724   5.635  -4.599  0.00  0.00    -0.120 A 
ATOM     23  C   LIG    1       -8.850   4.965  -5.038  0.00  0.00    +0.020 A 
ATOM     24  C   LIG    1       -9.713   5.574  -5.930  0.00  0.00    +0.000 A 
ATOM     25  C   LIG    1       -9.444   6.850  -6.389  0.00  0.00    +0.010 A 
ATOM     26  C   LIG    1       -8.315   7.518  -5.954  0.00  0.00    +0.000 A 
ATOM     27  C   LIG    1       -7.455   6.911  -5.059  0.00  0.00    +0.010 A 
ENDBRANCH  21  22
BRANCH  21  28
ATOM     28  O   LIG    1       -7.536   4.165  -2.714  0.00  0.00    -0.550 OA
ATOM     29  H   LIG    1       -8.046   3.463  -3.140  0.00  0.00    +0.380 HD
ENDBRANCH  21  28
ENDBRANCH   1  21
TORSDOF 6
