REMARK  Name = ZINCpe000000URVQ.0
REMARK                            x       y       z     vdW  Elec       q    Type
REMARK                         _______ _______ _______ _____ _____    ______ ____
ROOT
ATOM      1  N   LIG    1       -0.337   7.537   0.824  0.00  0.00    -0.710 N 
ATOM      2  H   LIG    1       -0.268   7.930  -0.060  0.00  0.00    +0.400 HD
ATOM      3  C   LIG    1       -0.348   8.329   1.914  0.00  0.00    +0.590 C 
ATOM      4  O   LIG    1       -0.521   7.844   3.017  0.00  0.00    -0.530 OA
ENDROOT
BRANCH   1   8
ATOM      5  N   LIG    1        0.308   3.443   0.067  0.00  0.00    -0.520 NA
ATOM      6  C   LIG    1        0.869   3.978   1.314  0.00  0.00    +0.180 C 
ATOM      7  C   LIG    1        0.965   5.503   1.219  0.00  0.00    +0.030 C 
ATOM      8  C   LIG    1       -0.431   6.083   0.974  0.00  0.00    +0.240 C 
ATOM      9  C   LIG    1       -1.012   5.473  -0.305  0.00  0.00    +0.040 C 
ATOM     10  C   LIG    1       -1.050   3.949  -0.165  0.00  0.00    +0.180 C 
BRANCH   5  11
ATOM     11  C   LIG    1        0.330   1.974   0.068  0.00  0.00    +0.220 C 
BRANCH  11  15
ATOM     12  C   LIG    1        3.412  -0.297   0.049  0.00  0.00    +0.290 C 
ATOM     13  N   LIG    1        2.023   0.171   0.061  0.00  0.00    -0.740 N 
ATOM     14  H   LIG    1        1.296  -0.470   0.069  0.00  0.00    +0.400 HD
ATOM     15  C   LIG    1        1.758   1.493   0.061  0.00  0.00    +0.510 C 
ATOM     16  O   LIG    1        2.668   2.294   0.051  0.00  0.00    -0.520 OA
ENDBRANCH  11  15
ENDBRANCH   5  11
ENDBRANCH   1   8
BRANCH   3  17
ATOM     17  C   LIG    1       -0.151   9.776   1.772  0.00  0.00    -0.090 A 
ATOM     18  C   LIG    1        0.003  10.472   0.605  0.00  0.00    +0.220 A 
ATOM     19  N   LIG    1        0.151  11.760   0.914  0.00  0.00    -0.490 NA
ATOM     20  C   LIG    1        0.108  11.910   2.214  0.00  0.00    +0.440 A 
ATOM     21  N   LIG    1       -0.077  10.708   2.792  0.00  0.00    -0.380 N 
BRANCH  21  22
ATOM     22  C   LIG    1       -0.178  10.450   4.165  0.00  0.00    +0.100 A 
ATOM     23  C   LIG    1       -1.300   9.807   4.672  0.00  0.00    +0.060 A 
ATOM     24  C   LIG    1       -1.394   9.549   6.026  0.00  0.00    +0.020 A 
ATOM     25  C   LIG    1       -0.377   9.940   6.877  0.00  0.00    +0.030 A 
ATOM     26  C   LIG    1        0.739  10.585   6.376  0.00  0.00    +0.020 A 
ATOM     27  C   LIG    1        0.841  10.841   5.023  0.00  0.00    +0.020 A 
ENDBRANCH  21  22
ENDBRANCH   3  17
TORSDOF 5
