REMARK  Name = ZINCpk00000xIgKb.0
REMARK                            x       y       z     vdW  Elec       q    Type
REMARK                         _______ _______ _______ _____ _____    ______ ____
ROOT
ATOM      1  S   LIG    1       -6.238   3.213   1.052  0.00  0.00    -0.100 S 
ENDROOT
BRANCH   1   2
ATOM      2  C   LIG    1       -6.861   3.547   2.723  0.00  0.00    +0.070 C 
BRANCH   2   8
ATOM      3  C   LIG    1      -11.156   4.530   4.521  0.00  0.00    +0.150 C 
ATOM      4  C   LIG    1      -10.130   5.310   3.685  0.00  0.00    +0.270 C 
ATOM      5  N   LIG    1       -8.840   4.611   3.757  0.00  0.00    -0.600 N 
ATOM      6  C   LIG    1       -8.274   4.306   5.079  0.00  0.00    +0.260 C 
ATOM      7  C   LIG    1       -9.319   3.542   5.898  0.00  0.00    +0.030 C 
ATOM      8  C   LIG    1       -8.186   4.259   2.632  0.00  0.00    +0.540 C 
ATOM      9  O   LIG    1       -8.663   4.516   1.548  0.00  0.00    -0.520 OA
ATOM     10  C   LIG    1      -10.617   4.350   5.942  0.00  0.00    -0.010 C 
ATOM     11  C   LIG    1      -11.652   3.607   6.788  0.00  0.00    +0.020 C 
BRANCH   3  13
ATOM     12  C   LIG    1      -12.442   3.228   2.973  0.00  0.00    +0.200 C 
ATOM     13  O   LIG    1      -11.381   3.249   3.930  0.00  0.00    -0.370 OA
ENDBRANCH   3  13
ENDBRANCH   2   8
ENDBRANCH   1   2
BRANCH   1  14
ATOM     14  C   LIG    1       -4.664   2.368   1.364  0.00  0.00    +0.070 C 
BRANCH  14  15
ATOM     15  C   LIG    1       -4.013   2.018   0.051  0.00  0.00    +0.540 C 
ATOM     16  N   LIG    1       -2.826   1.380   0.036  0.00  0.00    -0.600 N 
ATOM     17  C   LIG    1       -2.154   1.019   1.292  0.00  0.00    +0.260 C 
ATOM     18  C   LIG    1       -0.729   1.579   1.268  0.00  0.00    +0.030 C 
ATOM     19  C   LIG    1       -0.013   1.086   0.008  0.00  0.00    -0.010 C 
ATOM     20  C   LIG    1       -0.752   1.593  -1.232  0.00  0.00    +0.150 C 
ATOM     21  C   LIG    1        1.423   1.615  -0.003  0.00  0.00    +0.020 C 
ATOM     22  C   LIG    1       -2.178   1.033  -1.236  0.00  0.00    +0.270 C 
ATOM     23  O   LIG    1       -4.557   2.310  -0.993  0.00  0.00    -0.520 OA
BRANCH  20  24
ATOM     24  O   LIG    1       -0.800   3.021  -1.209  0.00  0.00    -0.370 OA
ATOM     25  C   LIG    1       -0.822   3.623  -2.504  0.00  0.00    +0.200 C 
ENDBRANCH  20  24
ENDBRANCH  14  15
ENDBRANCH   1  14
TORSDOF 6
