REMARK  Name = ZINCrg00000SjSqn.0
REMARK                            x       y       z     vdW  Elec       q    Type
REMARK                         _______ _______ _______ _____ _____    ______ ____
ROOT
ATOM      1  C   LIG    1       -0.772   3.471   8.329  0.00  0.00    +0.520 C 
ATOM      2  N   LIG    1       -0.261   3.837   9.521  0.00  0.00    -0.550 N 
ATOM      3  C   LIG    1        1.189   3.787   9.777  0.00  0.00    +0.280 C 
ATOM      4  C   LIG    1        1.397   3.223  11.185  0.00  0.00    +0.170 C 
ATOM      5  O   LIG    1        0.710   4.053  12.124  0.00  0.00    -0.280 OA
ATOM      6  C   LIG    1       -0.586   4.370  11.860  0.00  0.00    +0.090 A 
ATOM      7  C   LIG    1       -1.411   4.797  12.888  0.00  0.00    +0.020 A 
ATOM      8  C   LIG    1       -2.728   5.129  12.627  0.00  0.00    +0.030 A 
ATOM      9  C   LIG    1       -3.228   5.036  11.342  0.00  0.00    +0.010 A 
ATOM     10  C   LIG    1       -2.413   4.609  10.310  0.00  0.00    +0.050 A 
ATOM     11  C   LIG    1       -1.093   4.275  10.566  0.00  0.00    +0.070 A 
ATOM     12  O   LIG    1       -1.974   3.414   8.177  0.00  0.00    -0.480 OA
ENDROOT
BRANCH   4  13
ATOM     13  C   LIG    1        2.868   3.204  11.510  0.00  0.00    +0.530 C 
ATOM     14  O   LIG    1        3.303   3.909  12.396  0.00  0.00    -0.500 OA
ATOM     15  N   LIG    1        3.701   2.403  10.817  0.00  0.00    -0.850 N 
ATOM     16  H   LIG    1        4.649   2.391  11.026  0.00  0.00    +0.410 HD
ATOM     17  H   LIG    1        3.354   1.839  10.108  0.00  0.00    +0.400 HD
ENDBRANCH   4  13
BRANCH   1  18
ATOM     18  C   LIG    1        0.149   3.132   7.186  0.00  0.00    +0.270 C 
BRANCH  18  19
ATOM     19  O   LIG    1       -0.635   2.887   5.989  0.00  0.00    -0.320 OA
BRANCH  19  20
ATOM     20  C   LIG    1        0.043   2.569   4.868  0.00  0.00    +0.530 C 
ATOM     21  O   LIG    1        1.256   2.499   4.891  0.00  0.00    -0.520 OA
BRANCH  20  27
ATOM     22  C   LIG    1        0.037   1.156   0.069  0.00  0.00    +0.090 C 
ATOM     23  C   LIG    1       -0.697   1.625   1.299  0.00  0.00    -0.180 A 
ATOM     24  C   LIG    1       -2.062   1.817   1.255  0.00  0.00    +0.100 A 
ATOM     25  C   LIG    1       -2.748   2.243   2.382  0.00  0.00    -0.060 A 
ATOM     26  C   LIG    1       -2.071   2.491   3.557  0.00  0.00    +0.130 A 
ATOM     27  C   LIG    1       -0.687   2.307   3.616  0.00  0.00    -0.220 A 
ATOM     28  C   LIG    1        0.004   1.870   2.474  0.00  0.00    +0.290 A 
BRANCH  28  29
ATOM     29  N   LIG    1        1.379   1.682   2.519  0.00  0.00    -0.850 N 
ATOM     30  H   LIG    1        1.875   1.924   3.317  0.00  0.00    +0.420 HD
ATOM     31  H   LIG    1        1.843   1.309   1.753  0.00  0.00    +0.400 HD
ENDBRANCH  28  29
ENDBRANCH  20  27
ENDBRANCH  19  20
ENDBRANCH  18  19
ENDBRANCH   1  18
TORSDOF 6
