REMARK  Name = ZINCb800000011fV.0
REMARK                            x       y       z     vdW  Elec       q    Type
REMARK                         _______ _______ _______ _____ _____    ______ ____
ROOT
ATOM      1  C   LIG    1       -0.197   0.846  -0.093  0.00  0.00    +0.100 C 
ATOM      2  C   LIG    1       -0.703   1.479   1.205  0.00  0.00    +0.210 C 
ATOM      3  N   LIG    1       -2.121   1.147   1.426  0.00  0.00    -0.660 N 
ATOM      4  H   LIG    1       -2.867   1.381   0.852  0.00  0.00    +0.460 HD
ATOM      5  C   LIG    1       -2.176   0.453   2.581  0.00  0.00    +0.540 C 
ATOM      6  N   LIG    1       -0.971   0.296   3.141  0.00  0.00    -0.510 N 
ATOM      7  S   LIG    1       -3.626  -0.155   3.257  0.00  0.00    -0.540 S 
ATOM      8  C   LIG    1       -0.001   0.872   2.404  0.00  0.00    +0.520 C 
ATOM      9  O   LIG    1        1.186   0.899   2.648  0.00  0.00    -0.440 OA
ENDROOT
BRANCH   6  10
ATOM     10  C   LIG    1       -0.735  -0.415   4.400  0.00  0.00    +0.230 C 
ATOM     11  C   LIG    1        0.624  -0.222   5.076  0.00  0.00    +0.050 C 
ATOM     12  C   LIG    1        0.293  -1.548   4.389  0.00  0.00    +0.050 C 
ENDBRANCH   6  10
TORSDOF 1
