REMARK  Name = ZINCvU0000000Eeu.0
REMARK                            x       y       z     vdW  Elec       q    Type
REMARK                         _______ _______ _______ _____ _____    ______ ____
ROOT
ATOM      1  N   LIG    1       -3.608   1.789   0.029  0.00  0.00    -0.520 N 
ATOM      2  C   LIG    1       -4.126   2.211   1.211  0.00  0.00    +0.600 A 
ATOM      3  N   LIG    1       -5.121   3.045   1.266  0.00  0.00    -0.500 NA
ATOM      4  C   LIG    1       -5.703   3.530   0.147  0.00  0.00    +0.070 A 
ATOM      5  C   LIG    1       -5.227   3.137  -1.098  0.00  0.00    -0.210 A 
ATOM      6  C   LIG    1       -5.967   3.754  -2.190  0.00  0.00    -0.010 A 
ATOM      7  C   LIG    1       -6.948   4.568  -1.800  0.00  0.00    -0.190 A 
ATOM      8  C   LIG    1       -7.853   5.322  -2.739  0.00  0.00    +0.150 C 
ATOM      9  S   LIG    1       -7.047   4.647  -0.051  0.00  0.00    +0.210 S 
ATOM     10  C   LIG    1       -4.129   2.224  -1.135  0.00  0.00    +0.560 A 
ATOM     11  O   LIG    1       -3.672   1.846  -2.200  0.00  0.00    -0.500 OA
ENDROOT
BRANCH   6  12
ATOM     12  C   LIG    1       -5.655   3.498  -3.616  0.00  0.00    -0.020 A 
ATOM     13  C   LIG    1       -4.435   3.910  -4.151  0.00  0.00    +0.030 A 
ATOM     14  C   LIG    1       -4.149   3.665  -5.478  0.00  0.00    +0.000 A 
ATOM     15  C   LIG    1       -5.074   3.022  -6.281  0.00  0.00    +0.000 A 
ATOM     16  C   LIG    1       -6.288   2.615  -5.758  0.00  0.00    +0.000 A 
ATOM     17  C   LIG    1       -6.583   2.850  -4.430  0.00  0.00    +0.020 A 
ENDBRANCH   6  12
BRANCH   1  18
ATOM     18  C   LIG    1       -2.482   0.853   0.018  0.00  0.00    +0.330 C 
BRANCH  18  21
ATOM     19  N   LIG    1       -0.011   0.966   0.007  0.00  0.00    -0.720 N 
ATOM     20  H   LIG    1        0.002  -0.004   0.002  0.00  0.00    +0.400 HD
ATOM     21  C   LIG    1       -1.187   1.624   0.017  0.00  0.00    +0.500 C 
ATOM     22  O   LIG    1       -1.204   2.837   0.023  0.00  0.00    -0.510 OA
BRANCH  19  23
ATOM     23  C   LIG    1        1.248   1.716  -0.001  0.00  0.00    +0.290 C 
BRANCH  23  24
ATOM     24  C   LIG    1        2.344   0.863   0.585  0.00  0.00    -0.090 A 
ATOM     25  C   LIG    1        2.403  -0.486   0.289  0.00  0.00    +0.000 A 
ATOM     26  C   LIG    1        3.411  -1.267   0.822  0.00  0.00    +0.010 A 
ATOM     27  C   LIG    1        4.354  -0.701   1.659  0.00  0.00    +0.000 A 
ATOM     28  C   LIG    1        4.292   0.647   1.960  0.00  0.00    +0.020 A 
ATOM     29  C   LIG    1        3.287   1.429   1.423  0.00  0.00    +0.010 A 
ENDBRANCH  23  24
BRANCH  23  30
ATOM     30  C   LIG    1        1.608   2.092  -1.439  0.00  0.00    +0.020 C 
BRANCH  30  32
ATOM     31  C   LIG    1        0.918   3.435  -3.430  0.00  0.00    +0.000 C 
ATOM     32  C   LIG    1        0.558   3.058  -1.992  0.00  0.00    +0.000 C 
ENDBRANCH  30  32
ENDBRANCH  23  30
ENDBRANCH  19  23
ENDBRANCH  18  21
ENDBRANCH   1  18
TORSDOF 7
