REMARK  Name = ZINCvU0000000JYV.0
REMARK                            x       y       z     vdW  Elec       q    Type
REMARK                         _______ _______ _______ _____ _____    ______ ____
ROOT
ATOM      1  C   LIG    1       -0.005   0.226   0.763  0.00  0.00    +0.520 C 
ATOM      2  N   LIG    1       -0.016   1.344   0.009  0.00  0.00    -0.670 N 
ATOM      3  H   LIG    1        0.774   1.599  -0.492  0.00  0.00    +0.420 HD
ATOM      4  O   LIG    1       -0.958  -0.044   1.462  0.00  0.00    -0.490 OA
ENDROOT
BRANCH   2   5
ATOM      5  C   LIG    1       -1.168   2.132  -0.053  0.00  0.00    +0.170 A 
ATOM      6  C   LIG    1       -2.422   1.534   0.015  0.00  0.00    +0.020 A 
ATOM      7  C   LIG    1       -3.559   2.309  -0.042  0.00  0.00    +0.060 A 
ATOM      8  C   LIG    1       -3.452   3.695  -0.179  0.00  0.00    -0.050 A 
ATOM      9  C   LIG    1       -2.192   4.291  -0.253  0.00  0.00    +0.100 A 
ATOM     10  C   LIG    1       -1.058   3.511  -0.190  0.00  0.00    +0.000 A 
BRANCH   8  11
ATOM     11  C   LIG    1       -4.670   4.529  -0.247  0.00  0.00    +0.160 A 
ATOM     12  N   LIG    1       -4.679   5.813  -0.373  0.00  0.00    -0.460 NA
ATOM     13  C   LIG    1       -5.870   6.434  -0.421  0.00  0.00    +0.080 A 
ATOM     14  C   LIG    1       -6.145   7.812  -0.553  0.00  0.00    +0.080 A 
ATOM     15  C   LIG    1       -7.430   8.262  -0.582  0.00  0.00    +0.030 A 
ATOM     16  C   LIG    1       -8.494   7.378  -0.482  0.00  0.00    -0.060 A 
ATOM     17  C   LIG    1       -8.258   6.027  -0.353  0.00  0.00    +0.050 A 
ATOM     18  C   LIG    1       -9.909   7.895  -0.517  0.00  0.00    +0.100 C 
ATOM     19  C   LIG    1       -6.950   5.548  -0.321  0.00  0.00    -0.170 A 
ATOM     20  S   LIG    1       -6.315   3.911  -0.173  0.00  0.00    +0.070 S 
ENDBRANCH   8  11
ENDBRANCH   2   5
BRANCH   1  21
ATOM     21  C   LIG    1        1.192  -0.689   0.736  0.00  0.00    +0.270 C 
BRANCH  21  22
ATOM     22  O   LIG    1        0.963  -1.814   1.624  0.00  0.00    -0.330 OA
BRANCH  22  23
ATOM     23  C   LIG    1        1.945  -2.732   1.716  0.00  0.00    +0.510 C 
ATOM     24  O   LIG    1        2.966  -2.596   1.071  0.00  0.00    -0.480 OA
BRANCH  23  30
ATOM     25  C   LIG    1        2.798  -4.866   2.704  0.00  0.00    +0.160 A 
ATOM     26  N   LIG    1        2.644  -5.914   3.499  0.00  0.00    -0.500 NA
ATOM     27  C   LIG    1        1.549  -6.090   4.212  0.00  0.00    +0.330 A 
ATOM     28  C   LIG    1        0.506  -5.183   4.160  0.00  0.00    -0.050 A 
ATOM     29  C   LIG    1        0.613  -4.066   3.352  0.00  0.00    +0.170 A 
ATOM     30  C   LIG    1        1.781  -3.900   2.598  0.00  0.00    -0.180 A 
BRANCH  25  32
ATOM     31  C   LIG    1        5.172  -6.167   2.302  0.00  0.00    +0.100 C 
ATOM     32  S   LIG    1        4.284  -4.681   1.774  0.00  0.00    +0.030 S 
ENDBRANCH  25  32
ENDBRANCH  23  30
ENDBRANCH  22  23
ENDBRANCH  21  22
ENDBRANCH   1  21
TORSDOF 7
