REMARK  Name = ZINCrD00000l12ua.0
REMARK                            x       y       z     vdW  Elec       q    Type
REMARK                         _______ _______ _______ _____ _____    ______ ____
ROOT
ATOM      1  N   LIG    1       -1.289   1.987  -0.140  0.00  0.00    -0.590 N 
ATOM      2  C   LIG    1       -0.109   1.355   0.017  0.00  0.00    +0.600 C 
ATOM      3  O   LIG    1       -0.081   0.148   0.173  0.00  0.00    -0.510 OA
ATOM      4  C   LIG    1       -1.318   3.421  -0.438  0.00  0.00    +0.290 C 
ENDROOT
BRANCH   2   5
ATOM      5  C   LIG    1        1.141   2.120  -0.007  0.00  0.00    -0.020 A 
ATOM      6  C   LIG    1        1.864   2.442  -1.103  0.00  0.00    +0.260 A 
ATOM      7  N   LIG    1        2.956   3.159  -0.692  0.00  0.00    -0.550 N 
ATOM      8  H   LIG    1        3.647   3.519  -1.270  0.00  0.00    +0.450 HD
ATOM      9  C   LIG    1        2.913   3.281   0.648  0.00  0.00    +0.470 A 
ATOM     10  S   LIG    1        4.066   4.097   1.615  0.00  0.00    -0.590 S 
ATOM     11  N   LIG    1        1.806   2.658   1.100  0.00  0.00    -0.390 N 
BRANCH  11  12
ATOM     12  C   LIG    1        1.398   2.563   2.436  0.00  0.00    +0.110 A 
ATOM     13  C   LIG    1        1.006   3.703   3.126  0.00  0.00    +0.060 A 
ATOM     14  C   LIG    1        0.600   3.606   4.443  0.00  0.00    +0.030 A 
ATOM     15  C   LIG    1        0.593   2.377   5.077  0.00  0.00    +0.040 A 
ATOM     16  C   LIG    1        0.987   1.241   4.394  0.00  0.00    +0.020 A 
ATOM     17  C   LIG    1        1.390   1.331   3.076  0.00  0.00    +0.040 A 
ENDBRANCH  11  12
ENDBRANCH   2   5
BRANCH   1  18
ATOM     18  C   LIG    1       -2.543   1.240  -0.013  0.00  0.00    +0.330 C 
BRANCH  18  19
ATOM     19  C   LIG    1       -3.010   1.272   1.444  0.00  0.00    +0.190 C 
BRANCH  19  20
ATOM     20  O   LIG    1       -3.331   2.615   1.811  0.00  0.00    -0.310 OA
BRANCH  20  24
ATOM     21  C   LIG    1       -4.653   3.237   5.672  0.00  0.00    +0.090 A 
ATOM     22  C   LIG    1       -4.538   4.308   4.798  0.00  0.00    +0.030 A 
ATOM     23  C   LIG    1       -4.096   4.100   3.506  0.00  0.00    +0.030 A 
ATOM     24  C   LIG    1       -3.767   2.820   3.083  0.00  0.00    +0.100 A 
ATOM     25  C   LIG    1       -3.887   1.749   3.956  0.00  0.00    -0.040 A 
ATOM     26  C   LIG    1       -4.324   1.958   5.249  0.00  0.00    -0.040 A 
BRANCH  21  28
ATOM     27  C   LIG    1       -5.184   2.294   7.790  0.00  0.00    +0.230 C 
ATOM     28  O   LIG    1       -5.089   3.442   6.944  0.00  0.00    -0.320 OA
ENDBRANCH  21  28
ENDBRANCH  20  24
ENDBRANCH  19  20
ENDBRANCH  18  19
ENDBRANCH   1  18
TORSDOF 7
