REMARK  Name = ZINCqH0000004eGv.0
REMARK                            x       y       z     vdW  Elec       q    Type
REMARK                         _______ _______ _______ _____ _____    ______ ____
ROOT
ATOM      1  N   LIG    1       -1.537   0.447  -1.224  0.00  0.00    -0.640 N 
ATOM      2  C   LIG    1       -0.765  -0.570  -1.656  0.00  0.00    +0.620 C 
ATOM      3  O   LIG    1        0.370  -0.352  -2.037  0.00  0.00    -0.460 OA
ENDROOT
BRANCH   2   4
ATOM      4  C   LIG    1       -1.292  -1.938  -1.666  0.00  0.00    -0.010 A 
ATOM      5  C   LIG    1       -1.877  -2.588  -2.722  0.00  0.00    +0.050 A 
ATOM      6  N   LIG    1       -2.212  -3.815  -2.312  0.00  0.00    -0.440 NA
ATOM      7  C   LIG    1       -1.879  -3.966  -1.062  0.00  0.00    +0.190 A 
ATOM      8  C   LIG    1       -2.070  -5.182  -0.186  0.00  0.00    +0.380 C 
ATOM      9  O   LIG    1       -1.257  -5.013   0.983  0.00  0.00    -0.360 OA
ATOM     10  C   LIG    1       -1.417  -3.746   1.627  0.00  0.00    +0.250 C 
ATOM     11  C   LIG    1       -0.811  -2.642   0.749  0.00  0.00    +0.260 C 
ATOM     12 BR   LIG    1       -2.155  -1.877  -4.452  0.00  0.00    +0.030 Br
ATOM     13  N   LIG    1       -1.306  -2.825  -0.618  0.00  0.00    -0.430 N 
ENDBRANCH   2   4
BRANCH   1  14
ATOM     14  C   LIG    1       -2.237   0.342   0.059  0.00  0.00    +0.250 C 
ATOM     15  C   LIG    1       -3.017  -0.974   0.107  0.00  0.00    +0.000 C 
BRANCH  14  17
ATOM     16  C   LIG    1       -0.534   1.742   1.234  0.00  0.00    +0.030 C 
ATOM     17  C   LIG    1       -1.219   0.374   1.200  0.00  0.00    +0.000 C 
ENDBRANCH  14  17
ENDBRANCH   1  14
BRANCH   1  18
ATOM     18  C   LIG    1       -1.677   1.658  -2.037  0.00  0.00    +0.310 C 
BRANCH  18  19
ATOM     19  C   LIG    1       -0.587   2.660  -1.651  0.00  0.00    +0.070 C 
BRANCH  19  20
ATOM     20  C   LIG    1       -0.730   3.905  -2.488  0.00  0.00    -0.120 A 
ATOM     21  C   LIG    1       -1.347   5.024  -1.962  0.00  0.00    +0.040 A 
ATOM     22  C   LIG    1       -1.478   6.167  -2.729  0.00  0.00    +0.000 A 
ATOM     23  C   LIG    1       -0.994   6.191  -4.023  0.00  0.00    +0.040 A 
ATOM     24  C   LIG    1       -0.377   5.073  -4.552  0.00  0.00    -0.010 A 
ATOM     25  C   LIG    1       -0.239   3.930  -3.783  0.00  0.00    +0.100 A 
ATOM     26  F   LIG    1        0.370   2.839  -4.296  0.00  0.00    -0.130 F 
ENDBRANCH  19  20
ENDBRANCH  18  19
ENDBRANCH   1  18
TORSDOF 6
