REMARK  Name = ZINCtV000002FLN6.0
REMARK                            x       y       z     vdW  Elec       q    Type
REMARK                         _______ _______ _______ _____ _____    ______ ____
ROOT
ATOM      1  C   LIG    1       -1.635   6.605  -1.584  0.00  0.00    +0.130 C 
ATOM      2  C   LIG    1       -0.214   6.516  -2.078  0.00  0.00    +0.020 A 
ATOM      3  C   LIG    1        0.209   6.880  -3.300  0.00  0.00    +0.000 A 
ATOM      4  C   LIG    1        1.654   6.618  -3.333  0.00  0.00    -0.270 A 
ATOM      5  C   LIG    1        1.974   6.110  -2.088  0.00  0.00    +0.130 A 
ATOM      6  C   LIG    1        3.348   5.692  -1.631  0.00  0.00    +0.150 C 
ATOM      7  N   LIG    1        0.847   6.052  -1.357  0.00  0.00    -0.430 N 
ENDROOT
BRANCH   4   8
ATOM      8  C   LIG    1        2.568   6.851  -4.453  0.00  0.00    +0.450 C 
ATOM      9  O   LIG    1        3.747   6.586  -4.340  0.00  0.00    -0.450 OA
BRANCH   8  10
ATOM     10  C   LIG    1        2.046   7.421  -5.746  0.00  0.00    +0.060 C 
BRANCH  10  11
ATOM     11  S   LIG    1        3.412   7.592  -6.928  0.00  0.00    -0.010 S 
BRANCH  11  12
ATOM     12  C   LIG    1        2.621   8.261  -8.354  0.00  0.00    -0.080 A 
ATOM     13  C   LIG    1        1.255   8.509  -8.340  0.00  0.00    +0.020 A 
ATOM     14  C   LIG    1        0.639   9.039  -9.458  0.00  0.00    -0.010 A 
ATOM     15  C   LIG    1        1.381   9.312 -10.594  0.00  0.00    +0.040 A 
ATOM     16  C   LIG    1        2.741   9.061 -10.613  0.00  0.00    +0.070 A 
ATOM     17 CL   LIG    1       -1.068   9.355  -9.441  0.00  0.00    -0.060 Cl
ATOM     18  C   LIG    1        3.363   8.536  -9.497  0.00  0.00    -0.020 A 
ATOM     19 CL   LIG    1        5.070   8.220  -9.523  0.00  0.00    -0.040 Cl
ENDBRANCH  11  12
ENDBRANCH  10  11
ENDBRANCH   8  10
ENDBRANCH   4   8
BRANCH   7  20
ATOM     20  C   LIG    1        0.771   5.565   0.023  0.00  0.00    +0.360 C 
BRANCH  20  21
ATOM     21  C   LIG    1        0.496   4.083   0.018  0.00  0.00    -0.110 A 
ATOM     22  C   LIG    1       -0.808   3.624   0.028  0.00  0.00    +0.050 A 
ATOM     23  C   LIG    1       -1.065   2.265   0.019  0.00  0.00    +0.040 A 
ATOM     24  C   LIG    1       -0.016   1.361   0.009  0.00  0.00    +0.050 A 
ATOM     25  O   LIG    1        0.002  -0.004   0.002  0.00  0.00    -0.310 OA
ATOM     26  C   LIG    1        1.336  -0.373   0.399  0.00  0.00    +0.440 C 
ATOM     27  O   LIG    1        2.139   0.749  -0.014  0.00  0.00    -0.310 OA
ATOM     28  C   LIG    1        1.297   1.824  -0.001  0.00  0.00    +0.030 A 
ATOM     29  C   LIG    1        1.548   3.186   0.004  0.00  0.00    +0.060 A 
ENDBRANCH  20  21
ENDBRANCH   7  20
TORSDOF 6
