REMARK  Name = ZINCnE000004TqdV.0
REMARK                            x       y       z     vdW  Elec       q    Type
REMARK                         _______ _______ _______ _____ _____    ______ ____
ROOT
ATOM      1  C   LIG    1       -3.600  -1.698  -0.646  0.00  0.00    +0.010 C 
ATOM      2  C   LIG    1       -4.402  -0.430  -0.922  0.00  0.00    +0.000 C 
ATOM      3  C   LIG    1       -5.877  -0.750  -0.858  0.00  0.00    +0.010 C 
ATOM      4  C   LIG    1       -6.407  -0.507   0.567  0.00  0.00    +0.260 C 
ATOM      5  N   LIG    1       -5.457  -0.967   1.599  0.00  0.00    -0.590 N 
ATOM      6  C   LIG    1       -4.735  -2.216   1.496  0.00  0.00    +0.260 C 
ATOM      7  C   LIG    1       -5.256  -0.192   2.683  0.00  0.00    +0.550 C 
ATOM      8  O   LIG    1       -5.704   0.937   2.715  0.00  0.00    -0.540 OA
ATOM      9  C   LIG    1       -3.382  -1.975   0.782  0.00  0.00    +0.030 C 
ENDROOT
BRANCH   7  10
ATOM     10  C   LIG    1       -4.489  -0.716   3.834  0.00  0.00    -0.090 A 
ATOM     11  C   LIG    1       -3.236  -1.298   3.635  0.00  0.00    +0.060 A 
ATOM     12  C   LIG    1       -2.523  -1.779   4.713  0.00  0.00    +0.070 A 
ATOM     13  C   LIG    1       -3.053  -1.696   5.989  0.00  0.00    -0.170 A 
ATOM     14  C   LIG    1       -4.297  -1.126   6.192  0.00  0.00    +0.060 A 
ATOM     15  C   LIG    1       -5.017  -0.635   5.123  0.00  0.00    +0.060 A 
BRANCH  13  16
ATOM     16  C   LIG    1       -2.271  -2.230   7.162  0.00  0.00    +0.510 C 
ATOM     17  F   LIG    1       -2.590  -1.493   8.308  0.00  0.00    -0.180 F 
ATOM     18  F   LIG    1       -0.901  -2.116   6.900  0.00  0.00    -0.170 F 
ATOM     19  F   LIG    1       -2.596  -3.575   7.366  0.00  0.00    -0.180 F 
ENDBRANCH  13  16
ENDBRANCH   7  10
BRANCH   1  20
ATOM     20  C   LIG    1       -2.237  -1.568  -1.329  0.00  0.00    -0.070 C 
BRANCH  20  22
ATOM     21  O   LIG    1       -2.010  -3.824  -0.655  0.00  0.00    -0.690 OA
ATOM     22  C   LIG    1       -1.496  -2.876  -1.224  0.00  0.00    +0.490 C 
ATOM     23  O   LIG    1       -0.384  -2.988  -1.711  0.00  0.00    -0.710 OA
ENDBRANCH  20  22
ENDBRANCH   1  20
TORSDOF 4
