REMARK  Name = ZINCqH0000036wm9.0
REMARK                            x       y       z     vdW  Elec       q    Type
REMARK                         _______ _______ _______ _____ _____    ______ ____
ROOT
ATOM      1  N   LIG    1       -0.020   0.009  -2.332  0.00  0.00    -0.670 N 
ATOM      2  H   LIG    1       -0.110   0.974  -2.328  0.00  0.00    +0.410 HD
ATOM      3  C   LIG    1        0.004  -0.671  -1.169  0.00  0.00    +0.710 C 
ATOM      4  N   LIG    1        0.019  -0.003   0.002  0.00  0.00    -0.620 N 
ATOM      5  O   LIG    1        0.013  -1.887  -1.175  0.00  0.00    -0.550 OA
ENDROOT
BRANCH   1  15
ATOM      6  C   LIG    1       -0.433  -0.119  -4.717  0.00  0.00    -0.120 A 
ATOM      7  C   LIG    1       -0.330  -0.804  -5.919  0.00  0.00    +0.040 A 
ATOM      8  C   LIG    1        0.286  -2.047  -5.961  0.00  0.00    +0.050 A 
ATOM      9  C   LIG    1        0.803  -2.605  -4.798  0.00  0.00    +0.070 A 
ATOM     10  O   LIG    1        1.415  -3.822  -4.822  0.00  0.00    -0.300 OA
ATOM     11  C   LIG    1        1.167  -4.645  -5.967  0.00  0.00    +0.220 C 
ATOM     12  C   LIG    1        1.320  -3.777  -7.224  0.00  0.00    +0.220 C 
ATOM     13  C   LIG    1        0.705  -1.919  -3.596  0.00  0.00    +0.060 A 
ATOM     14  O   LIG    1        0.371  -2.708  -7.149  0.00  0.00    -0.310 OA
ATOM     15  C   LIG    1        0.084  -0.681  -3.550  0.00  0.00    +0.190 A 
BRANCH   6  17
ATOM     16  C   LIG    1       -1.700   1.731  -6.392  0.00  0.00    +0.150 C 
ATOM     17  S   LIG    1       -1.216   1.458  -4.665  0.00  0.00    -0.120 S 
ENDBRANCH   6  17
ENDBRANCH   1  15
BRANCH   4  18
ATOM     18  C   LIG    1        0.046  -0.742   1.267  0.00  0.00    +0.430 C 
BRANCH  18  19
ATOM     19  C   LIG    1       -1.366  -1.006   1.724  0.00  0.00    -0.050 A 
ATOM     20  C   LIG    1       -2.107  -2.083   1.408  0.00  0.00    -0.020 A 
ATOM     21  C   LIG    1       -3.356  -1.923   2.050  0.00  0.00    -0.070 A 
ATOM     22  C   LIG    1       -3.308  -0.754   2.712  0.00  0.00    +0.170 A 
ATOM     23  O   LIG    1       -2.099  -0.203   2.511  0.00  0.00    -0.180 OA
ENDBRANCH  18  19
ENDBRANCH   4  18
BRANCH   4  24
ATOM     24  C   LIG    1        0.008   1.462   0.009  0.00  0.00    +0.300 C 
BRANCH  24  25
ATOM     25  C   LIG    1        1.447   1.982  -0.012  0.00  0.00    +0.180 C 
BRANCH  25  26
ATOM     26  C   LIG    1        1.436   3.454  -0.005  0.00  0.00    +0.200 C 
ATOM     27  N   LIG    1        1.427   4.590   0.001  0.00  0.00    -0.420 NA
ENDBRANCH  25  26
ENDBRANCH  24  25
ENDBRANCH   4  24
TORSDOF 7
