REMARK  Name = ZINCrD00000l5WuX.0
REMARK                            x       y       z     vdW  Elec       q    Type
REMARK                         _______ _______ _______ _____ _____    ______ ____
ROOT
ATOM      1  C   LIG    1       -1.042   1.789  -3.568  0.00  0.00    +0.280 C 
ENDROOT
BRANCH   1   4
ATOM      2  N   LIG    1       -0.920   1.702  -6.037  0.00  0.00    -0.630 N 
ATOM      3  H   LIG    1       -1.719   2.251  -6.065  0.00  0.00    +0.420 HD
ATOM      4  C   LIG    1       -0.391   1.340  -4.851  0.00  0.00    +0.510 C 
ATOM      5  O   LIG    1        0.608   0.654  -4.817  0.00  0.00    -0.470 OA
BRANCH   2   7
ATOM      6  C   LIG    1       -0.777   1.594  -8.466  0.00  0.00    -0.090 A 
ATOM      7  C   LIG    1       -0.320   1.288  -7.219  0.00  0.00    +0.050 A 
ATOM      8  S   LIG    1        1.079   0.326  -7.307  0.00  0.00    +0.350 S 
ATOM      9  C   LIG    1        1.072   0.329  -9.070  0.00  0.00    -0.270 A 
ATOM     10  C   LIG    1        1.894  -0.238 -10.222  0.00  0.00    +0.120 C 
ATOM     11  C   LIG    1        0.969  -0.145 -11.452  0.00  0.00    +0.040 C 
ATOM     12  C   LIG    1        0.050   1.030 -11.062  0.00  0.00    +0.100 C 
ATOM     13  C   LIG    1        0.045   1.035  -9.536  0.00  0.00    -0.070 A 
BRANCH   6  15
ATOM     14  N   LIG    1       -2.871   3.018  -8.893  0.00  0.00    -0.420 NA
ATOM     15  C   LIG    1       -1.944   2.388  -8.705  0.00  0.00    +0.270 C 
ENDBRANCH   6  15
ENDBRANCH   2   7
ENDBRANCH   1   4
BRANCH   1  16
ATOM     16  O   LIG    1       -0.290   1.274  -2.438  0.00  0.00    -0.330 OA
BRANCH  16  17
ATOM     17  C   LIG    1       -0.742   1.585  -1.213  0.00  0.00    +0.460 C 
ATOM     18  O   LIG    1       -1.732   2.266  -1.089  0.00  0.00    -0.490 OA
BRANCH  17  19
ATOM     19  C   LIG    1       -0.013   1.086   0.008  0.00  0.00    +0.210 C 
BRANCH  19  20
ATOM     20  C   LIG    1       -0.718   1.572   1.248  0.00  0.00    -0.180 A 
ATOM     21  C   LIG    1       -0.420   2.672   1.957  0.00  0.00    +0.250 A 
ATOM     22  N   LIG    1       -1.277   2.791   3.017  0.00  0.00    -0.590 N 
ATOM     23  H   LIG    1       -1.258   3.506   3.672  0.00  0.00    +0.420 HD
ATOM     24  C   LIG    1       -2.171   1.743   3.016  0.00  0.00    +0.090 A 
ATOM     25  C   LIG    1       -3.228   1.385   3.846  0.00  0.00    -0.010 A 
ATOM     26  C   LIG    1       -3.956   0.247   3.575  0.00  0.00    +0.030 A 
ATOM     27  C   LIG    1       -3.645  -0.548   2.480  0.00  0.00    -0.020 A 
ATOM     28  C   LIG    1       -2.610  -0.215   1.652  0.00  0.00    +0.050 A 
ATOM     29  C   LIG    1       -1.863   0.937   1.904  0.00  0.00    -0.090 A 
ENDBRANCH  19  20
ENDBRANCH  17  19
ENDBRANCH  16  17
ENDBRANCH   1  16
TORSDOF 7
