REMARK  Name = ZINCrD0000074lya.0
REMARK                            x       y       z     vdW  Elec       q    Type
REMARK                         _______ _______ _______ _____ _____    ______ ____
ROOT
ATOM      1  C   LIG    1       -4.859   1.647   0.036  0.00  0.00    +0.520 C 
ATOM      2  N   LIG    1       -6.062   2.255   0.045  0.00  0.00    -0.690 N 
ATOM      3  H   LIG    1       -6.116   3.224   0.051  0.00  0.00    +0.410 HD
ATOM      4  C   LIG    1       -7.190   1.518   0.048  0.00  0.00    +0.700 C 
ATOM      5  N   LIG    1       -8.393   2.126   0.057  0.00  0.00    -0.730 N 
ATOM      6  H   LIG    1       -8.447   3.095   0.062  0.00  0.00    +0.400 HD
ATOM      7  O   LIG    1       -7.123   0.304   0.041  0.00  0.00    -0.520 OA
ATOM      8  O   LIG    1       -4.792   0.436   0.030  0.00  0.00    -0.440 OA
ENDROOT
BRANCH   5   9
ATOM      9  C   LIG    1       -9.619   1.325   0.059  0.00  0.00    +0.260 C 
ATOM     10  C   LIG    1       -9.970   0.933   1.496  0.00  0.00    +0.020 C 
ATOM     11  C   LIG    1      -10.185   2.197   2.331  0.00  0.00    +0.000 C 
ATOM     12  C   LIG    1      -11.330   3.015   1.731  0.00  0.00    +0.000 C 
ATOM     13  C   LIG    1      -10.980   3.407   0.294  0.00  0.00    +0.010 C 
ATOM     14  C   LIG    1      -10.764   2.143  -0.540  0.00  0.00    -0.010 C 
ATOM     15  C   LIG    1      -10.414   2.534  -1.977  0.00  0.00    +0.020 C 
ENDBRANCH   5   9
BRANCH   1  16
ATOM     16  C   LIG    1       -3.598   2.471   0.034  0.00  0.00    +0.270 C 
BRANCH  16  17
ATOM     17  O   LIG    1       -2.444   1.590   0.023  0.00  0.00    -0.320 OA
BRANCH  17  18
ATOM     18  C   LIG    1       -1.228   2.174   0.020  0.00  0.00    +0.560 C 
ATOM     19  O   LIG    1       -1.136   3.386   0.026  0.00  0.00    -0.480 OA
BRANCH  18  22
ATOM     20  C   LIG    1        1.683   3.267   0.003  0.00  0.00    +0.150 C 
ATOM     21  C   LIG    1        1.257   1.821  -0.000  0.00  0.00    -0.050 A 
ATOM     22  C   LIG    1       -0.016   1.345   0.009  0.00  0.00    -0.030 A 
ATOM     23  O   LIG    1        0.002  -0.004   0.002  0.00  0.00    -0.170 OA
ATOM     24  C   LIG    1        1.267  -0.467  -0.013  0.00  0.00    +0.080 A 
ATOM     25  C   LIG    1        1.814  -1.745  -0.024  0.00  0.00    +0.030 A 
ATOM     26  C   LIG    1        3.183  -1.905  -0.038  0.00  0.00    +0.070 A 
ATOM     27  C   LIG    1        4.027  -0.803  -0.040  0.00  0.00    +0.000 A 
ATOM     28  C   LIG    1        3.512   0.463  -0.029  0.00  0.00    +0.080 A 
ATOM     29  C   LIG    1        2.128   0.647  -0.015  0.00  0.00    -0.150 A 
ENDBRANCH  18  22
ENDBRANCH  17  18
ENDBRANCH  16  17
ENDBRANCH   1  16
TORSDOF 5
