REMARK  Name = ZINCrH000004k8xK.0
REMARK                            x       y       z     vdW  Elec       q    Type
REMARK                         _______ _______ _______ _____ _____    ______ ____
ROOT
ATOM      1  C   LIG    1       -0.762   1.962  -1.064  0.00  0.00    +0.060 A 
ATOM      2  C   LIG    1       -0.389   1.663  -2.367  0.00  0.00    +0.010 A 
ATOM      3  C   LIG    1       -1.127   2.155  -3.427  0.00  0.00    +0.030 A 
ATOM      4  C   LIG    1       -2.237   2.945  -3.191  0.00  0.00    -0.090 A 
ATOM      5  C   LIG    1       -2.613   3.246  -1.895  0.00  0.00    +0.010 A 
ATOM      6  C   LIG    1       -1.883   2.753  -0.830  0.00  0.00    +0.120 A 
ATOM      7  F   LIG    1       -2.253   3.042   0.437  0.00  0.00    -0.120 F 
ENDROOT
BRANCH   1  12
ATOM      8  C   LIG    1        2.905  -0.488   2.352  0.00  0.00    +0.190 C 
ATOM      9  N   LIG    1        2.123   0.034   1.224  0.00  0.00    -0.550 NA
ATOM     10  C   LIG    1        0.757  -0.508   1.234  0.00  0.00    +0.190 C 
ATOM     11  C   LIG    1        0.002  -0.004   0.002  0.00  0.00    +0.190 C 
ATOM     12  N   LIG    1       -0.018   1.465   0.010  0.00  0.00    -0.500 N 
ATOM     13  C   LIG    1        1.348   2.008   0.000  0.00  0.00    +0.190 C 
ATOM     14  C   LIG    1        2.103   1.504   1.232  0.00  0.00    +0.190 C 
ENDBRANCH   1  12
BRANCH   4  15
ATOM     15  C   LIG    1       -3.039   3.479  -4.350  0.00  0.00    +0.350 C 
BRANCH  15  16
ATOM     16  N   LIG    1       -4.095   2.524  -4.694  0.00  0.00    -0.710 N 
ATOM     17  H   LIG    1       -4.184   1.699  -4.193  0.00  0.00    +0.410 HD
BRANCH  16  18
ATOM     18  C   LIG    1       -4.962   2.799  -5.731  0.00  0.00    +0.550 A 
ATOM     19  N   LIG    1       -4.931   3.879  -6.471  0.00  0.00    -0.530 NA
ATOM     20  C   LIG    1       -5.924   3.825  -7.398  0.00  0.00    +0.090 A 
ATOM     21  C   LIG    1       -6.336   4.691  -8.415  0.00  0.00    -0.000 A 
ATOM     22  C   LIG    1       -7.408   4.349  -9.212  0.00  0.00    +0.030 A 
ATOM     23  C   LIG    1       -8.080   3.153  -9.011  0.00  0.00    +0.030 A 
ATOM     24  C   LIG    1       -7.685   2.288  -8.011  0.00  0.00    +0.030 A 
ATOM     25 CL   LIG    1       -5.502   6.191  -8.674  0.00  0.00    -0.060 Cl
ATOM     26  C   LIG    1       -6.609   2.615  -7.200  0.00  0.00    +0.050 A 
ATOM     27  N   LIG    1       -5.976   1.983  -6.143  0.00  0.00    -0.520 N 
ATOM     28  C   LIG    1       -6.331   0.681  -5.571  0.00  0.00    +0.320 C 
ENDBRANCH  16  18
ENDBRANCH  15  16
ENDBRANCH   4  15
TORSDOF 4
