REMARK  Name = ZINCkj000005hbYn.1
REMARK                            x       y       z     vdW  Elec       q    Type
REMARK                         _______ _______ _______ _____ _____    ______ ____
ROOT
ATOM      1  N   LIG    1       -0.169   0.206   3.414  0.00  0.00    -1.120 NA
ATOM      2  H   LIG    1        0.221  -0.679   3.494  0.00  0.00    +0.420 HD
ENDROOT
BRANCH   1   3
ATOM      3  C   LIG    1        0.283   1.288   4.292  0.00  0.00    +0.270 C 
ATOM      4  C   LIG    1        1.768   1.646   4.113  0.00  0.00    +0.050 C 
ATOM      5  C   LIG    1        1.836   1.794   5.642  0.00  0.00    +0.080 C 
ATOM      6  C   LIG    1        0.649   0.818   5.710  0.00  0.00    +0.060 C 
BRANCH   5   7
ATOM      7  C   LIG    1        3.103   1.245   6.246  0.00  0.00    +0.330 C 
ATOM      8  N   LIG    1        3.489  -0.020   6.208  0.00  0.00    -0.490 N 
ATOM      9  C   LIG    1        4.671  -0.120   6.853  0.00  0.00    +0.250 C 
ATOM     10  C   LIG    1        4.994   1.112   7.292  0.00  0.00    +0.250 C 
ATOM     11  H   LIG    1        3.007  -0.749   5.788  0.00  0.00    +0.460 HD
ATOM     12  N   LIG    1        4.008   1.949   6.906  0.00  0.00    -0.480 N 
ATOM     13  H   LIG    1        3.970   2.902   7.083  0.00  0.00    +0.470 HD
ENDBRANCH   5   7
ENDBRANCH   1   3
BRANCH   1  14
ATOM     14  S   LIG    1       -1.346   0.493   2.285  0.00  0.00    +2.780 S 
ATOM     15  O   LIG    1       -1.534  -0.728   1.582  0.00  0.00    -0.960 OA
ATOM     16  O   LIG    1       -2.396   1.168   2.963  0.00  0.00    -0.970 OA
BRANCH  14  18
ATOM     17  C   LIG    1       -0.888   3.011   1.411  0.00  0.00    +0.300 C 
ATOM     18  N   LIG    1       -0.725   1.571   1.192  0.00  0.00    -1.000 NA
BRANCH  18  19
ATOM     19  C   LIG    1       -0.013   1.086   0.008  0.00  0.00    +0.240 C 
ATOM     20  C   LIG    1       -0.694   1.612  -1.272  0.00  0.00    +0.030 C 
ATOM     21  C   LIG    1        0.116   2.881  -1.639  0.00  0.00    +0.010 C 
ATOM     22  C   LIG    1        1.568   2.472  -1.289  0.00  0.00    +0.010 C 
ATOM     23  C   LIG    1        1.426   1.633  -0.003  0.00  0.00    +0.010 C 
ENDBRANCH  18  19
ENDBRANCH  14  18
ENDBRANCH   1  14
TORSDOF 5
