REMARK  Name = ZINCnE000001PO8e.0
REMARK                            x       y       z     vdW  Elec       q    Type
REMARK                         _______ _______ _______ _____ _____    ______ ____
ROOT
ATOM      1  N   LIG    1       -4.111  -3.355   0.025  0.00  0.00    -1.030 NA
ENDROOT
BRANCH   1   2
ATOM      2  C   LIG    1       -3.179  -2.330   0.021  0.00  0.00    +0.380 A 
ATOM      3  N   LIG    1       -3.441  -1.053   0.030  0.00  0.00    -0.410 NA
ATOM      4  N   LIG    1       -2.465  -0.255   0.025  0.00  0.00    -0.200 NA
ATOM      5  C   LIG    1       -1.266  -0.764   0.011  0.00  0.00    -0.050 A 
ATOM      6  S   LIG    1       -1.425  -2.521  -0.004  0.00  0.00    -0.000 S 
BRANCH   5   7
ATOM      7  C   LIG    1        0.002  -0.004   0.002  0.00  0.00    +0.030 A 
ATOM      8  C   LIG    1       -0.017   1.391   0.010  0.00  0.00    +0.030 A 
ATOM      9  C   LIG    1        1.170   2.094   0.002  0.00  0.00    +0.000 A 
ATOM     10  C   LIG    1        2.378   1.419  -0.013  0.00  0.00    -0.010 A 
ATOM     11  C   LIG    1        2.403   0.036  -0.021  0.00  0.00    +0.000 A 
ATOM     12  C   LIG    1        1.224  -0.679  -0.013  0.00  0.00    +0.010 A 
ENDBRANCH   5   7
ENDBRANCH   1   2
BRANCH   1  13
ATOM     13  S   LIG    1       -5.729  -3.002   0.042  0.00  0.00    +2.640 S 
ATOM     14  O   LIG    1       -6.017  -2.379  -1.202  0.00  0.00    -0.990 OA
ATOM     15  O   LIG    1       -5.994  -2.391   1.297  0.00  0.00    -1.000 OA
BRANCH  13  20
ATOM     16  C   LIG    1       -8.704  -8.253   0.048  0.00  0.00    +0.100 C 
ATOM     17  C   LIG    1       -7.961  -6.942   0.045  0.00  0.00    -0.020 A 
ATOM     18  C   LIG    1       -8.050  -6.096   1.134  0.00  0.00    -0.030 A 
ATOM     19  C   LIG    1       -7.363  -4.895   1.135  0.00  0.00    +0.150 A 
ATOM     20  C   LIG    1       -6.598  -4.535   0.043  0.00  0.00    -0.680 A 
ATOM     21  C   LIG    1       -6.508  -5.383  -1.049  0.00  0.00    +0.210 A 
ATOM     22  F   LIG    1       -5.755  -5.035  -2.115  0.00  0.00    -0.120 F 
ATOM     23  C   LIG    1       -7.191  -6.587  -1.046  0.00  0.00    -0.040 A 
ENDBRANCH  13  20
ENDBRANCH   1  13
TORSDOF 4
