REMARK  Name = ZINCwl0000000aN1.1
REMARK                            x       y       z     vdW  Elec       q    Type
REMARK                         _______ _______ _______ _____ _____    ______ ____
ROOT
ATOM      1  C   LIG    1        7.263  -4.015  -0.695  0.00  0.00    +0.160 C 
ATOM      2  C   LIG    1        7.328  -2.583  -0.102  0.00  0.00    +0.090 C 
ATOM      3  C   LIG    1        5.844  -2.160  -0.061  0.00  0.00    +0.260 C 
ATOM      4  N   LIG    1        5.040  -3.391  -0.053  0.00  0.00    -0.620 N 
ATOM      5  C   LIG    1        3.693  -3.449  -0.039  0.00  0.00    +0.610 C 
ATOM      6  O   LIG    1        3.131  -4.528  -0.040  0.00  0.00    -0.490 OA
ATOM      7  C   LIG    1        5.950  -4.551  -0.070  0.00  0.00    +0.300 C 
ENDROOT
BRANCH   5   8
ATOM      8  C   LIG    1        2.904  -2.208  -0.023  0.00  0.00    +0.000 A 
ATOM      9  C   LIG    1        1.547  -2.138  -0.008  0.00  0.00    +0.100 A 
ATOM     10  C   LIG    1        1.186  -0.769   0.004  0.00  0.00    -0.130 A 
ATOM     11  C   LIG    1       -0.044  -0.099   0.022  0.00  0.00    +0.160 A 
ATOM     12  C   LIG    1       -0.073   1.266   0.031  0.00  0.00    +0.010 A 
ATOM     13  C   LIG    1        1.107   1.998   0.022  0.00  0.00    +0.180 A 
ATOM     14  C   LIG    1        2.329   1.362   0.005  0.00  0.00    -0.070 A 
ATOM     15  C   LIG    1        2.384  -0.028  -0.004  0.00  0.00    +0.160 A 
ATOM     16  N   LIG    1        3.424  -0.928  -0.021  0.00  0.00    -0.570 N 
ATOM     17  H   LIG    1        4.367  -0.702  -0.029  0.00  0.00    +0.430 HD
BRANCH  14  18
ATOM     18  N   LIG    1        3.578   2.155  -0.004  0.00  0.00    +0.040 N 
ATOM     19  O   LIG    1        4.658   1.591  -0.020  0.00  0.00    -0.200 OA
ATOM     20  O   LIG    1        3.528   3.372   0.003  0.00  0.00    -0.140 OA
ENDBRANCH  14  18
ENDBRANCH   5   8
BRANCH   1  21
ATOM     21  N   LIG    1        8.416  -4.816  -0.263  0.00  0.00    -0.370 N 
ATOM     22  C   LIG    1        8.245  -6.204  -0.714  0.00  0.00    +0.330 C 
ATOM     23  H   LIG    1        8.481  -4.796   0.744  0.00  0.00    +0.430 HD
BRANCH  21  24
ATOM     24  C   LIG    1        9.644  -4.260  -0.845  0.00  0.00    +0.360 C 
BRANCH  24  27
ATOM     25  C   LIG    1       12.173  -5.575   1.491  0.00  0.00    +0.660 A 
ATOM     26  N   LIG    1       11.135  -4.934   0.990  0.00  0.00    -0.610 NA
ATOM     27  C   LIG    1       10.838  -5.005  -0.306  0.00  0.00    +0.170 A 
ATOM     28  C   LIG    1       11.609  -5.755  -1.145  0.00  0.00    -0.140 A 
ATOM     29  C   LIG    1       12.721  -6.437  -0.619  0.00  0.00    +0.540 A 
ATOM     30  O   LIG    1       13.434  -7.113  -1.342  0.00  0.00    -0.510 OA
ATOM     31  N   LIG    1       12.980  -6.334   0.702  0.00  0.00    -0.650 N 
ATOM     32  H   LIG    1       13.739  -6.798   1.087  0.00  0.00    +0.420 HD
BRANCH  25  34
ATOM     33  C   LIG    1       11.655  -4.568   3.670  0.00  0.00    +0.340 C 
ATOM     34  N   LIG    1       12.442  -5.475   2.830  0.00  0.00    -0.580 N 
ATOM     35  C   LIG    1       13.518  -6.274   3.422  0.00  0.00    +0.320 C 
ENDBRANCH  25  34
ENDBRANCH  24  27
ENDBRANCH  21  24
ENDBRANCH   1  21
TORSDOF 6
