REMARK  Name = ZINCwl0000000aN1.2
REMARK                            x       y       z     vdW  Elec       q    Type
REMARK                         _______ _______ _______ _____ _____    ______ ____
ROOT
ATOM      1  C   LIG    1       -1.556   2.826  -0.662  0.00  0.00    +0.160 C 
ATOM      2  C   LIG    1       -0.779   1.607  -1.226  0.00  0.00    +0.090 C 
ATOM      3  C   LIG    1       -0.013   1.086   0.008  0.00  0.00    +0.260 C 
ATOM      4  N   LIG    1       -0.721   1.570   1.202  0.00  0.00    -0.620 N 
ATOM      5  C   LIG    1       -0.351   1.345   2.479  0.00  0.00    +0.610 C 
ATOM      6  O   LIG    1       -1.016   1.796   3.393  0.00  0.00    -0.490 OA
ATOM      7  C   LIG    1       -1.903   2.341   0.767  0.00  0.00    +0.300 C 
ENDROOT
BRANCH   5   8
ATOM      8  C   LIG    1        0.855   0.555   2.768  0.00  0.00    +0.000 A 
ATOM      9  C   LIG    1        1.330   0.267   4.008  0.00  0.00    +0.100 A 
ATOM     10  C   LIG    1        2.501  -0.512   3.850  0.00  0.00    -0.130 A 
ATOM     11  C   LIG    1        3.401  -1.091   4.755  0.00  0.00    +0.160 A 
ATOM     12  C   LIG    1        4.469  -1.802   4.290  0.00  0.00    +0.010 A 
ATOM     13  C   LIG    1        4.675  -1.957   2.925  0.00  0.00    +0.180 A 
ATOM     14  C   LIG    1        3.805  -1.398   2.015  0.00  0.00    -0.070 A 
ATOM     15  C   LIG    1        2.708  -0.669   2.465  0.00  0.00    +0.160 A 
ATOM     16  N   LIG    1        1.689  -0.008   1.821  0.00  0.00    -0.570 N 
ATOM     17  H   LIG    1        1.575   0.053   0.860  0.00  0.00    +0.430 HD
BRANCH  14  18
ATOM     18  N   LIG    1        4.036  -1.571   0.564  0.00  0.00    +0.040 N 
ATOM     19  O   LIG    1        3.266  -1.075  -0.239  0.00  0.00    -0.200 OA
ATOM     20  O   LIG    1        4.997  -2.209   0.172  0.00  0.00    -0.140 OA
ENDBRANCH  14  18
ENDBRANCH   5   8
BRANCH   1  21
ATOM     21  N   LIG    1       -2.774   3.081  -1.443  0.00  0.00    -0.370 N 
ATOM     22  C   LIG    1       -2.412   3.358  -2.840  0.00  0.00    +0.330 C 
ATOM     23  H   LIG    1       -3.374   2.270  -1.405  0.00  0.00    +0.430 HD
BRANCH  21  24
ATOM     24  C   LIG    1       -3.482   4.239  -0.882  0.00  0.00    +0.350 C 
BRANCH  24  27
ATOM     25  C   LIG    1       -5.927   4.915  -3.555  0.00  0.00    +0.650 A 
ATOM     26  N   LIG    1       -4.798   4.746  -2.896  0.00  0.00    -0.610 NA
ATOM     27  C   LIG    1       -4.792   4.426  -1.604  0.00  0.00    +0.160 A 
ATOM     28  C   LIG    1       -5.969   4.261  -0.934  0.00  0.00    -0.130 A 
ATOM     29  C   LIG    1       -7.178   4.446  -1.628  0.00  0.00    +0.540 A 
ATOM     30  O   LIG    1       -8.248   4.310  -1.059  0.00  0.00    -0.510 OA
ATOM     31  N   LIG    1       -7.131   4.769  -2.938  0.00  0.00    -0.650 N 
ATOM     32  H   LIG    1       -7.952   4.898  -3.437  0.00  0.00    +0.420 HD
BRANCH  25  34
ATOM     33  C   LIG    1       -4.599   5.404  -5.561  0.00  0.00    +0.340 C 
ATOM     34  N   LIG    1       -5.888   5.244  -4.884  0.00  0.00    -0.580 N 
ATOM     35  C   LIG    1       -7.135   5.436  -5.628  0.00  0.00    +0.310 C 
ENDBRANCH  25  34
ENDBRANCH  24  27
ENDBRANCH  21  24
ENDBRANCH   1  21
TORSDOF 6
