REMARK  Name = ZINCqH0000002f4Q.0
REMARK                            x       y       z     vdW  Elec       q    Type
REMARK                         _______ _______ _______ _____ _____    ______ ____
ROOT
ATOM      1  N   LIG    1        0.887   1.367   0.343  0.00  0.00    -0.730 N 
ATOM      2  H   LIG    1        0.743   2.325   0.407  0.00  0.00    +0.400 HD
ATOM      3  C   LIG    1       -0.167   0.529   0.295  0.00  0.00    +0.700 C 
ATOM      4  N   LIG    1       -1.421   1.020   0.332  0.00  0.00    -0.670 N 
ATOM      5  H   LIG    1       -1.567   1.968   0.478  0.00  0.00    +0.410 HD
ATOM      6  O   LIG    1        0.014  -0.671   0.214  0.00  0.00    -0.570 OA
ENDROOT
BRANCH   1   9
ATOM      7  C   LIG    1        4.642   1.293   0.843  0.00  0.00    +0.160 C 
ATOM      8  C   LIG    1        3.211   1.822   0.966  0.00  0.00    +0.000 C 
ATOM      9  C   LIG    1        2.251   0.834   0.296  0.00  0.00    +0.250 C 
ATOM     10  C   LIG    1        2.674   0.636  -1.163  0.00  0.00    -0.020 C 
ATOM     11  C   LIG    1        4.127   0.153  -1.203  0.00  0.00    +0.220 C 
ATOM     12  O   LIG    1        4.961   1.103  -0.537  0.00  0.00    -0.370 OA
BRANCH   7  13
ATOM     13  C   LIG    1        5.614   2.304   1.457  0.00  0.00    +0.000 C 
BRANCH  13  15
ATOM     14  C   LIG    1        6.504   4.632   1.287  0.00  0.00    +0.000 C 
ATOM     15  C   LIG    1        5.449   3.656   0.761  0.00  0.00    +0.010 C 
ENDBRANCH  13  15
BRANCH  13  16
ATOM     16  C   LIG    1        5.313   2.458   2.949  0.00  0.00    +0.020 C 
ATOM     17  C   LIG    1        5.600   1.138   3.666  0.00  0.00    +0.010 C 
ENDBRANCH  13  16
ENDBRANCH   7  13
ENDBRANCH   1   9
BRANCH   4  18
ATOM     18  C   LIG    1       -2.516   0.161   0.159  0.00  0.00    +0.120 A 
ATOM     19  C   LIG    1       -2.451  -1.158   0.587  0.00  0.00    +0.090 A 
ATOM     20  C   LIG    1       -3.560  -1.971   0.395  0.00  0.00    -0.030 A 
ATOM     21  C   LIG    1       -4.685  -1.449  -0.211  0.00  0.00    +0.260 A 
ATOM     22  N   LIG    1       -4.721  -0.191  -0.609  0.00  0.00    -0.500 NA
ATOM     23  C   LIG    1       -3.691   0.621  -0.441  0.00  0.00    +0.270 A 
BRANCH  23  24
ATOM     24  N   LIG    1       -3.775   1.943  -0.870  0.00  0.00    -0.460 N 
ATOM     25  C   LIG    1       -2.897   2.178  -2.045  0.00  0.00    +0.170 C 
ATOM     26  C   LIG    1       -3.494   3.458  -2.683  0.00  0.00    +0.040 C 
ATOM     27  C   LIG    1       -5.015   3.266  -2.485  0.00  0.00    +0.020 C 
ATOM     28  C   LIG    1       -5.146   2.267  -1.320  0.00  0.00    +0.200 C 
ENDBRANCH  23  24
ENDBRANCH   4  18
TORSDOF 6
