REMARK  Name = ZINCqH00000006n2.0
REMARK                            x       y       z     vdW  Elec       q    Type
REMARK                         _______ _______ _______ _____ _____    ______ ____
ROOT
ATOM      1  C   LIG    1        3.316   2.709  -1.290  0.00  0.00    +0.030 C 
ATOM      2  C   LIG    1        3.403   4.067  -0.590  0.00  0.00    +0.040 C 
ATOM      3  C   LIG    1        4.836   4.596  -0.681  0.00  0.00    +0.030 C 
ATOM      4  C   LIG    1        5.229   4.754  -2.151  0.00  0.00    +0.230 C 
ATOM      5  C   LIG    1        5.141   3.396  -2.851  0.00  0.00    +0.030 C 
ATOM      6  C   LIG    1        3.709   2.867  -2.760  0.00  0.00    +0.040 C 
ENDROOT
BRANCH   4   7
ATOM      7  N   LIG    1        4.317   5.699  -2.801  0.00  0.00    -0.730 N 
ATOM      8  H   LIG    1        3.542   5.370  -3.284  0.00  0.00    +0.400 HD
ATOM      9  C   LIG    1        4.555   7.023  -2.729  0.00  0.00    +0.520 C 
ATOM     10  O   LIG    1        5.524   7.433  -2.126  0.00  0.00    -0.540 OA
BRANCH   9  11
ATOM     11  C   LIG    1        3.617   7.995  -3.398  0.00  0.00    -0.020 C 
ATOM     12  C   LIG    1        3.603   7.751  -4.922  0.00  0.00    +0.020 C 
ATOM     13  C   LIG    1        3.492   9.171  -5.532  0.00  0.00    +0.020 C 
ATOM     14  C   LIG    1        4.383  10.019  -4.590  0.00  0.00    +0.010 C 
ATOM     15  C   LIG    1        4.113   9.436  -3.187  0.00  0.00    +0.040 C 
ENDBRANCH   9  11
ENDBRANCH   4   7
BRANCH   1  16
ATOM     16  C   LIG    1        1.905   2.188  -1.200  0.00  0.00    +0.470 C 
ATOM     17  O   LIG    1        1.278   1.965  -2.209  0.00  0.00    -0.500 OA
BRANCH  16  18
ATOM     18  O   LIG    1        1.344   1.970  -0.000  0.00  0.00    -0.340 OA
BRANCH  18  19
ATOM     19  C   LIG    1       -0.018   1.468   0.010  0.00  0.00    +0.360 C 
BRANCH  19  20
ATOM     20  C   LIG    1       -0.723   1.954   1.250  0.00  0.00    -0.090 A 
ATOM     21  C   LIG    1       -0.025   2.083   2.436  0.00  0.00    +0.040 A 
ATOM     22  C   LIG    1       -0.671   2.533   3.572  0.00  0.00    +0.010 A 
ATOM     23  C   LIG    1       -2.017   2.845   3.525  0.00  0.00    +0.020 A 
ATOM     24  C   LIG    1       -2.716   2.710   2.340  0.00  0.00    +0.010 A 
ATOM     25  C   LIG    1       -2.069   2.265   1.202  0.00  0.00    +0.030 A 
ENDBRANCH  19  20
BRANCH  19  27
ATOM     26  C   LIG    1        0.018  -1.178  -0.004  0.00  0.00    +0.080 C 
ATOM     27  C   LIG    1        0.002  -0.004   0.002  0.00  0.00    -0.220 C 
ENDBRANCH  19  27
ENDBRANCH  18  19
ENDBRANCH  16  18
ENDBRANCH   1  16
TORSDOF 7
