REMARK  Name = ZINCrH000004jL9M.0
REMARK                            x       y       z     vdW  Elec       q    Type
REMARK                         _______ _______ _______ _____ _____    ______ ____
ROOT
ATOM      1  C   LIG    1        2.662   5.694  -0.008  0.00  0.00    +0.090 A 
ATOM      2  C   LIG    1        1.467   5.332  -0.628  0.00  0.00    +0.120 A 
ATOM      3  C   LIG    1        1.099   3.999  -0.623  0.00  0.00    -0.010 A 
ATOM      4  C   LIG    1        1.927   3.071  -0.003  0.00  0.00    +0.340 A 
ATOM      5  N   LIG    1        3.052   3.450   0.581  0.00  0.00    -0.480 NA
ATOM      6  C   LIG    1        3.437   4.711   0.590  0.00  0.00    +0.280 A 
ENDROOT
BRANCH   4   7
ATOM      7  N   LIG    1        1.564   1.720   0.008  0.00  0.00    -0.440 N 
ATOM      8  C   LIG    1        0.440   1.181  -0.543  0.00  0.00    +0.490 A 
ATOM      9  N   LIG    1        0.421  -0.105  -0.347  0.00  0.00    -0.480 NA
ATOM     10  C   LIG    1        1.529  -0.481   0.343  0.00  0.00    +0.040 A 
ATOM     11  C   LIG    1        2.002  -1.710   0.808  0.00  0.00    +0.060 A 
ATOM     12  C   LIG    1        3.194  -1.768   1.494  0.00  0.00    +0.010 A 
ATOM     13  C   LIG    1        3.930  -0.616   1.727  0.00  0.00    +0.020 A 
ATOM     14  C   LIG    1        3.480   0.605   1.269  0.00  0.00    +0.050 A 
ATOM     15  C   LIG    1        2.279   0.684   0.580  0.00  0.00    +0.060 A 
ENDBRANCH   4   7
BRANCH   1  17
ATOM     16  C   LIG    1        2.161   8.020  -0.078  0.00  0.00    +0.560 C 
ATOM     17  N   LIG    1        3.074   7.032   0.010  0.00  0.00    -0.660 N 
ATOM     18  H   LIG    1        4.016   7.248   0.087  0.00  0.00    +0.420 HD
ATOM     19  O   LIG    1        0.975   7.754  -0.070  0.00  0.00    -0.510 OA
BRANCH  16  24
ATOM     20  C   LIG    1        2.083  11.768  -0.378  0.00  0.00    +0.210 A 
ATOM     21  C   LIG    1        3.441  12.063  -0.387  0.00  0.00    -0.040 A 
ATOM     22  C   LIG    1        4.375  11.048  -0.296  0.00  0.00    +0.060 A 
ATOM     23  C   LIG    1        3.965   9.735  -0.190  0.00  0.00    -0.030 A 
ATOM     24  C   LIG    1        2.603   9.427  -0.186  0.00  0.00    -0.090 A 
ATOM     25  C   LIG    1        1.661  10.450  -0.278  0.00  0.00    +0.000 A 
BRANCH  20  27
ATOM     26  C   LIG    1       -0.286  12.498  -0.350  0.00  0.00    +0.280 C 
ATOM     27  N   LIG    1        1.143  12.797  -0.470  0.00  0.00    -0.640 N 
ATOM     28  C   LIG    1        1.586  14.177  -0.687  0.00  0.00    +0.280 C 
ENDBRANCH  20  27
ENDBRANCH  16  24
ENDBRANCH   1  17
TORSDOF 4
