REMARK  Name = ZINCrH000004jaSt.0
REMARK                            x       y       z     vdW  Elec       q    Type
REMARK                         _______ _______ _______ _____ _____    ______ ____
ROOT
ATOM      1  N   LIG    1        2.424  -2.814  -0.083  0.00  0.00    -0.630 N 
ATOM      2  H   LIG    1        3.254  -2.316  -0.122  0.00  0.00    +0.420 HD
ATOM      3  C   LIG    1        1.247  -2.160  -0.021  0.00  0.00    +0.560 C 
ATOM      4  O   LIG    1        0.205  -2.785   0.028  0.00  0.00    -0.460 OA
ENDROOT
BRANCH   1  10
ATOM      5  C   LIG    1        2.340  -8.975  -0.105  0.00  0.00    -0.070 A 
ATOM      6  C   LIG    1        0.999  -8.629  -0.037  0.00  0.00    +0.040 A 
ATOM      7  C   LIG    1        0.618  -7.311  -0.012  0.00  0.00    +0.080 A 
ATOM      8  C   LIG    1        1.586  -6.286  -0.056  0.00  0.00    +0.100 A 
ATOM      9  N   LIG    1        1.403  -4.951  -0.035  0.00  0.00    -0.460 NA
ATOM     10  C   LIG    1        2.446  -4.199  -0.090  0.00  0.00    +0.330 A 
ATOM     11  S   LIG    1        3.904  -5.178  -0.167  0.00  0.00    +0.060 S 
ATOM     12  C   LIG    1        2.935  -6.649  -0.125  0.00  0.00    -0.170 A 
ATOM     13  C   LIG    1        3.303  -7.991  -0.149  0.00  0.00    +0.060 A 
BRANCH   5  15
ATOM     14  C   LIG    1        2.953 -10.925   1.299  0.00  0.00    +0.030 C 
ATOM     15  C   LIG    1        2.744 -10.427  -0.132  0.00  0.00    +0.080 C 
ENDBRANCH   5  15
ENDBRANCH   1  10
BRANCH   3  16
ATOM     16  C   LIG    1        1.223  -0.684  -0.013  0.00  0.00    -0.120 A 
ATOM     17  C   LIG    1        0.004  -0.004   0.051  0.00  0.00    +0.110 A 
ATOM     18  C   LIG    1       -0.015   1.373   0.058  0.00  0.00    +0.040 A 
ATOM     19  C   LIG    1        1.177   2.086   0.002  0.00  0.00    +0.140 A 
ATOM     20  C   LIG    1        2.392   1.413  -0.061  0.00  0.00    +0.040 A 
ATOM     21  C   LIG    1        2.419   0.036  -0.069  0.00  0.00    +0.070 A 
BRANCH  19  22
ATOM     22  N   LIG    1        1.154   3.484   0.010  0.00  0.00    -0.540 N 
ATOM     23  C   LIG    1        0.662   4.206  -1.004  0.00  0.00    +0.530 C 
ATOM     24  C   LIG    1        0.786   5.677  -0.674  0.00  0.00    +0.110 C 
ATOM     25  C   LIG    1        1.451   5.681   0.718  0.00  0.00    +0.110 C 
ATOM     26  O   LIG    1        0.190   3.753  -2.025  0.00  0.00    -0.460 OA
ATOM     27  C   LIG    1        1.628   4.211   1.030  0.00  0.00    +0.530 C 
ATOM     28  O   LIG    1        2.120   3.762   2.042  0.00  0.00    -0.470 OA
ENDBRANCH  19  22
ENDBRANCH   3  16
TORSDOF 4
