REMARK  Name = ZINCqH0000051aN8.0
REMARK                            x       y       z     vdW  Elec       q    Type
REMARK                         _______ _______ _______ _____ _____    ______ ____
ROOT
ATOM      1  O   LIG    1       -1.087   1.906  -0.297  0.00  0.00    -0.490 OA
ATOM      2  C   LIG    1       -0.026   1.334  -0.155  0.00  0.00    +0.520 C 
ATOM      3  N   LIG    1        0.002  -0.004   0.002  0.00  0.00    -0.670 N 
ATOM      4  H   LIG    1        0.852  -0.470   0.037  0.00  0.00    +0.420 HD
ENDROOT
BRANCH   3   5
ATOM      5  C   LIG    1       -1.196  -0.722   0.115  0.00  0.00    +0.130 A 
ATOM      6  C   LIG    1       -2.294  -0.146   0.740  0.00  0.00    +0.070 A 
ATOM      7  C   LIG    1       -3.476  -0.851   0.846  0.00  0.00    -0.030 A 
ATOM      8  C   LIG    1       -3.564  -2.139   0.339  0.00  0.00    +0.090 A 
ATOM      9  C   LIG    1       -2.465  -2.718  -0.280  0.00  0.00    +0.050 A 
ATOM     10  C   LIG    1       -1.284  -2.011  -0.392  0.00  0.00    +0.030 A 
BRANCH   8  11
ATOM     11  O   LIG    1       -4.726  -2.836   0.450  0.00  0.00    -0.310 OA
BRANCH  11  12
ATOM     12  C   LIG    1       -5.817  -2.179   1.099  0.00  0.00    +0.600 C 
ATOM     13  F   LIG    1       -5.450  -1.850   2.408  0.00  0.00    -0.160 F 
ATOM     14  F   LIG    1       -6.925  -3.032   1.125  0.00  0.00    -0.130 F 
ATOM     15  F   LIG    1       -6.142  -1.013   0.398  0.00  0.00    -0.160 F 
ENDBRANCH  11  12
ENDBRANCH   8  11
ENDBRANCH   3   5
BRANCH   2  16
ATOM     16  C   LIG    1        1.260   2.119  -0.161  0.00  0.00    +0.270 C 
BRANCH  16  17
ATOM     17  O   LIG    1        0.965   3.530  -0.344  0.00  0.00    -0.330 OA
BRANCH  17  18
ATOM     18  C   LIG    1        2.014   4.375  -0.372  0.00  0.00    +0.510 C 
ATOM     19  O   LIG    1        3.144   3.946  -0.248  0.00  0.00    -0.480 OA
BRANCH  18  20
ATOM     20  C   LIG    1        1.791   5.821  -0.555  0.00  0.00    -0.150 A 
ATOM     21  C   LIG    1        0.494   6.318  -0.704  0.00  0.00    +0.130 A 
ATOM     22  C   LIG    1        0.292   7.672  -0.869  0.00  0.00    -0.060 A 
ATOM     23  C   LIG    1        1.371   8.541  -0.899  0.00  0.00    +0.100 A 
ATOM     24  C   LIG    1        2.658   8.062  -0.757  0.00  0.00    +0.000 A 
ATOM     25 CL   LIG    1       -1.321   8.290  -1.048  0.00  0.00    -0.050 Cl
ATOM     26  C   LIG    1        2.880   6.704  -0.585  0.00  0.00    +0.180 A 
BRANCH  26  27
ATOM     27  O   LIG    1        4.144   6.232  -0.447  0.00  0.00    -0.480 OA
ATOM     28  H   LIG    1        4.568   5.994  -1.283  0.00  0.00    +0.400 HD
ENDBRANCH  26  27
ENDBRANCH  18  20
ENDBRANCH  17  18
ENDBRANCH  16  17
ENDBRANCH   2  16
TORSDOF 8
