REMARK  Name = ZINCrH000004tUm9.0
REMARK                            x       y       z     vdW  Elec       q    Type
REMARK                         _______ _______ _______ _____ _____    ______ ____
ROOT
ATOM      1  O   LIG    1        2.052   7.097  -2.175  0.00  0.00    -0.490 OA
ATOM      2  C   LIG    1        1.833   5.908  -2.281  0.00  0.00    +0.530 C 
ATOM      3  N   LIG    1        2.376   5.042  -1.402  0.00  0.00    -0.550 N 
ATOM      4  C   LIG    1        2.014   3.618  -1.437  0.00  0.00    +0.280 C 
ATOM      5  C   LIG    1        1.764   3.163   0.007  0.00  0.00    +0.260 C 
ATOM      6  C   LIG    1        3.064   3.298   0.800  0.00  0.00    +0.100 C 
ATOM      7  C   LIG    1        3.645   4.677   0.631  0.00  0.00    -0.120 A 
ATOM      8  C   LIG    1        4.550   5.142   1.569  0.00  0.00    +0.040 A 
ATOM      9  C   LIG    1        5.103   6.401   1.440  0.00  0.00    -0.020 A 
ATOM     10  C   LIG    1        4.756   7.206   0.371  0.00  0.00    +0.030 A 
ATOM     11  C   LIG    1        3.852   6.750  -0.569  0.00  0.00    +0.020 A 
ATOM     12  C   LIG    1        3.294   5.484  -0.440  0.00  0.00    +0.150 A 
ENDROOT
BRANCH   5  13
ATOM     13  N   LIG    1        1.328   1.765   0.012  0.00  0.00    -0.370 N 
ATOM     14  C   LIG    1        2.134   0.682  -0.014  0.00  0.00    +0.220 A 
ATOM     15  C   LIG    1        1.347  -0.418   0.002  0.00  0.00    -0.120 A 
ATOM     16  C   LIG    1        0.014   0.006   0.038  0.00  0.00    +0.240 A 
ATOM     17  N   LIG    1        0.002   1.315   0.044  0.00  0.00    -0.290 NA
ENDBRANCH   5  13
BRANCH   2  18
ATOM     18  C   LIG    1        0.956   5.401  -3.396  0.00  0.00    +0.090 C 
BRANCH  18  19
ATOM     19  C   LIG    1        0.589   6.560  -4.324  0.00  0.00    +0.280 C 
ATOM     20  O   LIG    1        1.768   7.054  -4.970  0.00  0.00    -0.360 OA
ATOM     21  C   LIG    1        1.503   7.986  -6.022  0.00  0.00    +0.220 C 
ATOM     22  C   LIG    1        0.892   7.247  -7.218  0.00  0.00    +0.090 C 
ATOM     23  C   LIG    1       -0.245   6.375  -6.702  0.00  0.00    -0.090 A 
ATOM     24  C   LIG    1       -1.237   5.818  -7.498  0.00  0.00    +0.010 A 
ATOM     25  C   LIG    1       -2.144   5.085  -6.858  0.00  0.00    -0.040 A 
ATOM     26  S   LIG    1       -1.776   5.059  -5.139  0.00  0.00    +0.120 S 
ATOM     27  C   LIG    1       -0.367   6.075  -5.393  0.00  0.00    -0.240 A 
ENDBRANCH  18  19
ENDBRANCH   2  18
TORSDOF 3
