REMARK  Name = ZINCrH000004pAiH.0
REMARK                            x       y       z     vdW  Elec       q    Type
REMARK                         _______ _______ _______ _____ _____    ______ ____
ROOT
ATOM      1  C   LIG    1        5.421  -0.726   0.268  0.00  0.00    +0.070 C 
ENDROOT
BRANCH   1   3
ATOM      2  N   LIG    1        5.697  -3.133  -0.228  0.00  0.00    -0.610 N 
ATOM      3  C   LIG    1        4.979  -2.163   0.371  0.00  0.00    +0.520 C 
ATOM      4  O   LIG    1        3.977  -2.445   0.992  0.00  0.00    -0.540 OA
ATOM      5  C   LIG    1        6.908  -2.792  -0.979  0.00  0.00    +0.290 C 
BRANCH   2   7
ATOM      6  C   LIG    1        6.438  -5.391   0.352  0.00  0.00    +0.040 C 
ATOM      7  C   LIG    1        5.267  -4.530  -0.128  0.00  0.00    +0.290 C 
BRANCH   7   8
ATOM      8  C   LIG    1        4.810  -5.013  -1.480  0.00  0.00    -0.100 A 
ATOM      9  C   LIG    1        5.224  -4.357  -2.624  0.00  0.00    +0.050 A 
ATOM     10  C   LIG    1        4.810  -4.802  -3.865  0.00  0.00    -0.010 A 
ATOM     11  C   LIG    1        3.971  -5.900  -3.962  0.00  0.00    +0.100 A 
ATOM     12  C   LIG    1        3.553  -6.553  -2.815  0.00  0.00    -0.010 A 
ATOM     13  F   LIG    1        3.561  -6.333  -5.174  0.00  0.00    -0.140 F 
ATOM     14  C   LIG    1        3.972  -6.109  -1.575  0.00  0.00    +0.050 A 
ENDBRANCH   7   8
ENDBRANCH   2   7
ENDBRANCH   1   3
BRANCH   1  15
ATOM     15  C   LIG    1        4.439   0.166   1.029  0.00  0.00    +0.070 C 
BRANCH  15  16
ATOM     16  C   LIG    1        4.881   1.603   0.926  0.00  0.00    +0.400 C 
ATOM     17  O   LIG    1        5.884   1.886   0.305  0.00  0.00    -0.450 OA
BRANCH  16  18
ATOM     18  C   LIG    1        4.099   2.661   1.579  0.00  0.00    -0.170 A 
ATOM     19  C   LIG    1        2.941   2.337   2.296  0.00  0.00    +0.090 A 
ATOM     20  C   LIG    1        2.208   3.333   2.901  0.00  0.00    +0.010 A 
ATOM     21  C   LIG    1        2.616   4.659   2.812  0.00  0.00    +0.090 A 
ATOM     22  O   LIG    1        1.875   5.624   3.418  0.00  0.00    -0.300 OA
ATOM     23  C   LIG    1        2.511   6.890   3.623  0.00  0.00    +0.230 C 
ATOM     24  C   LIG    1        3.214   7.291   2.319  0.00  0.00    +0.230 C 
ATOM     25  O   LIG    1        4.180   6.283   2.003  0.00  0.00    -0.300 OA
ATOM     26  C   LIG    1        3.768   4.989   2.100  0.00  0.00    +0.040 A 
ATOM     27  C   LIG    1        4.507   3.997   1.485  0.00  0.00    +0.100 A 
ENDBRANCH  16  18
ENDBRANCH  15  16
ENDBRANCH   1  15
TORSDOF 6
