REMARK  Name = ZINCpk000000mSI8.0
REMARK                            x       y       z     vdW  Elec       q    Type
REMARK                         _______ _______ _______ _____ _____    ______ ____
ROOT
ATOM      1  N   LIG    1       -0.236   0.055   0.128  0.00  0.00    -0.630 N 
ATOM      2  H   LIG    1        0.552  -0.395  -0.215  0.00  0.00    +0.420 HD
ENDROOT
BRANCH   1  10
ATOM      3  C   LIG    1       -0.714   7.963  -0.713  0.00  0.00    +0.110 C 
ATOM      4  C   LIG    1       -0.192   6.552  -0.638  0.00  0.00    +0.520 C 
ATOM      5  N   LIG    1       -1.053   5.516  -0.594  0.00  0.00    -0.560 N 
ATOM      6  C   LIG    1       -2.507   5.625  -0.740  0.00  0.00    +0.280 C 
ATOM      7  C   LIG    1       -3.034   4.187  -0.617  0.00  0.00    +0.110 C 
ATOM      8  C   LIG    1       -1.797   3.343  -0.404  0.00  0.00    -0.120 A 
ATOM      9  C   LIG    1       -1.650   1.981  -0.235  0.00  0.00    +0.070 A 
ATOM     10  C   LIG    1       -0.387   1.435  -0.050  0.00  0.00    +0.130 A 
ATOM     11  C   LIG    1        0.727   2.264  -0.047  0.00  0.00    +0.010 A 
ATOM     12  C   LIG    1        0.579   3.623  -0.221  0.00  0.00    +0.030 A 
ATOM     13  C   LIG    1       -0.690   4.177  -0.403  0.00  0.00    +0.130 A 
ATOM     14  O   LIG    1        1.004   6.348  -0.619  0.00  0.00    -0.520 OA
ENDBRANCH   1  10
BRANCH   1  15
ATOM     15  C   LIG    1       -1.210  -0.667   0.791  0.00  0.00    +0.510 A 
ATOM     16  C   LIG    1       -1.136  -2.071   0.876  0.00  0.00    -0.330 A 
ATOM     17  C   LIG    1       -0.228  -3.047   0.411  0.00  0.00    +0.310 A 
ATOM     18  N   LIG    1       -0.657  -4.219   0.783  0.00  0.00    -0.250 NA
ATOM     19  N   LIG    1       -1.851  -4.079   1.501  0.00  0.00    -0.380 N 
ATOM     20  C   LIG    1       -2.158  -2.752   1.565  0.00  0.00    +0.370 A 
ATOM     21  N   LIG    1       -3.149  -2.046   2.106  0.00  0.00    -0.570 NA
ATOM     22  C   LIG    1       -3.175  -0.736   2.000  0.00  0.00    +0.600 A 
ATOM     23  N   LIG    1       -2.237  -0.053   1.369  0.00  0.00    -0.590 NA
BRANCH  19  24
ATOM     24  C   LIG    1       -2.636  -5.171   2.083  0.00  0.00    +0.360 C 
BRANCH  24  25
ATOM     25  C   LIG    1       -3.660  -5.665   1.058  0.00  0.00    +0.160 C 
BRANCH  25  26
ATOM     26  O   LIG    1       -4.426  -6.730   1.626  0.00  0.00    -0.570 OA
ATOM     27  H   LIG    1       -5.096  -7.093   1.031  0.00  0.00    +0.390 HD
ENDBRANCH  25  26
ENDBRANCH  24  25
ENDBRANCH  19  24
ENDBRANCH   1  15
TORSDOF 5
