REMARK  Name = ZINCvU0000000Fv0.0
REMARK                            x       y       z     vdW  Elec       q    Type
REMARK                         _______ _______ _______ _____ _____    ______ ____
ROOT
ATOM      1  O   LIG    1       -5.621  -1.744   0.048  0.00  0.00    -0.490 OA
ATOM      2  C   LIG    1       -4.798  -0.853   0.044  0.00  0.00    +0.570 C 
ATOM      3  N   LIG    1       -3.483  -1.151   0.030  0.00  0.00    -0.460 N 
ATOM      4  N   LIG    1       -2.442  -0.225   0.025  0.00  0.00    -0.240 NA
ATOM      5  C   LIG    1       -1.268  -0.753   0.011  0.00  0.00    +0.150 C 
ATOM      6  C   LIG    1       -1.392  -2.260  -0.002  0.00  0.00    +0.090 C 
ATOM      7  C   LIG    1       -2.913  -2.507   0.017  0.00  0.00    +0.260 C 
ENDROOT
BRANCH   5   8
ATOM      8  C   LIG    1        0.002  -0.004   0.002  0.00  0.00    -0.040 A 
ATOM      9  C   LIG    1       -0.017   1.382   0.010  0.00  0.00    +0.090 A 
ATOM     10  C   LIG    1        1.196   2.088   0.002  0.00  0.00    -0.060 A 
ATOM     11  C   LIG    1        1.218   3.494   0.010  0.00  0.00    +0.030 A 
ATOM     12  C   LIG    1        2.411   4.149   0.002  0.00  0.00    +0.010 A 
ATOM     13  C   LIG    1        3.614   3.446  -0.013  0.00  0.00    +0.020 A 
ATOM     14  C   LIG    1        3.631   2.085  -0.021  0.00  0.00    +0.020 A 
ATOM     15  C   LIG    1        2.420   1.373  -0.014  0.00  0.00    -0.040 A 
ATOM     16  C   LIG    1        2.406  -0.034  -0.021  0.00  0.00    +0.030 A 
ATOM     17  C   LIG    1        1.225  -0.702  -0.013  0.00  0.00    +0.040 A 
ENDBRANCH   5   8
BRANCH   7  18
ATOM     18  C   LIG    1       -3.317  -3.264   1.256  0.00  0.00    -0.090 A 
ATOM     19  C   LIG    1       -3.370  -2.615   2.475  0.00  0.00    +0.010 A 
ATOM     20  C   LIG    1       -3.746  -3.307   3.611  0.00  0.00    +0.000 A 
ATOM     21  C   LIG    1       -4.056  -4.652   3.530  0.00  0.00    +0.010 A 
ATOM     22  C   LIG    1       -3.997  -5.302   2.312  0.00  0.00    +0.010 A 
ATOM     23  C   LIG    1       -3.628  -4.608   1.175  0.00  0.00    +0.020 A 
ENDBRANCH   7  18
BRANCH   2  24
ATOM     24  C   LIG    1       -5.244   0.586   0.057  0.00  0.00    +0.120 C 
BRANCH  24  25
ATOM     25  S   LIG    1       -7.053   0.657   0.075  0.00  0.00    +0.080 S 
BRANCH  25  26
ATOM     26  C   LIG    1       -7.290   2.403   0.087  0.00  0.00    +0.280 A 
ATOM     27  N   LIG    1       -6.232   3.200   0.086  0.00  0.00    -0.530 NA
ATOM     28  C   LIG    1       -6.376   4.515   0.090  0.00  0.00    +0.330 A 
ATOM     29  C   LIG    1       -7.652   5.056   0.106  0.00  0.00    -0.090 A 
ATOM     30  C   LIG    1       -8.737   4.193   0.112  0.00  0.00    +0.340 A 
ATOM     31  N   LIG    1       -8.524   2.888   0.102  0.00  0.00    -0.500 NA
ENDBRANCH  25  26
ENDBRANCH  24  25
ENDBRANCH   2  24
TORSDOF 5
