REMARK  Name = ZINCqH0000005edp.2
REMARK                            x       y       z     vdW  Elec       q    Type
REMARK                         _______ _______ _______ _____ _____    ______ ____
ROOT
ATOM      1  C   LIG    1       -0.984   3.023   0.823  0.00  0.00    +0.320 C 
ENDROOT
BRANCH   1   2
ATOM      2  C   LIG    1        0.286   3.716   0.400  0.00  0.00    -0.100 A 
ATOM      3  C   LIG    1        1.102   3.140  -0.556  0.00  0.00    +0.050 A 
ATOM      4  C   LIG    1        2.265   3.778  -0.946  0.00  0.00    +0.010 A 
ATOM      5  C   LIG    1        2.616   4.986  -0.374  0.00  0.00    +0.010 A 
ATOM      6  C   LIG    1        1.803   5.559   0.586  0.00  0.00    +0.010 A 
ATOM      7  C   LIG    1        0.638   4.923   0.973  0.00  0.00    +0.020 A 
ENDBRANCH   1   2
BRANCH   1   8
ATOM      8  C   LIG    1       -2.029   3.193  -0.249  0.00  0.00    +0.200 A 
ATOM      9  N   LIG    1       -3.065   3.994  -0.206  0.00  0.00    -0.470 NA
ATOM     10  C   LIG    1       -3.715   3.812  -1.377  0.00  0.00    +0.210 A 
ATOM     11  N   LIG    1       -3.043   2.919  -2.057  0.00  0.00    -0.370 NA
ATOM     12  O   LIG    1       -2.071   2.560  -1.425  0.00  0.00    +0.100 OA
BRANCH  10  13
ATOM     13  C   LIG    1       -4.959   4.495  -1.810  0.00  0.00    -0.030 A 
ATOM     14  C   LIG    1       -5.573   5.425  -0.974  0.00  0.00    +0.050 A 
ATOM     15  C   LIG    1       -6.727   6.062  -1.384  0.00  0.00    +0.010 A 
ATOM     16  C   LIG    1       -7.280   5.770  -2.618  0.00  0.00    +0.030 A 
ATOM     17  C   LIG    1       -6.677   4.844  -3.450  0.00  0.00    +0.010 A 
ATOM     18  C   LIG    1       -5.520   4.205  -3.053  0.00  0.00    +0.050 A 
ENDBRANCH  10  13
ENDBRANCH   1   8
BRANCH   1  20
ATOM     19  C   LIG    1        0.330   1.389   2.033  0.00  0.00    +0.220 C 
ATOM     20  N   LIG    1       -0.718   1.592   1.024  0.00  0.00    -0.530 NA
BRANCH  20  21
ATOM     21  C   LIG    1       -1.946   0.874   1.388  0.00  0.00    +0.180 C 
BRANCH  21  22
ATOM     22  C   LIG    1       -1.769  -0.618   1.101  0.00  0.00    -0.010 C 
ATOM     23  C   LIG    1       -3.097  -1.377   1.341  0.00  0.00    +0.010 C 
ATOM     24  C   LIG    1       -2.604  -2.676   2.034  0.00  0.00    +0.200 C 
ATOM     25  O   LIG    1       -1.514  -2.224   2.865  0.00  0.00    -0.380 OA
ATOM     26  C   LIG    1       -0.784  -1.247   2.105  0.00  0.00    +0.190 C 
ENDBRANCH  21  22
ENDBRANCH  20  21
ENDBRANCH   1  20
TORSDOF 6
