REMARK  Name = ZINCrg00001Jdv0X.0
REMARK                            x       y       z     vdW  Elec       q    Type
REMARK                         _______ _______ _______ _____ _____    ______ ____
ROOT
ATOM      1  C   LIG    1        2.393   0.017  -0.026  0.00  0.00    -0.170 A 
ATOM      2  C   LIG    1        1.193  -0.698  -0.027  0.00  0.00    +0.060 A 
ATOM      3  C   LIG    1       -0.009  -0.023  -0.024  0.00  0.00    -0.010 A 
ATOM      4  C   LIG    1       -0.034   1.362  -0.019  0.00  0.00    +0.070 A 
ATOM      5  C   LIG    1        1.144   2.082  -0.018  0.00  0.00    +0.010 A 
ATOM      6  C   LIG    1        2.364   1.419  -0.022  0.00  0.00    +0.210 A 
ENDROOT
BRANCH   1   9
ATOM      7  N   LIG    1        3.708  -2.043   0.068  0.00  0.00    -0.720 N 
ATOM      8  H   LIG    1        2.878  -2.540   0.140  0.00  0.00    +0.400 HD
ATOM      9  C   LIG    1        3.683  -0.699  -0.029  0.00  0.00    +0.570 C 
ATOM     10  O   LIG    1        4.723  -0.077  -0.120  0.00  0.00    -0.540 OA
BRANCH   7  11
ATOM     11  C   LIG    1        4.989  -2.754   0.064  0.00  0.00    +0.260 C 
BRANCH  11  12
ATOM     12  C   LIG    1        4.738  -4.258   0.185  0.00  0.00    +0.100 C 
BRANCH  12  13
ATOM     13  C   LIG    1        6.075  -5.001   0.181  0.00  0.00    +0.030 C 
ATOM     14  N   LIG    1        7.282  -4.274   0.584  0.00  0.00    -0.120 NA
ATOM     15  N   LIG    1        7.170  -4.469  -0.635  0.00  0.00    -0.120 NA
BRANCH  13  16
ATOM     16  C   LIG    1        6.012  -6.510   0.427  0.00  0.00    +0.120 C 
BRANCH  16  17
ATOM     17  C   LIG    1        7.426  -7.092   0.391  0.00  0.00    +0.160 C 
BRANCH  17  19
ATOM     18  C   LIG    1        7.316  -9.701   0.817  0.00  0.00    +0.030 C 
ATOM     19  C   LIG    1        7.365  -8.544   0.628  0.00  0.00    -0.200 C 
ENDBRANCH  17  19
ENDBRANCH  16  17
ENDBRANCH  13  16
ENDBRANCH  12  13
ENDBRANCH  11  12
ENDBRANCH   7  11
ENDBRANCH   1   9
BRANCH   6  20
ATOM     20  N   LIG    1        3.554   2.144  -0.020  0.00  0.00    -0.660 N 
ATOM     21  H   LIG    1        4.326   1.809  -0.503  0.00  0.00    +0.430 HD
ATOM     22  C   LIG    1        3.632   3.309   0.652  0.00  0.00    +0.500 C 
ATOM     23  O   LIG    1        2.700   3.680   1.334  0.00  0.00    -0.490 OA
BRANCH  22  24
ATOM     24  C   LIG    1        4.878   4.151   0.557  0.00  0.00    +0.390 C 
BRANCH  24  25
ATOM     25  N   LIG    1        4.716   5.357   1.373  0.00  0.00    -0.310 N 
ATOM     26  C   LIG    1        5.538   5.777   2.353  0.00  0.00    +0.400 A 
ATOM     27  N   LIG    1        5.028   6.890   2.820  0.00  0.00    -0.300 NA
ATOM     28  N   LIG    1        3.950   7.142   2.162  0.00  0.00    -0.070 NA
ATOM     29  N   LIG    1        3.761   6.221   1.282  0.00  0.00    -0.070 NA
ENDBRANCH  24  25
ENDBRANCH  22  24
ENDBRANCH   6  20
TORSDOF 10
