REMARK  Name = ZINCvU00000004xc.0
REMARK                            x       y       z     vdW  Elec       q    Type
REMARK                         _______ _______ _______ _____ _____    ______ ____
ROOT
ATOM      1  C   LIG    1       -1.613   4.978  -7.556  0.00  0.00    +0.150 A 
ATOM      2  N   LIG    1       -2.846   5.426  -7.472  0.00  0.00    -0.290 NA
ATOM      3  N   LIG    1       -3.267   5.779  -8.633  0.00  0.00    -0.240 NA
ATOM      4  C   LIG    1       -2.333   5.569  -9.532  0.00  0.00    +0.220 A 
ATOM      5  N   LIG    1       -1.245   5.049  -8.869  0.00  0.00    -0.440 N 
ENDROOT
BRANCH   4   6
ATOM      6  C   LIG    1       -2.432   5.840 -10.982  0.00  0.00    +0.010 A 
ATOM      7  C   LIG    1       -1.421   6.548 -11.632  0.00  0.00    +0.030 A 
ATOM      8  C   LIG    1       -1.519   6.798 -12.986  0.00  0.00    +0.040 A 
ATOM      9  C   LIG    1       -2.616   6.347 -13.698  0.00  0.00    +0.040 A 
ATOM     10  C   LIG    1       -3.622   5.643 -13.060  0.00  0.00    +0.050 A 
ATOM     11  C   LIG    1       -3.534   5.382 -11.707  0.00  0.00    -0.060 A 
ATOM     12 BR   LIG    1       -4.906   4.414 -10.838  0.00  0.00    -0.020 Br
ENDBRANCH   4   6
BRANCH   1  13
ATOM     13  S   LIG    1       -0.622   4.388  -6.223  0.00  0.00    +0.080 S 
BRANCH  13  14
ATOM     14  C   LIG    1       -1.780   4.607  -4.850  0.00  0.00    +0.110 C 
BRANCH  14  17
ATOM     15  N   LIG    1       -1.809   4.225  -2.406  0.00  0.00    -0.720 N 
ATOM     16  H   LIG    1       -2.717   4.568  -2.395  0.00  0.00    +0.400 HD
ATOM     17  C   LIG    1       -1.130   4.154  -3.568  0.00  0.00    +0.540 C 
ATOM     18  O   LIG    1        0.004   3.726  -3.582  0.00  0.00    -0.520 OA
BRANCH  15  25
ATOM     19  C   LIG    1       -1.650   6.013  -0.133  0.00  0.00    +0.030 C 
ATOM     20  C   LIG    1       -1.830   4.502   0.024  0.00  0.00    -0.020 C 
ATOM     21  C   LIG    1       -1.170   4.043   1.325  0.00  0.00    +0.030 C 
ATOM     22  C   LIG    1       -1.350   2.531   1.483  0.00  0.00    +0.010 C 
ATOM     23  C   LIG    1       -0.697   1.814   0.299  0.00  0.00    +0.010 C 
ATOM     24  C   LIG    1       -1.357   2.274  -1.003  0.00  0.00    +0.000 C 
ATOM     25  C   LIG    1       -1.177   3.785  -1.160  0.00  0.00    +0.240 C 
ENDBRANCH  15  25
ENDBRANCH  14  17
ENDBRANCH  13  14
ENDBRANCH   1  13
BRANCH   5  26
ATOM     26  C   LIG    1        0.040   4.655  -9.451  0.00  0.00    +0.360 C 
BRANCH  26  27
ATOM     27  C   LIG    1       -0.029   3.216  -9.892  0.00  0.00    -0.120 A 
ATOM     28  C   LIG    1        0.309   2.205  -9.011  0.00  0.00    +0.040 A 
ATOM     29  C   LIG    1        0.242   0.885  -9.414  0.00  0.00    +0.010 A 
ATOM     30  C   LIG    1       -0.154   0.575 -10.702  0.00  0.00    +0.030 A 
ATOM     31  C   LIG    1       -0.487   1.585 -11.585  0.00  0.00    +0.010 A 
ATOM     32  C   LIG    1       -0.424   2.905 -11.180  0.00  0.00    +0.030 A 
ENDBRANCH  26  27
ENDBRANCH   5  26
TORSDOF 7
