REMARK  Name = ZINCvU00000004a6.0
REMARK                            x       y       z     vdW  Elec       q    Type
REMARK                         _______ _______ _______ _____ _____    ______ ____
ROOT
ATOM      1  C   LIG    1        7.466   1.023  -0.194  0.00  0.00    +0.230 C 
ATOM      2  C   LIG    1        8.527   2.142  -0.246  0.00  0.00    +0.030 C 
ATOM      3  C   LIG    1        7.888   3.264   0.615  0.00  0.00    +0.040 C 
ATOM      4  C   LIG    1        6.387   3.109   0.264  0.00  0.00    +0.250 C 
ATOM      5  N   LIG    1        6.179   1.655   0.130  0.00  0.00    -0.600 N 
ATOM      6  C   LIG    1        5.004   1.013   0.285  0.00  0.00    +0.570 C 
ATOM      7  O   LIG    1        4.972  -0.203   0.287  0.00  0.00    -0.520 OA
ENDROOT
BRANCH   6   8
ATOM      8  C   LIG    1        3.757   1.784   0.451  0.00  0.00    -0.130 A 
ATOM      9  C   LIG    1        3.754   3.165   0.238  0.00  0.00    +0.050 A 
ATOM     10  C   LIG    1        2.589   3.884   0.394  0.00  0.00    -0.040 A 
ATOM     11  C   LIG    1        1.416   3.239   0.761  0.00  0.00    +0.130 A 
ATOM     12  C   LIG    1        1.411   1.861   0.975  0.00  0.00    +0.100 A 
ATOM     13  C   LIG    1        2.577   1.136   0.827  0.00  0.00    +0.040 A 
BRANCH  12  14
ATOM     14  O   LIG    1        0.260   1.233   1.335  0.00  0.00    -0.300 OA
ATOM     15  C   LIG    1        0.329  -0.180   1.538  0.00  0.00    +0.240 C 
ENDBRANCH  12  14
BRANCH  11  16
ATOM     16  O   LIG    1        0.270   3.952   0.913  0.00  0.00    -0.300 OA
BRANCH  16  17
ATOM     17  C   LIG    1        0.346   5.360   0.679  0.00  0.00    +0.320 C 
BRANCH  17  18
ATOM     18  C   LIG    1       -1.011   5.979   0.893  0.00  0.00    +0.050 A 
ATOM     19  C   LIG    1       -2.084   5.264   1.249  0.00  0.00    -0.030 A 
ATOM     20  S   LIG    1       -3.449   6.369   1.390  0.00  0.00    +0.130 S 
ATOM     21  C   LIG    1       -2.442   7.682   0.958  0.00  0.00    +0.220 A 
ATOM     22  N   LIG    1       -1.237   7.269   0.752  0.00  0.00    -0.470 NA
ENDBRANCH  17  18
ENDBRANCH  16  17
ENDBRANCH  11  16
ENDBRANCH   6   8
BRANCH   1  23
ATOM     23  C   LIG    1        7.377   0.330  -1.556  0.00  0.00    +0.030 C 
BRANCH  23  24
ATOM     24  C   LIG    1        7.129   1.360  -2.628  0.00  0.00    -0.060 A 
ATOM     25  C   LIG    1        5.992   2.144  -2.582  0.00  0.00    +0.000 A 
ATOM     26  C   LIG    1        5.766   3.092  -3.564  0.00  0.00    +0.000 A 
ATOM     27  C   LIG    1        6.673   3.248  -4.595  0.00  0.00    +0.000 A 
ATOM     28  C   LIG    1        7.808   2.460  -4.643  0.00  0.00    +0.000 A 
ATOM     29  C   LIG    1        8.036   1.516  -3.659  0.00  0.00    +0.000 A 
ENDBRANCH  23  24
BRANCH  23  31
ATOM     30  C   LIG    1        6.266  -1.516  -2.820  0.00  0.00    +0.000 C 
ATOM     31  C   LIG    1        6.226  -0.678  -1.541  0.00  0.00    +0.050 C 
ENDBRANCH  23  31
ENDBRANCH   1  23
TORSDOF 8
