REMARK  Name = ZINCtj00001n1k62.1
REMARK                            x       y       z     vdW  Elec       q    Type
REMARK                         _______ _______ _______ _____ _____    ______ ____
ROOT
ATOM      1  C   LIG    1       -2.033   1.588  -2.929  0.00  0.00    +0.670 C 
ATOM      2  N   LIG    1       -1.321   1.116  -1.910  0.00  0.00    -0.600 NA
ATOM      3  C   LIG    1       -0.753   1.956  -1.050  0.00  0.00    +0.640 C 
ATOM      4  N   LIG    1       -0.888   3.268  -1.214  0.00  0.00    -0.620 NA
ATOM      5  C   LIG    1       -1.596   3.740  -2.236  0.00  0.00    +0.690 C 
ATOM      6  H   LIG    1       -0.470   3.881  -0.589  0.00  0.00    +0.440 HD
ATOM      7  N   LIG    1       -2.168   2.901  -3.093  0.00  0.00    -0.610 NA
ENDROOT
BRANCH   3   8
ATOM      8  N   LIG    1       -0.018   1.465   0.010  0.00  0.00    -0.460 NA
ATOM      9  C   LIG    1        1.348   2.008   0.000  0.00  0.00    +0.240 C 
ATOM     10  C   LIG    1        2.103   1.504   1.232  0.00  0.00    +0.230 C 
ATOM     11  N   LIG    1        2.123   0.034   1.224  0.00  0.00    -0.490 N 
ATOM     12  C   LIG    1        0.757  -0.508   1.234  0.00  0.00    +0.230 C 
ATOM     13  C   LIG    1        0.002  -0.004   0.002  0.00  0.00    +0.280 C 
BRANCH  11  14
ATOM     14  C   LIG    1        2.867  -0.462   2.297  0.00  0.00    +0.150 A 
ATOM     15  C   LIG    1        2.285  -1.344   3.198  0.00  0.00    -0.020 A 
ATOM     16  C   LIG    1        3.025  -1.837   4.255  0.00  0.00    +0.140 A 
ATOM     17  C   LIG    1        4.340  -1.445   4.423  0.00  0.00    -0.060 A 
ATOM     18  C   LIG    1        4.921  -0.563   3.530  0.00  0.00    +0.130 A 
ATOM     19  C   LIG    1        4.189  -0.070   2.468  0.00  0.00    +0.010 A 
BRANCH  17  20
ATOM     20  N   LIG    1        5.128  -1.971   5.560  0.00  0.00    +0.030 N 
ATOM     21  O   LIG    1        4.618  -2.748   6.347  0.00  0.00    -0.160 OA
ATOM     22  O   LIG    1        6.287  -1.626   5.710  0.00  0.00    -0.160 OA
ENDBRANCH  17  20
ENDBRANCH  11  14
ENDBRANCH   3   8
BRANCH   1  23
ATOM     23  N   LIG    1       -2.627   0.717  -3.818  0.00  0.00    -0.630 NA
ATOM     24  H   LIG    1       -2.529  -0.241  -3.698  0.00  0.00    +0.430 HD
BRANCH  23  26
ATOM     25  C   LIG    1       -2.472   1.557  -6.109  0.00  0.00    +0.040 C 
ATOM     26  C   LIG    1       -3.408   1.237  -4.943  0.00  0.00    +0.240 C 
ATOM     27  C   LIG    1       -4.431   0.188  -5.383  0.00  0.00    +0.060 C 
ENDBRANCH  23  26
ENDBRANCH   1  23
BRANCH   5  28
ATOM     28  N   LIG    1       -1.737   5.103  -2.406  0.00  0.00    -0.650 NA
ATOM     29  H   LIG    1       -2.253   5.447  -3.151  0.00  0.00    +0.450 HD
BRANCH  28  30
ATOM     30  C   LIG    1       -1.106   6.028  -1.462  0.00  0.00    +0.290 C 
BRANCH  30  31
ATOM     31  C   LIG    1       -1.415   7.468  -1.875  0.00  0.00    +0.220 C 
BRANCH  31  32
ATOM     32  O   LIG    1       -2.819   7.707  -1.758  0.00  0.00    -0.570 OA
ATOM     33  H   LIG    1       -3.088   8.602  -2.005  0.00  0.00    +0.400 HD
ENDBRANCH  31  32
ENDBRANCH  30  31
ENDBRANCH  28  30
ENDBRANCH   5  28
TORSDOF 9
