REMARK  Name = ZINCtj00001n1k62.0
REMARK                            x       y       z     vdW  Elec       q    Type
REMARK                         _______ _______ _______ _____ _____    ______ ____
ROOT
ATOM      1  C   LIG    1       -1.216   1.640   0.017  0.00  0.00    +0.690 C 
ATOM      2  N   LIG    1       -2.357   0.959   0.018  0.00  0.00    -0.590 NA
ATOM      3  C   LIG    1       -3.518   1.608   0.027  0.00  0.00    +0.640 C 
ATOM      4  N   LIG    1       -3.536   2.938   0.035  0.00  0.00    -0.610 NA
ATOM      5  C   LIG    1       -2.394   3.618   0.033  0.00  0.00    +0.690 C 
ATOM      6  N   LIG    1       -1.234   2.969   0.029  0.00  0.00    -0.630 NA
ATOM      7  H   LIG    1       -0.400   3.465   0.032  0.00  0.00    +0.440 HD
ENDROOT
BRANCH   3   8
ATOM      8  N   LIG    1       -4.704   0.902   0.029  0.00  0.00    -0.440 NA
ATOM      9  C   LIG    1       -4.771  -0.017  -1.116  0.00  0.00    +0.260 C 
ATOM     10  C   LIG    1       -6.061  -0.836  -1.035  0.00  0.00    +0.230 C 
ATOM     11  N   LIG    1       -7.215   0.074  -1.024  0.00  0.00    -0.490 N 
ATOM     12  C   LIG    1       -7.148   0.992   0.121  0.00  0.00    +0.220 C 
ATOM     13  C   LIG    1       -5.858   1.811   0.039  0.00  0.00    +0.250 C 
BRANCH  11  14
ATOM     14  C   LIG    1       -8.415  -0.641  -1.023  0.00  0.00    +0.160 A 
ATOM     15  C   LIG    1       -9.349  -0.433  -0.015  0.00  0.00    -0.020 A 
ATOM     16  C   LIG    1      -10.537  -1.137  -0.020  0.00  0.00    +0.140 A 
ATOM     17  C   LIG    1      -10.793  -2.057  -1.020  0.00  0.00    -0.070 A 
ATOM     18  C   LIG    1       -9.863  -2.271  -2.022  0.00  0.00    +0.130 A 
ATOM     19  C   LIG    1       -8.676  -1.566  -2.026  0.00  0.00    +0.010 A 
BRANCH  17  20
ATOM     20  N   LIG    1      -12.064  -2.815  -1.018  0.00  0.00    +0.030 N 
ATOM     21  O   LIG    1      -12.883  -2.628  -0.137  0.00  0.00    -0.160 OA
ATOM     22  O   LIG    1      -12.291  -3.626  -1.898  0.00  0.00    -0.160 OA
ENDBRANCH  17  20
ENDBRANCH  11  14
ENDBRANCH   3   8
BRANCH   1  23
ATOM     23  N   LIG    1       -0.011   0.966   0.007  0.00  0.00    -0.650 NA
ATOM     24  H   LIG    1        0.002  -0.004   0.002  0.00  0.00    +0.450 HD
BRANCH  23  26
ATOM     25  C   LIG    1        2.361   0.850   0.594  0.00  0.00    +0.090 C 
ATOM     26  C   LIG    1        1.248   1.716  -0.001  0.00  0.00    +0.210 C 
ATOM     27  C   LIG    1        1.608   2.092  -1.439  0.00  0.00    +0.040 C 
ENDBRANCH  23  26
ENDBRANCH   1  23
BRANCH   5  28
ATOM     28  N   LIG    1       -2.412   4.998   0.041  0.00  0.00    -0.650 NA
ATOM     29  H   LIG    1       -3.259   5.471   0.047  0.00  0.00    +0.450 HD
BRANCH  28  30
ATOM     30  C   LIG    1       -1.154   5.747   0.039  0.00  0.00    +0.290 C 
BRANCH  30  31
ATOM     31  C   LIG    1       -1.454   7.248   0.048  0.00  0.00    +0.220 C 
BRANCH  31  32
ATOM     32  O   LIG    1       -2.099   7.596   1.274  0.00  0.00    -0.570 OA
ATOM     33  H   LIG    1       -2.320   8.535   1.349  0.00  0.00    +0.400 HD
ENDBRANCH  31  32
ENDBRANCH  30  31
ENDBRANCH  28  30
ENDBRANCH   5  28
TORSDOF 9
