REMARK  Name = ZINCtj00001n1k62.2
REMARK                            x       y       z     vdW  Elec       q    Type
REMARK                         _______ _______ _______ _____ _____    ______ ____
ROOT
ATOM      1  C   LIG    1        0.407  -1.729  -1.711  0.00  0.00    +0.690 C 
ATOM      2  N   LIG    1       -0.485  -2.507  -1.106  0.00  0.00    -0.620 NA
ATOM      3  C   LIG    1       -0.755  -3.713  -1.595  0.00  0.00    +0.640 C 
ATOM      4  N   LIG    1       -0.134  -4.141  -2.689  0.00  0.00    -0.600 NA
ATOM      5  C   LIG    1        0.758  -3.364  -3.294  0.00  0.00    +0.670 C 
ATOM      6  H   LIG    1       -0.939  -2.194  -0.307  0.00  0.00    +0.440 HD
ATOM      7  N   LIG    1        1.026  -2.155  -2.808  0.00  0.00    -0.610 NA
ENDROOT
BRANCH   3   8
ATOM      8  N   LIG    1       -1.682  -4.520  -0.967  0.00  0.00    -0.460 NA
ATOM      9  C   LIG    1       -1.325  -4.734   0.443  0.00  0.00    +0.240 C 
ATOM     10  C   LIG    1       -2.416  -5.565   1.122  0.00  0.00    +0.230 C 
ATOM     11  N   LIG    1       -2.560  -6.847   0.419  0.00  0.00    -0.490 N 
ATOM     12  C   LIG    1       -2.917  -6.634  -0.991  0.00  0.00    +0.230 C 
ATOM     13  C   LIG    1       -1.826  -5.802  -1.670  0.00  0.00    +0.280 C 
BRANCH  11  14
ATOM     14  C   LIG    1       -3.497  -7.665   1.054  0.00  0.00    +0.150 A 
ATOM     15  C   LIG    1       -4.590  -8.150   0.348  0.00  0.00    -0.020 A 
ATOM     16  C   LIG    1       -5.513  -8.962   0.978  0.00  0.00    +0.140 A 
ATOM     17  C   LIG    1       -5.355  -9.283   2.314  0.00  0.00    -0.060 A 
ATOM     18  C   LIG    1       -4.271  -8.797   3.022  0.00  0.00    +0.130 A 
ATOM     19  C   LIG    1       -3.342  -7.989   2.396  0.00  0.00    +0.010 A 
BRANCH  17  20
ATOM     20  N   LIG    1       -6.349 -10.148   2.988  0.00  0.00    +0.030 N 
ATOM     21  O   LIG    1       -7.304 -10.577   2.366  0.00  0.00    -0.160 OA
ATOM     22  O   LIG    1       -6.212 -10.431   4.164  0.00  0.00    -0.160 OA
ENDBRANCH  17  20
ENDBRANCH  11  14
ENDBRANCH   3   8
BRANCH   1  23
ATOM     23  N   LIG    1        0.688  -0.476  -1.203  0.00  0.00    -0.650 NA
ATOM     24  H   LIG    1        1.339   0.091  -1.645  0.00  0.00    +0.440 HD
BRANCH  23  26
ATOM     25  C   LIG    1       -0.019   1.526   0.010  0.00  0.00    +0.090 C 
ATOM     26  C   LIG    1        0.002  -0.004   0.002  0.00  0.00    +0.210 C 
ATOM     27  C   LIG    1        0.742  -0.511   1.242  0.00  0.00    +0.040 C 
ENDBRANCH  23  26
ENDBRANCH   1  23
BRANCH   5  28
ATOM     28  N   LIG    1        1.403  -3.808  -4.430  0.00  0.00    -0.620 NA
ATOM     29  H   LIG    1        1.206  -4.688  -4.787  0.00  0.00    +0.440 HD
BRANCH  28  30
ATOM     30  C   LIG    1        2.387  -2.951  -5.097  0.00  0.00    +0.320 C 
BRANCH  30  31
ATOM     31  C   LIG    1        2.949  -3.676  -6.321  0.00  0.00    +0.200 C 
BRANCH  31  32
ATOM     32  O   LIG    1        1.906  -3.872  -7.279  0.00  0.00    -0.580 OA
ATOM     33  H   LIG    1        2.191  -4.327  -8.083  0.00  0.00    +0.400 HD
ENDBRANCH  31  32
ENDBRANCH  30  31
ENDBRANCH  28  30
ENDBRANCH   5  28
TORSDOF 9
