REMARK  Name = ZINCvU0000000E6i.0
REMARK                            x       y       z     vdW  Elec       q    Type
REMARK                         _______ _______ _______ _____ _____    ______ ____
ROOT
ATOM      1  O   LIG    1        2.719   0.769  -1.834  0.00  0.00    -0.530 OA
ATOM      2  C   LIG    1        3.534  -0.125  -1.970  0.00  0.00    +0.560 C 
ATOM      3  N   LIG    1        3.574  -1.141  -1.085  0.00  0.00    -0.610 N 
ATOM      4  C   LIG    1        4.625  -2.165  -1.168  0.00  0.00    +0.270 C 
ATOM      5  C   LIG    1        5.321  -2.268   0.192  0.00  0.00    +0.010 C 
ATOM      6  C   LIG    1        4.274  -2.528   1.278  0.00  0.00    +0.020 C 
ATOM      7  C   LIG    1        3.287  -1.360   1.328  0.00  0.00    +0.040 C 
ATOM      8  C   LIG    1        2.568  -1.246  -0.020  0.00  0.00    +0.310 C 
ENDROOT
BRANCH   8   9
ATOM      9  C   LIG    1        1.696  -0.017  -0.025  0.00  0.00    +0.130 A 
ATOM     10  N   LIG    1        2.102   1.155   0.289  0.00  0.00    -0.440 NA
ATOM     11  C   LIG    1        1.212   2.164   0.239  0.00  0.00    +0.110 A 
ATOM     12  C   LIG    1        1.384   3.532   0.528  0.00  0.00    +0.060 A 
ATOM     13  C   LIG    1        0.340   4.399   0.413  0.00  0.00    +0.020 A 
ATOM     14  C   LIG    1       -0.911   3.954   0.010  0.00  0.00    +0.020 A 
ATOM     15  C   LIG    1       -1.110   2.622  -0.275  0.00  0.00    +0.060 A 
ATOM     16  C   LIG    1       -0.053   1.722  -0.168  0.00  0.00    -0.180 A 
ATOM     17  S   LIG    1        0.044  -0.013  -0.453  0.00  0.00    +0.080 S 
ENDBRANCH   8   9
BRANCH   2  18
ATOM     18  C   LIG    1        4.441  -0.098  -3.060  0.00  0.00    -0.120 C 
ATOM     19  C   LIG    1        4.486   0.979  -3.874  0.00  0.00    +0.180 C 
BRANCH  19  20
ATOM     20  C   LIG    1        5.425   1.007  -5.004  0.00  0.00    -0.240 A 
ATOM     21  C   LIG    1        5.579   2.033  -5.919  0.00  0.00    +0.270 A 
ATOM     22  N   LIG    1        6.540   1.660  -6.782  0.00  0.00    -0.360 N 
ATOM     23  N   LIG    1        6.994   0.387  -6.418  0.00  0.00    -0.290 NA
ATOM     24  C   LIG    1        6.339  -0.011  -5.363  0.00  0.00    +0.260 A 
BRANCH  22  25
ATOM     25  C   LIG    1        7.026   2.450  -7.915  0.00  0.00    +0.380 C 
BRANCH  25  26
ATOM     26  C   LIG    1        8.521   2.609  -7.812  0.00  0.00    -0.120 A 
ATOM     27  C   LIG    1        9.057   3.688  -7.134  0.00  0.00    +0.020 A 
ATOM     28  C   LIG    1       10.429   3.830  -7.036  0.00  0.00    +0.000 A 
ATOM     29  C   LIG    1       11.264   2.900  -7.624  0.00  0.00    +0.010 A 
ATOM     30  C   LIG    1       10.729   1.823  -8.306  0.00  0.00    +0.010 A 
ATOM     31  C   LIG    1        9.357   1.678  -8.400  0.00  0.00    +0.040 A 
ENDBRANCH  25  26
ENDBRANCH  22  25
ENDBRANCH  19  20
ENDBRANCH   2  18
TORSDOF 5
