REMARK  Name = ZINCqH0000001AR8.0
REMARK                            x       y       z     vdW  Elec       q    Type
REMARK                         _______ _______ _______ _____ _____    ______ ____
ROOT
ATOM      1  N   LIG    1        4.781  -0.023   0.682  0.00  0.00    -0.740 N 
ATOM      2  H   LIG    1        4.595   0.891   0.947  0.00  0.00    +0.400 HD
ATOM      3  C   LIG    1        5.805  -0.693   1.245  0.00  0.00    +0.710 C 
ATOM      4  N   LIG    1        6.573  -0.093   2.176  0.00  0.00    -0.690 N 
ATOM      5  H   LIG    1        6.437   0.844   2.386  0.00  0.00    +0.410 HD
ATOM      6  O   LIG    1        6.038  -1.839   0.912  0.00  0.00    -0.560 OA
ENDROOT
BRANCH   4   7
ATOM      7  C   LIG    1        7.565  -0.822   2.841  0.00  0.00    +0.200 A 
ATOM      8  C   LIG    1        7.373  -2.171   3.112  0.00  0.00    +0.000 A 
ATOM      9  C   LIG    1        8.355  -2.893   3.764  0.00  0.00    +0.060 A 
ATOM     10  C   LIG    1        9.526  -2.273   4.156  0.00  0.00    -0.050 A 
ATOM     11  C   LIG    1        9.722  -0.923   3.893  0.00  0.00    +0.210 A 
ATOM     12  C   LIG    1        8.740  -0.197   3.234  0.00  0.00    -0.030 A 
BRANCH  11  13
ATOM     13  N   LIG    1       10.907  -0.297   4.292  0.00  0.00    -0.570 N 
ATOM     14  C   LIG    1       12.068  -0.972   4.893  0.00  0.00    +0.270 C 
ATOM     15  C   LIG    1       13.077   0.169   5.129  0.00  0.00    +0.270 C 
ATOM     16  N   LIG    1       12.374   1.367   4.645  0.00  0.00    -0.740 N 
ATOM     17  H   LIG    1       12.731   2.269   4.652  0.00  0.00    +0.430 HD
ATOM     18  C   LIG    1       11.164   1.014   4.193  0.00  0.00    +0.700 C 
ATOM     19  O   LIG    1       10.370   1.812   3.733  0.00  0.00    -0.570 OA
ENDBRANCH  11  13
ENDBRANCH   4   7
BRANCH   1  20
ATOM     20  C   LIG    1        3.946  -0.675  -0.331  0.00  0.00    +0.310 C 
BRANCH  20  21
ATOM     21  C   LIG    1        2.586  -0.028  -0.354  0.00  0.00    -0.090 A 
ATOM     22  C   LIG    1        1.453  -0.805  -0.504  0.00  0.00    +0.020 A 
ATOM     23  C   LIG    1        0.205  -0.212  -0.524  0.00  0.00    +0.000 A 
ATOM     24  C   LIG    1        0.089   1.160  -0.394  0.00  0.00    +0.000 A 
ATOM     25  C   LIG    1        1.222   1.937  -0.243  0.00  0.00    +0.000 A 
ATOM     26  C   LIG    1        2.471   1.344  -0.225  0.00  0.00    +0.000 A 
ENDBRANCH  20  21
BRANCH  20  28
ATOM     27  C   LIG    1        5.986  -1.187  -1.681  0.00  0.00    +0.030 C 
ATOM     28  C   LIG    1        4.604  -0.529  -1.704  0.00  0.00    -0.030 C 
ATOM     29  C   LIG    1        3.733  -1.211  -2.762  0.00  0.00    +0.030 C 
ENDBRANCH  20  28
ENDBRANCH   1  20
TORSDOF 5
