REMARK  Name = ZINCnE000008J8c1.0
REMARK                            x       y       z     vdW  Elec       q    Type
REMARK                         _______ _______ _______ _____ _____    ______ ____
ROOT
ATOM      1  C   LIG    1       -4.064   1.851   0.031  0.00  0.00    +0.270 A 
ATOM      2  N   LIG    1       -3.851   3.152   0.037  0.00  0.00    -0.420 NA
ATOM      3  N   LIG    1       -4.801   4.015   0.046  0.00  0.00    -0.160 NA
ATOM      4  C   LIG    1       -6.069   3.638   0.050  0.00  0.00    -0.080 A 
ATOM      5  C   LIG    1       -6.374   2.203   0.043  0.00  0.00    +0.490 A 
ATOM      6  O   LIG    1       -7.525   1.802   0.046  0.00  0.00    -0.570 OA
ATOM      7  N   LIG    1       -5.330   1.341   0.029  0.00  0.00    -0.610 NA
ENDROOT
BRANCH   4   8
ATOM      8  C   LIG    1       -7.156   4.643   0.060  0.00  0.00    +0.020 A 
ATOM      9  C   LIG    1       -6.924   5.971   0.067  0.00  0.00    -0.140 A 
ATOM     10  S   LIG    1       -8.455   6.836   0.078  0.00  0.00    +0.150 S 
ATOM     11  C   LIG    1       -9.351   5.323   0.074  0.00  0.00    -0.150 A 
ATOM     12 CL   LIG    1      -11.082   5.192   0.081  0.00  0.00    -0.020 Cl
ATOM     13 CL   LIG    1       -5.355   6.713   0.063  0.00  0.00    +0.010 Cl
ATOM     14  C   LIG    1       -8.508   4.294   0.059  0.00  0.00    +0.100 A 
ENDBRANCH   4   8
BRANCH   1  15
ATOM     15  S   LIG    1       -2.689   0.750   0.019  0.00  0.00    +0.050 S 
BRANCH  15  16
ATOM     16  C   LIG    1       -1.330   1.944   0.019  0.00  0.00    +0.090 C 
BRANCH  16  19
ATOM     17  N   LIG    1        1.143   1.898   0.001  0.00  0.00    -0.730 N 
ATOM     18  H   LIG    1        1.130   2.868   0.007  0.00  0.00    +0.400 HD
ATOM     19  C   LIG    1       -0.014   1.209   0.009  0.00  0.00    +0.530 C 
ATOM     20  O   LIG    1        0.002  -0.004   0.002  0.00  0.00    -0.520 OA
BRANCH  17  21
ATOM     21  C   LIG    1        2.422   1.183  -0.015  0.00  0.00    +0.260 C 
BRANCH  21  23
ATOM     22  C   LIG    1        4.904   1.450   0.089  0.00  0.00    +0.040 C 
ATOM     23  C   LIG    1        3.571   2.193  -0.020  0.00  0.00    -0.030 C 
ATOM     24  C   LIG    1        3.539   2.995  -1.323  0.00  0.00    +0.030 C 
ENDBRANCH  21  23
ENDBRANCH  17  21
ENDBRANCH  16  19
ENDBRANCH  15  16
ENDBRANCH   1  15
TORSDOF 6
