REMARK  Name = ZINCzw0000000btw.0
REMARK                            x       y       z     vdW  Elec       q    Type
REMARK                         _______ _______ _______ _____ _____    ______ ____
ROOT
ATOM      1  C   LIG    1        2.540   8.383   2.701  0.00  0.00    +0.180 C 
ATOM      2  C   LIG    1        2.251   9.560   1.767  0.00  0.00    +0.120 C 
ENDROOT
BRANCH   1   3
ATOM      3  C   LIG    1        2.053   8.711   4.089  0.00  0.00    +0.510 C 
ATOM      4  N   LIG    1        2.554   9.777   4.744  0.00  0.00    -0.650 N 
ATOM      5  H   LIG    1        3.275  10.293   4.351  0.00  0.00    +0.420 HD
ATOM      6  O   LIG    1        1.211   8.016   4.616  0.00  0.00    -0.500 OA
BRANCH   4   7
ATOM      7  C   LIG    1        2.034  10.139   5.992  0.00  0.00    +0.180 A 
ATOM      8  C   LIG    1        1.951  11.478   6.349  0.00  0.00    -0.010 A 
ATOM      9  C   LIG    1        1.431  11.832   7.579  0.00  0.00    +0.150 A 
ATOM     10  C   LIG    1        1.005  10.854   8.459  0.00  0.00    -0.680 A 
ATOM     11  C   LIG    1        1.091   9.519   8.108  0.00  0.00    +0.150 A 
ATOM     12  C   LIG    1        1.604   9.159   6.877  0.00  0.00    +0.010 A 
BRANCH  10  13
ATOM     13  S   LIG    1        0.350  11.309  10.030  0.00  0.00    +2.690 S 
ATOM     14  O   LIG    1       -0.477  10.232  10.447  0.00  0.00    -0.940 OA
ATOM     15  O   LIG    1       -0.121  12.643   9.896  0.00  0.00    -0.940 OA
BRANCH  13  16
ATOM     16  N   LIG    1        1.618  11.365  11.092  0.00  0.00    -1.000 NA
ATOM     17  C   LIG    1        2.015  10.175  11.861  0.00  0.00    +0.270 C 
ATOM     18  C   LIG    1        3.530   9.976  11.688  0.00  0.00    +0.210 C 
ATOM     19  O   LIG    1        4.203  11.194  12.012  0.00  0.00    -0.370 OA
ATOM     20  C   LIG    1        3.871  12.292  11.158  0.00  0.00    +0.210 C 
ATOM     21  C   LIG    1        2.378  12.608  11.300  0.00  0.00    +0.270 C 
ENDBRANCH  13  16
ENDBRANCH  10  13
ENDBRANCH   4   7
ENDBRANCH   1   3
BRANCH   1  22
ATOM     22  N   LIG    1        1.846   7.186   2.208  0.00  0.00    -0.500 N 
ATOM     23  H   LIG    1        1.969   6.431   2.866  0.00  0.00    +0.430 HD
ATOM     24  H   LIG    1        0.862   7.386   2.106  0.00  0.00    +0.430 HD
BRANCH  22  25
ATOM     25  C   LIG    1        2.405   6.796   0.907  0.00  0.00    +0.370 C 
BRANCH  25  32
ATOM     26  C   LIG    1       -0.198   6.764  -0.901  0.00  0.00    +0.170 C 
ATOM     27  C   LIG    1        0.543   5.553  -0.397  0.00  0.00    +0.110 A 
ATOM     28  N   LIG    1        0.223   4.306  -0.630  0.00  0.00    -0.270 NA
ATOM     29  N   LIG    1        1.159   3.485   0.013  0.00  0.00    -0.300 N 
ATOM     30  C   LIG    1        2.049   4.285   0.644  0.00  0.00    +0.140 A 
ATOM     31  C   LIG    1        3.227   3.830   1.466  0.00  0.00    +0.150 C 
ATOM     32  C   LIG    1        1.692   5.568   0.402  0.00  0.00    -0.320 A 
BRANCH  29  33
ATOM     33  C   LIG    1        1.169   2.083   0.009  0.00  0.00    +0.120 A 
ATOM     34  C   LIG    1       -0.028   1.380   0.011  0.00  0.00    +0.040 A 
ATOM     35  C   LIG    1       -0.015  -0.001   0.006  0.00  0.00    +0.040 A 
ATOM     36  C   LIG    1        1.188  -0.683  -0.002  0.00  0.00    +0.040 A 
ATOM     37  C   LIG    1        2.381   0.015  -0.004  0.00  0.00    +0.040 A 
ATOM     38  C   LIG    1        2.375   1.396   0.002  0.00  0.00    +0.010 A 
ENDBRANCH  29  33
ENDBRANCH  25  32
ENDBRANCH  22  25
ENDBRANCH   1  22
TORSDOF 8
