REMARK  Name = ZINCrH000004qXst.1
REMARK                            x       y       z     vdW  Elec       q    Type
REMARK                         _______ _______ _______ _____ _____    ______ ____
ROOT
ATOM      1  C   LIG    1        5.840  -3.620  -0.063  0.00  0.00    +0.020 A 
ATOM      2  C   LIG    1        5.071  -4.779   0.030  0.00  0.00    +0.050 A 
ATOM      3  C   LIG    1        5.680  -6.017  -0.015  0.00  0.00    +0.040 A 
ATOM      4  C   LIG    1        7.054  -6.118  -0.154  0.00  0.00    +0.040 A 
ATOM      5  C   LIG    1        7.834  -4.983  -0.248  0.00  0.00    +0.050 A 
ATOM      6  C   LIG    1        7.238  -3.723  -0.209  0.00  0.00    -0.080 A 
ENDROOT
BRANCH   6   7
ATOM      7  C   LIG    1        8.066  -2.506  -0.316  0.00  0.00    +0.570 C 
ATOM      8  N   LIG    1        9.082  -2.304   0.547  0.00  0.00    -0.610 N 
ATOM      9  C   LIG    1        9.434  -3.321   1.550  0.00  0.00    +0.280 C 
ATOM     10  C   LIG    1        9.504  -2.655   2.922  0.00  0.00    +0.160 C 
ATOM     11  N   LIG    1       10.413  -1.502   2.860  0.00  0.00    -0.680 NA
ATOM     12  H   LIG    1       10.568  -1.114   3.778  0.00  0.00    +0.350 HD
ATOM     13  C   LIG    1        9.913  -0.479   1.933  0.00  0.00    +0.110 C 
ATOM     14  C   LIG    1       10.847   0.733   1.956  0.00  0.00    +0.050 C 
ATOM     15  C   LIG    1        9.864  -1.059   0.515  0.00  0.00    +0.300 C 
ATOM     16  O   LIG    1        7.833  -1.686  -1.182  0.00  0.00    -0.500 OA
ENDBRANCH   6   7
BRANCH   1  20
ATOM     17  C   LIG    1        3.682  -0.733   0.053  0.00  0.00    +0.000 A 
ATOM     18  C   LIG    1        4.916  -0.158   0.054  0.00  0.00    +0.180 A 
ATOM     19  N   LIG    1        5.821  -1.139   0.012  0.00  0.00    -0.430 NA
ATOM     20  C   LIG    1        5.195  -2.294  -0.014  0.00  0.00    +0.210 A 
ATOM     21  O   LIG    1        3.869  -2.070   0.017  0.00  0.00    -0.190 OA
BRANCH  17  26
ATOM     22  C   LIG    1       -1.373   2.012   0.200  0.00  0.00    +0.090 C 
ATOM     23  C   LIG    1       -0.049   1.293   0.166  0.00  0.00    -0.070 A 
ATOM     24  C   LIG    1        1.129   2.019   0.172  0.00  0.00    +0.010 A 
ATOM     25  C   LIG    1        2.345   1.367   0.135  0.00  0.00    +0.040 A 
ATOM     26  C   LIG    1        2.384  -0.028   0.092  0.00  0.00    -0.020 A 
ATOM     27  C   LIG    1        1.191  -0.754   0.087  0.00  0.00    +0.040 A 
ATOM     28  C   LIG    1       -0.017  -0.090   0.124  0.00  0.00    +0.010 A 
ENDBRANCH  17  26
ENDBRANCH   1  20
TORSDOF 3
