REMARK  Name = ZINCrD000000CPpT.0
REMARK                            x       y       z     vdW  Elec       q    Type
REMARK                         _______ _______ _______ _____ _____    ______ ____
ROOT
ATOM      1  C   LIG    1        1.240  -2.163  -0.021  0.00  0.00    +0.570 C 
ATOM      2  N   LIG    1        0.083  -2.848  -0.116  0.00  0.00    -0.610 N 
ATOM      3  C   LIG    1       -1.206  -2.145  -0.211  0.00  0.00    +0.310 C 
ATOM      4  C   LIG    1       -1.841  -2.449  -1.573  0.00  0.00    +0.100 C 
ATOM      5  C   LIG    1       -1.738  -3.931  -1.845  0.00  0.00    +0.090 A 
ATOM      6  C   LIG    1       -0.885  -4.760  -1.205  0.00  0.00    -0.190 A 
ATOM      7  C   LIG    1       -1.088  -6.086  -1.749  0.00  0.00    -0.080 A 
ATOM      8  C   LIG    1       -0.496  -7.324  -1.478  0.00  0.00    +0.080 A 
ATOM      9  C   LIG    1       -0.951  -8.406  -2.211  0.00  0.00    -0.060 A 
ATOM     10  C   LIG    1       -1.944  -8.277  -3.169  0.00  0.00    +0.040 A 
ATOM     11  C   LIG    1       -2.542  -7.062  -3.453  0.00  0.00    +0.030 A 
ATOM     12 CL   LIG    1       -0.258  -9.972  -1.921  0.00  0.00    -0.080 Cl
ATOM     13  C   LIG    1       -2.104  -5.955  -2.730  0.00  0.00    +0.100 A 
ATOM     14  N   LIG    1       -2.473  -4.641  -2.759  0.00  0.00    -0.580 N 
ATOM     15  H   LIG    1       -3.154  -4.265  -3.340  0.00  0.00    +0.420 HD
ATOM     16  C   LIG    1        0.074  -4.321  -0.132  0.00  0.00    +0.360 C 
ATOM     17  O   LIG    1        1.224  -0.950   0.052  0.00  0.00    -0.530 OA
ENDROOT
BRANCH   1  24
ATOM     18  O   LIG    1        8.320  -4.891  -0.498  0.00  0.00    -0.500 OA
ATOM     19  C   LIG    1        7.256  -4.311  -0.467  0.00  0.00    +0.490 C 
ATOM     20  C   LIG    1        7.150  -2.897  -0.979  0.00  0.00    +0.300 C 
ATOM     21  O   LIG    1        5.844  -2.679  -1.519  0.00  0.00    -0.300 OA
ATOM     22  C   LIG    1        4.794  -3.110  -0.769  0.00  0.00    +0.070 A 
ATOM     23  C   LIG    1        3.594  -2.430  -0.786  0.00  0.00    +0.100 A 
ATOM     24  C   LIG    1        2.526  -2.886  -0.007  0.00  0.00    -0.120 A 
ATOM     25  C   LIG    1        2.678  -4.027   0.785  0.00  0.00    +0.060 A 
ATOM     26  C   LIG    1        3.880  -4.703   0.798  0.00  0.00    +0.010 A 
ATOM     27  C   LIG    1        4.940  -4.251   0.025  0.00  0.00    +0.120 A 
ATOM     28  N   LIG    1        6.162  -4.928   0.029  0.00  0.00    -0.660 N 
ATOM     29  H   LIG    1        6.224  -5.829   0.383  0.00  0.00    +0.420 HD
ENDBRANCH   1  24
TORSDOF 1
