REMARK  Name = ZINCr2000014dZM6.0
REMARK                            x       y       z     vdW  Elec       q    Type
REMARK                         _______ _______ _______ _____ _____    ______ ____
ROOT
ATOM      1  S   LIG    1       -0.617   5.534   0.423  0.00  0.00    +2.420 S 
ATOM      2  O   LIG    1        0.794   5.679   0.338  0.00  0.00    -0.930 OA
ATOM      3  O   LIG    1       -1.299   6.041   1.561  0.00  0.00    -0.930 OA
ENDROOT
BRANCH   1   4
ATOM      4  C   LIG    1       -1.028   3.776   0.238  0.00  0.00    -0.330 C 
BRANCH   4   5
ATOM      5  C   LIG    1       -0.468   2.994   1.427  0.00  0.00    +0.220 C 
BRANCH   5   9
ATOM      6  O   LIG    1        1.860   0.195   3.048  0.00  0.00    -0.550 OA
ATOM      7  C   LIG    1        1.143   0.558   2.139  0.00  0.00    +0.480 C 
ATOM      8  C   LIG    1       -0.314   0.791   2.420  0.00  0.00    +0.280 C 
ATOM      9  N   LIG    1       -0.909   1.595   1.345  0.00  0.00    -0.520 NA
ATOM     10  C   LIG    1       -0.580   1.016   0.034  0.00  0.00    +0.220 C 
ATOM     11  C   LIG    1        0.916   1.202  -0.222  0.00  0.00    +0.240 C 
ATOM     12  N   LIG    1        1.683   0.734   0.928  0.00  0.00    -0.600 N 
BRANCH  12  13
ATOM     13  C   LIG    1        3.108   0.443   0.749  0.00  0.00    +0.300 C 
BRANCH  13  14
ATOM     14  C   LIG    1        3.283  -1.022   0.344  0.00  0.00    +0.170 C 
BRANCH  14  15
ATOM     15  O   LIG    1        2.688  -1.237  -0.937  0.00  0.00    -0.570 OA
ATOM     16  H   LIG    1        2.762  -2.146  -1.257  0.00  0.00    +0.380 HD
ENDBRANCH  14  15
ENDBRANCH  13  14
ENDBRANCH  12  13
ENDBRANCH   5   9
ENDBRANCH   4   5
ENDBRANCH   1   4
BRANCH   1  17
ATOM     17  C   LIG    1       -1.363   6.252  -1.066  0.00  0.00    -0.320 C 
BRANCH  17  18
ATOM     18  C   LIG    1       -1.113   7.761  -1.085  0.00  0.00    +0.220 C 
BRANCH  18  19
ATOM     19  N   LIG    1       -1.718   8.343  -2.291  0.00  0.00    -0.520 NA
ATOM     20  C   LIG    1       -1.320   9.750  -2.454  0.00  0.00    +0.180 C 
ATOM     21  C   LIG    1       -1.711  10.211  -3.859  0.00  0.00    +0.290 C 
ATOM     22  N   LIG    1       -3.107   9.875  -4.126  0.00  0.00    -0.590 N 
ATOM     23  C   LIG    1       -3.784   8.967  -3.416  0.00  0.00    +0.520 C 
ATOM     24  O   LIG    1       -4.932   8.726  -3.724  0.00  0.00    -0.550 OA
ATOM     25  C   LIG    1       -3.182   8.231  -2.252  0.00  0.00    +0.230 C 
BRANCH  22  26
ATOM     26  C   LIG    1       -3.796  10.565  -5.219  0.00  0.00    +0.300 C 
BRANCH  26  27
ATOM     27  C   LIG    1       -4.459  11.835  -4.684  0.00  0.00    +0.170 C 
BRANCH  27  28
ATOM     28  O   LIG    1       -3.452  12.746  -4.238  0.00  0.00    -0.570 OA
ATOM     29  H   LIG    1       -3.801  13.576  -3.885  0.00  0.00    +0.380 HD
ENDBRANCH  27  28
ENDBRANCH  26  27
ENDBRANCH  22  26
ENDBRANCH  18  19
ENDBRANCH  17  18
ENDBRANCH   1  17
TORSDOF 12
