REMARK  Name = ZINCpe000000UnWg.0
REMARK                            x       y       z     vdW  Elec       q    Type
REMARK                         _______ _______ _______ _____ _____    ______ ____
ROOT
ATOM      1  N   LIG    1       -0.681   1.555   1.248  0.00  0.00    -0.510 NA
ATOM      2  C   LIG    1       -0.317   2.918   1.547  0.00  0.00    +0.190 C 
ATOM      3  C   LIG    1       -1.327   3.938   0.981  0.00  0.00    +0.020 C 
ATOM      4  C   LIG    1       -1.798   3.550  -0.436  0.00  0.00    +0.170 C 
ATOM      5  N   LIG    1       -0.723   3.057  -1.262  0.00  0.00    -0.520 NA
ATOM      6  C   LIG    1       -0.671   1.579  -1.191  0.00  0.00    +0.190 C 
ATOM      7  C   LIG    1        0.006   1.108   0.015  0.00  0.00    +0.190 C 
ENDROOT
BRANCH   1   8
ATOM      8  C   LIG    1       -0.367   0.668   2.376  0.00  0.00    +0.250 C 
BRANCH   8  11
ATOM      9  C   LIG    1        3.075   0.026   3.924  0.00  0.00    +0.280 C 
ATOM     10  N   LIG    1        1.643  -0.054   3.624  0.00  0.00    -0.620 N 
ATOM     11  C   LIG    1        1.105   0.750   2.685  0.00  0.00    +0.480 C 
ATOM     12  O   LIG    1        1.807   1.539   2.089  0.00  0.00    -0.530 OA
ATOM     13  C   LIG    1        0.796  -1.007   4.345  0.00  0.00    +0.280 C 
ENDBRANCH   8  11
ENDBRANCH   1   8
BRANCH   5  14
ATOM     14  C   LIG    1       -0.873   3.514  -2.650  0.00  0.00    +0.290 C 
BRANCH  14  15
ATOM     15  C   LIG    1       -1.168   4.991  -2.664  0.00  0.00    +0.020 A 
ATOM     16  N   LIG    1       -2.344   5.566  -2.541  0.00  0.00    -0.280 NA
ATOM     17  N   LIG    1       -2.188   6.841  -2.600  0.00  0.00    -0.100 N 
ATOM     18  N   LIG    1       -0.949   7.142  -2.766  0.00  0.00    -0.290 NA
ATOM     19  C   LIG    1       -0.248   6.032  -2.815  0.00  0.00    +0.200 A 
BRANCH  17  20
ATOM     20  C   LIG    1       -3.229   7.775  -2.502  0.00  0.00    +0.140 A 
ATOM     21  C   LIG    1       -4.537   7.344  -2.329  0.00  0.00    +0.040 A 
ATOM     22  C   LIG    1       -5.560   8.267  -2.228  0.00  0.00    +0.040 A 
ATOM     23  C   LIG    1       -5.283   9.619  -2.310  0.00  0.00    +0.020 A 
ATOM     24  C   LIG    1       -3.982  10.052  -2.488  0.00  0.00    +0.040 A 
ATOM     25  C   LIG    1       -2.954   9.134  -2.584  0.00  0.00    +0.040 A 
ENDBRANCH  17  20
ENDBRANCH  14  15
ENDBRANCH   5  14
TORSDOF 5
