REMARK  Name = ZINCvU00000009AA.0
REMARK                            x       y       z     vdW  Elec       q    Type
REMARK                         _______ _______ _______ _____ _____    ______ ____
ROOT
ATOM      1  O   LIG    1        6.174  -0.713  -0.062  0.00  0.00    -0.330 OA
ENDROOT
BRANCH   1   2
ATOM      2  C   LIG    1        4.952  -0.148  -0.117  0.00  0.00    +0.510 C 
ATOM      3  O   LIG    1        3.964  -0.846  -0.232  0.00  0.00    -0.480 OA
BRANCH   2   4
ATOM      4  C   LIG    1        4.814   1.316  -0.037  0.00  0.00    -0.140 A 
ATOM      5  C   LIG    1        5.949   2.131  -0.038  0.00  0.00    +0.090 A 
ATOM      6  C   LIG    1        5.813   3.500   0.037  0.00  0.00    +0.010 A 
ATOM      7  C   LIG    1        4.554   4.075   0.115  0.00  0.00    +0.070 A 
ATOM      8  C   LIG    1        3.423   3.285   0.111  0.00  0.00    +0.010 A 
ATOM      9  C   LIG    1        3.540   1.903   0.042  0.00  0.00    +0.210 A 
BRANCH   9  10
ATOM     10  N   LIG    1        2.403   1.105   0.044  0.00  0.00    -0.700 N 
ATOM     11  H   LIG    1        1.873   1.014  -0.763  0.00  0.00    +0.410 HD
BRANCH  10  12
ATOM     12  C   LIG    1        2.023   0.433   1.208  0.00  0.00    +0.230 A 
ATOM     13  C   LIG    1        0.840  -0.295   1.238  0.00  0.00    -0.060 A 
ATOM     14  C   LIG    1        0.465  -0.954   2.392  0.00  0.00    +0.050 A 
ATOM     15  C   LIG    1        1.271  -0.898   3.515  0.00  0.00    -0.050 A 
ATOM     16  C   LIG    1        2.449  -0.174   3.489  0.00  0.00    +0.040 A 
ATOM     17  C   LIG    1        2.827   0.492   2.340  0.00  0.00    -0.080 A 
ENDBRANCH  10  12
ENDBRANCH   9  10
ENDBRANCH   2   4
ENDBRANCH   1   2
BRANCH   1  18
ATOM     18  C   LIG    1        6.235  -2.162  -0.147  0.00  0.00    +0.270 C 
BRANCH  18  20
ATOM     19  O   LIG    1        8.557  -1.789   0.045  0.00  0.00    -0.430 OA
ATOM     20  C   LIG    1        7.672  -2.610  -0.070  0.00  0.00    +0.510 C 
ATOM     21  N   LIG    1        7.973  -3.922  -0.128  0.00  0.00    -0.650 N 
ATOM     22  H   LIG    1        7.264  -4.578  -0.220  0.00  0.00    +0.420 HD
BRANCH  21  23
ATOM     23  C   LIG    1        9.302  -4.336  -0.057  0.00  0.00    +0.410 A 
ATOM     24  N   LIG    1       10.264  -3.436   0.063  0.00  0.00    -0.460 NA
ATOM     25  C   LIG    1       11.534  -3.785   0.139  0.00  0.00    +0.380 A 
ATOM     26  C   LIG    1       11.908  -5.113   0.085  0.00  0.00    -0.260 A 
ATOM     27  C   LIG    1       10.930  -6.090  -0.046  0.00  0.00    +0.190 A 
ATOM     28  C   LIG    1        9.606  -5.693  -0.118  0.00  0.00    -0.130 A 
ATOM     29 CL   LIG    1        8.341  -6.871  -0.282  0.00  0.00    -0.030 Cl
BRANCH  26  30
ATOM     30  C   LIG    1       13.363  -5.498   0.166  0.00  0.00    +0.520 C 
ATOM     31  F   LIG    1       13.478  -6.760   0.759  0.00  0.00    -0.170 F 
ATOM     32  F   LIG    1       14.052  -4.556   0.937  0.00  0.00    -0.170 F 
ATOM     33  F   LIG    1       13.908  -5.537  -1.122  0.00  0.00    -0.170 F 
ENDBRANCH  26  30
ENDBRANCH  21  23
ENDBRANCH  18  20
ENDBRANCH   1  18
TORSDOF 8
