REMARK  Name = ZINCpe000000Y8gM.0
REMARK                            x       y       z     vdW  Elec       q    Type
REMARK                         _______ _______ _______ _____ _____    ______ ____
ROOT
ATOM      1  C   LIG    1       -2.598   0.918   2.692  0.00  0.00    +0.610 C 
ATOM      2  N   LIG    1       -2.031   0.791   1.476  0.00  0.00    -0.710 N 
ATOM      3  H   LIG    1       -2.345   0.108   0.864  0.00  0.00    +0.400 HD
ATOM      4  O   LIG    1       -2.204   1.774   3.460  0.00  0.00    -0.530 OA
ENDROOT
BRANCH   1  15
ATOM      5  C   LIG    1       -2.275  -1.883   4.154  0.00  0.00    +0.160 C 
ATOM      6  C   LIG    1       -3.568  -1.229   3.742  0.00  0.00    +0.110 A 
ATOM      7  N   LIG    1       -4.767  -1.715   3.927  0.00  0.00    -0.290 NA
ATOM      8  N   LIG    1       -5.702  -0.821   3.403  0.00  0.00    -0.350 N 
ATOM      9  C   LIG    1       -5.041   0.235   2.894  0.00  0.00    +0.130 A 
ATOM     10  C   LIG    1       -5.699   1.420   2.234  0.00  0.00    +0.120 C 
ATOM     11  C   LIG    1       -7.147   1.038   1.897  0.00  0.00    +0.030 C 
ATOM     12  C   LIG    1       -7.796   0.400   3.128  0.00  0.00    +0.040 C 
ATOM     13  C   LIG    1       -7.162  -0.970   3.391  0.00  0.00    +0.260 C 
ATOM     14  C   LIG    1       -7.634  -1.503   4.745  0.00  0.00    +0.050 C 
ATOM     15  C   LIG    1       -3.697   0.020   3.091  0.00  0.00    -0.290 A 
ENDBRANCH   1  15
BRANCH   2  16
ATOM     16  C   LIG    1       -0.939   1.683   1.080  0.00  0.00    +0.230 C 
ATOM     17  C   LIG    1       -0.013   1.086   0.008  0.00  0.00    +0.040 C 
ATOM     18  C   LIG    1       -0.959   1.695  -1.040  0.00  0.00    +0.000 C 
ATOM     19  C   LIG    1       -1.349   2.730   0.028  0.00  0.00    +0.030 C 
BRANCH  18  20
ATOM     20  C   LIG    1       -0.233   2.300  -2.244  0.00  0.00    +0.230 C 
ATOM     21  N   LIG    1        0.610   3.433  -1.825  0.00  0.00    -0.720 N 
ATOM     22  H   LIG    1        1.357   3.402  -1.206  0.00  0.00    +0.440 HD
ATOM     23  C   LIG    1        0.137   4.519  -2.469  0.00  0.00    +0.700 C 
ATOM     24  N   LIG    1       -0.906   4.233  -3.256  0.00  0.00    -0.680 N 
ATOM     25  H   LIG    1       -1.376   4.887  -3.798  0.00  0.00    +0.430 HD
ATOM     26  O   LIG    1        0.607   5.633  -2.349  0.00  0.00    -0.540 OA
ATOM     27  C   LIG    1       -1.224   2.925  -3.205  0.00  0.00    +0.530 C 
ATOM     28  O   LIG    1       -2.117   2.364  -3.803  0.00  0.00    -0.460 OA
ENDBRANCH  18  20
ENDBRANCH   2  16
TORSDOF 3
