REMARK  Name = ZINCnE000001RggW.0
REMARK                            x       y       z     vdW  Elec       q    Type
REMARK                         _______ _______ _______ _____ _____    ______ ____
ROOT
ATOM      1  N   LIG    1       -3.090   1.448  -1.341  0.00  0.00    -0.660 NA
ATOM      2  H   LIG    1       -3.011   2.384  -1.710  0.00  0.00    +0.340 HD
ENDROOT
BRANCH   1   3
ATOM      3  C   LIG    1       -4.483   0.984  -1.376  0.00  0.00    +0.230 C 
ATOM      4  C   LIG    1       -4.510  -0.539  -1.522  0.00  0.00    +0.060 C 
BRANCH   3   9
ATOM      5  C   LIG    1       -7.774   3.406  -4.914  0.00  0.00    +0.160 C 
ATOM      6  C   LIG    1       -6.688   2.709  -4.136  0.00  0.00    -0.210 A 
ATOM      7  CA  LIG    1       -5.488   2.297  -4.640  0.00  0.00    +0.000 A 
ATOM      8  N   LIG    1       -4.707   1.704  -3.733  0.00  0.00    -0.390 NA
ATOM      9  C   LIG    1       -5.193   1.613  -2.547  0.00  0.00    -0.010 A 
ATOM     10  S   LIG    1       -6.756   2.297  -2.479  0.00  0.00    +0.100 S 
BRANCH   7  11
ATOM     11  C   LIG    1       -5.095   2.486  -6.042  0.00  0.00    +0.550 C 
ATOM     12  OXT LIG    1       -5.859   3.038  -6.823  0.00  0.00    -0.680 OA
ATOM     13  O   LIG    1       -4.004   2.092  -6.431  0.00  0.00    -0.660 OA
ENDBRANCH   7  11
ENDBRANCH   3   9
ENDBRANCH   1   3
BRANCH   1  14
ATOM     14  C   LIG    1       -2.543   1.371   0.020  0.00  0.00    +0.250 C 
BRANCH  14  15
ATOM     15  C   LIG    1       -1.116   1.854   0.017  0.00  0.00    -0.220 A 
ATOM     16  C   LIG    1       -0.013   1.076   0.008  0.00  0.00    +0.260 A 
ATOM     17  N   LIG    1        1.069   1.884   0.002  0.00  0.00    -0.470 N 
ATOM     18  H   LIG    1        1.995   1.595  -0.008  0.00  0.00    +0.440 HD
ATOM     19  N   LIG    1        0.623   3.212   0.013  0.00  0.00    -0.270 NA
ATOM     20  C   LIG    1       -0.695   3.200   0.025  0.00  0.00    +0.150 A 
BRANCH  20  21
ATOM     21  C   LIG    1       -1.576   4.388   0.038  0.00  0.00    -0.120 A 
ATOM     22  C   LIG    1       -1.310   5.547   0.673  0.00  0.00    +0.030 A 
ATOM     23  C   LIG    1       -2.286   6.514   0.541  0.00  0.00    +0.000 A 
ATOM     24  C   LIG    1       -3.342   6.155  -0.194  0.00  0.00    -0.040 A 
ATOM     25  S   LIG    1       -3.130   4.510  -0.777  0.00  0.00    +0.150 S 
ENDBRANCH  20  21
ENDBRANCH  14  15
ENDBRANCH   1  14
TORSDOF 6
