REMARK  Name = ZINCpk00000Feagc.1
REMARK                            x       y       z     vdW  Elec       q    Type
REMARK                         _______ _______ _______ _____ _____    ______ ____
ROOT
ATOM      1  C   LIG    1       -2.811   1.844   0.004  0.00  0.00    +0.280 C 
ATOM      2  C   LIG    1       -2.164   1.344   1.301  0.00  0.00    +0.280 C 
ATOM      3  N   LIG    1       -0.712   1.565   1.211  0.00  0.00    -0.610 N 
ATOM      4  C   LIG    1       -0.013   1.086   0.008  0.00  0.00    +0.250 C 
ATOM      5  C   LIG    1       -0.764   1.599  -1.226  0.00  0.00    +0.230 C 
ATOM      6  C   LIG    1       -0.042   2.189   2.200  0.00  0.00    +0.500 C 
ATOM      7  O   LIG    1       -0.635   2.577   3.184  0.00  0.00    -0.510 OA
ATOM      8  O   LIG    1       -2.146   1.250  -1.113  0.00  0.00    -0.360 OA
ENDROOT
BRANCH   6   9
ATOM      9  C   LIG    1        1.446   2.404   2.084  0.00  0.00    +0.220 C 
ATOM     10  C   LIG    1        2.196   1.052   2.080  0.00  0.00    +0.110 C 
ATOM     11  C   LIG    1        2.524   0.871   3.550  0.00  0.00    -0.150 A 
ATOM     12  C   LIG    1        2.932  -0.225   4.278  0.00  0.00    +0.040 A 
ATOM     13  C   LIG    1        3.158  -0.106   5.640  0.00  0.00    +0.070 A 
ATOM     14  C   LIG    1        2.971   1.117   6.262  0.00  0.00    +0.040 A 
ATOM     15  C   LIG    1        2.566   2.215   5.532  0.00  0.00    +0.040 A 
ATOM     16  F   LIG    1        3.557  -1.178   6.357  0.00  0.00    -0.140 F 
ATOM     17  C   LIG    1        2.341   2.104   4.162  0.00  0.00    +0.100 A 
ATOM     18  O   LIG    1        1.960   3.051   3.261  0.00  0.00    -0.270 OA
ENDBRANCH   6   9
BRANCH   1  21
ATOM     19  C   LIG    1       -6.418   1.628   0.108  0.00  0.00    +0.290 A 
ATOM     20  N   LIG    1       -5.291   2.286   0.193  0.00  0.00    -0.530 NA
ATOM     21  C   LIG    1       -4.268   1.458  -0.013  0.00  0.00    +0.230 A 
ATOM     22  N   LIG    1       -4.733   0.257  -0.239  0.00  0.00    -0.280 NA
ATOM     23  N   LIG    1       -6.132   0.342  -0.159  0.00  0.00    -0.480 N 
ATOM     24  H   LIG    1       -6.766  -0.382  -0.277  0.00  0.00    +0.440 HD
BRANCH  19  26
ATOM     25  C   LIG    1       -8.258   2.015   1.726  0.00  0.00    +0.050 C 
ATOM     26  C   LIG    1       -7.798   2.211   0.280  0.00  0.00    +0.150 C 
ENDBRANCH  19  26
ENDBRANCH   1  21
TORSDOF 3
