REMARK  Name = ZINCrH00000No4JQ.0
REMARK                            x       y       z     vdW  Elec       q    Type
REMARK                         _______ _______ _______ _____ _____    ______ ____
ROOT
ATOM      1  C   LIG    1       -1.747   4.002   3.387  0.00  0.00    +0.590 C 
ATOM      2  N   LIG    1       -1.016   3.200   2.588  0.00  0.00    -0.620 N 
ATOM      3  C   LIG    1       -0.206   1.953   2.712  0.00  0.00    +0.300 C 
ATOM      4  C   LIG    1       -0.799   1.589   1.381  0.00  0.00    -0.010 C 
ATOM      5  C   LIG    1       -0.019   0.953   0.244  0.00  0.00    +0.030 C 
ATOM      6  C   LIG    1       -0.733   1.367  -1.056  0.00  0.00    +0.010 C 
ATOM      7  C   LIG    1       -0.840   2.879  -1.208  0.00  0.00    +0.010 C 
ATOM      8  C   LIG    1       -1.489   3.542   0.025  0.00  0.00    +0.050 C 
ATOM      9  C   LIG    1       -0.639   3.130   1.209  0.00  0.00    +0.180 C 
ATOM     10  O   LIG    1       -2.389   4.916   2.908  0.00  0.00    -0.530 OA
ENDROOT
BRANCH   1  13
ATOM     11  C   LIG    1       -2.654   4.305   7.023  0.00  0.00    +0.090 A 
ATOM     12  C   LIG    1       -2.626   4.519   5.660  0.00  0.00    +0.040 A 
ATOM     13  C   LIG    1       -1.768   3.770   4.846  0.00  0.00    -0.110 A 
ATOM     14  C   LIG    1       -0.931   2.812   5.409  0.00  0.00    +0.090 A 
ATOM     15  C   LIG    1       -0.953   2.596   6.789  0.00  0.00    -0.190 A 
ATOM     16  C   LIG    1       -1.820   3.348   7.599  0.00  0.00    +0.160 A 
BRANCH  11  18
ATOM     17  C   LIG    1       -4.320   5.997   7.152  0.00  0.00    +0.250 C 
ATOM     18  O   LIG    1       -3.493   5.033   7.808  0.00  0.00    -0.300 OA
ENDBRANCH  11  18
BRANCH  15  19
ATOM     19  C   LIG    1       -0.072   1.586   7.391  0.00  0.00    +0.510 C 
ATOM     20  O   LIG    1        0.675   0.938   6.689  0.00  0.00    -0.450 OA
ENDBRANCH  15  19
BRANCH  16  21
ATOM     21  O   LIG    1       -1.846   3.143   8.938  0.00  0.00    -0.480 OA
ATOM     22  H   LIG    1       -1.225   3.694   9.433  0.00  0.00    +0.400 HD
ENDBRANCH  16  21
ENDBRANCH   1  13
BRANCH   9  23
ATOM     23  C   LIG    1        0.809   3.489   1.000  0.00  0.00    -0.090 A 
ATOM     24  C   LIG    1        1.496   2.984  -0.088  0.00  0.00    +0.030 A 
ATOM     25  C   LIG    1        2.824   3.317  -0.282  0.00  0.00    +0.010 A 
ATOM     26  C   LIG    1        3.467   4.146   0.618  0.00  0.00    +0.000 A 
ATOM     27  C   LIG    1        2.782   4.647   1.708  0.00  0.00    +0.000 A 
ATOM     28  C   LIG    1        1.453   4.318   1.900  0.00  0.00    +0.000 A 
ENDBRANCH   9  23
TORSDOF 5
