REMARK  Name = ZINCqH00000029S3.0
REMARK                            x       y       z     vdW  Elec       q    Type
REMARK                         _______ _______ _______ _____ _____    ______ ____
ROOT
ATOM      1  S   LIG    1       -3.377   6.814   0.222  0.00  0.00    +0.110 S 
ENDROOT
BRANCH   1   5
ATOM      2  C   LIG    1       -1.689   2.947   0.393  0.00  0.00    +0.230 A 
ATOM      3  N   LIG    1       -1.129   3.736  -0.474  0.00  0.00    -0.280 NA
ATOM      4  N   LIG    1       -1.581   4.908  -0.580  0.00  0.00    -0.250 NA
ATOM      5  C   LIG    1       -2.578   5.244   0.186  0.00  0.00    -0.080 A 
ATOM      6  S   LIG    1       -2.990   3.844   1.178  0.00  0.00    +0.240 S 
BRANCH   2   8
ATOM      7  C   LIG    1       -1.905   0.959   1.672  0.00  0.00    +0.510 C 
ATOM      8  N   LIG    1       -1.331   1.626   0.651  0.00  0.00    -0.480 N 
ATOM      9  O   LIG    1       -2.734   1.510   2.365  0.00  0.00    -0.500 OA
BRANCH   8  10
ATOM     10  C   LIG    1       -0.329   0.961  -0.187  0.00  0.00    +0.190 C 
ATOM     11  C   LIG    1        0.005   1.604  -1.534  0.00  0.00    +0.070 C 
ATOM     12  C   LIG    1        1.011   1.672  -0.384  0.00  0.00    +0.040 C 
ENDBRANCH   8  10
BRANCH   7  14
ATOM     13  C   LIG    1       -2.310  -0.988   3.153  0.00  0.00    +0.070 C 
ATOM     14  C   LIG    1       -1.517  -0.470   1.951  0.00  0.00    +0.090 C 
ENDBRANCH   7  14
ENDBRANCH   2   8
ENDBRANCH   1   5
BRANCH   1  15
ATOM     15  C   LIG    1       -2.472   7.761  -1.033  0.00  0.00    +0.100 C 
BRANCH  15  16
ATOM     16  C   LIG    1       -3.047   9.151  -1.124  0.00  0.00    +0.530 C 
ATOM     17  N   LIG    1       -2.529  10.039  -1.996  0.00  0.00    -0.660 N 
ATOM     18  H   LIG    1       -1.841   9.760  -2.621  0.00  0.00    +0.410 HD
ATOM     19  O   LIG    1       -3.976   9.472  -0.413  0.00  0.00    -0.500 OA
BRANCH  17  20
ATOM     20  C   LIG    1       -2.983  11.362  -2.000  0.00  0.00    +0.140 A 
ATOM     21  C   LIG    1       -4.283  11.653  -1.608  0.00  0.00    +0.020 A 
ATOM     22  C   LIG    1       -4.727  12.961  -1.607  0.00  0.00    +0.020 A 
ATOM     23  C   LIG    1       -3.881  13.979  -2.008  0.00  0.00    -0.010 A 
ATOM     24  C   LIG    1       -2.588  13.693  -2.405  0.00  0.00    +0.030 A 
ATOM     25  C   LIG    1       -2.137  12.387  -2.402  0.00  0.00    -0.110 A 
BRANCH  25  26
ATOM     26  C   LIG    1       -0.727  12.076  -2.834  0.00  0.00    +0.060 C 
ATOM     27  C   LIG    1       -0.721  11.689  -4.314  0.00  0.00    +0.020 C 
ENDBRANCH  25  26
ENDBRANCH  17  20
ENDBRANCH  15  16
ENDBRANCH   1  15
TORSDOF 8
