REMARK  Name = ZINCqH0000008y5O.1
REMARK                            x       y       z     vdW  Elec       q    Type
REMARK                         _______ _______ _______ _____ _____    ______ ____
ROOT
ATOM      1  N   LIG    1       -0.062   0.005   0.087  0.00  0.00    -0.530 NA
ATOM      2  C   LIG    1       -0.085   1.474   0.107  0.00  0.00    +0.180 C 
ATOM      3  C   LIG    1        1.352   2.005   0.050  0.00  0.00    +0.290 C 
ATOM      4  N   LIG    1        2.125   1.379   1.134  0.00  0.00    -0.600 N 
ATOM      5  C   LIG    1        2.085  -0.086   1.261  0.00  0.00    +0.300 C 
ATOM      6  C   LIG    1        2.850   2.128   1.988  0.00  0.00    +0.590 C 
ATOM      7  O   LIG    1        3.401   1.606   2.939  0.00  0.00    -0.520 OA
ATOM      8  C   LIG    1        0.620  -0.534   1.271  0.00  0.00    +0.170 C 
ENDROOT
BRANCH   6   9
ATOM      9  C   LIG    1        2.975   3.571   1.771  0.00  0.00    -0.020 A 
ATOM     10  C   LIG    1        3.719   4.209   0.769  0.00  0.00    -0.120 A 
ATOM     11  C   LIG    1        4.528   3.810  -0.302  0.00  0.00    +0.050 A 
ATOM     12  C   LIG    1        5.102   4.755  -1.096  0.00  0.00    +0.010 A 
ATOM     13  C   LIG    1        4.899   6.117  -0.873  0.00  0.00    +0.030 A 
ATOM     14  C   LIG    1        4.122   6.568   0.145  0.00  0.00    +0.060 A 
ATOM     15  C   LIG    1        3.498   5.643   1.006  0.00  0.00    +0.060 A 
ATOM     16  N   LIG    1        2.704   5.725   2.059  0.00  0.00    -0.270 NA
ATOM     17  N   LIG    1        2.397   4.561   2.506  0.00  0.00    -0.320 N 
ATOM     18  H   LIG    1        1.824   4.406   3.273  0.00  0.00    +0.450 HD
ENDBRANCH   6   9
BRANCH   1  20
ATOM     19  C   LIG    1       -2.058  -0.042  -1.331  0.00  0.00    +0.060 C 
ATOM     20  C   LIG    1       -1.421  -0.541  -0.033  0.00  0.00    +0.180 C 
BRANCH  20  21
ATOM     21  C   LIG    1       -1.357  -2.046  -0.051  0.00  0.00    -0.070 A 
ATOM     22  C   LIG    1       -0.175  -2.684  -0.374  0.00  0.00    +0.060 A 
ATOM     23  C   LIG    1       -0.117  -4.066  -0.391  0.00  0.00    +0.010 A 
ATOM     24  C   LIG    1       -1.241  -4.809  -0.084  0.00  0.00    +0.020 A 
ATOM     25  C   LIG    1       -2.424  -4.172   0.239  0.00  0.00    +0.020 A 
ATOM     26  C   LIG    1       -2.481  -2.790   0.263  0.00  0.00    -0.030 A 
ATOM     27 CL   LIG    1       -3.965  -1.989   0.677  0.00  0.00    -0.070 Cl
ENDBRANCH  20  21
ENDBRANCH   1  20
TORSDOF 3
