REMARK  Name = ZINCqH0000008y5O.0
REMARK                            x       y       z     vdW  Elec       q    Type
REMARK                         _______ _______ _______ _____ _____    ______ ____
ROOT
ATOM      1  N   LIG    1        4.770   1.383   0.465  0.00  0.00    -0.530 NA
ATOM      2  C   LIG    1        4.467   0.831   1.792  0.00  0.00    +0.170 C 
ATOM      3  C   LIG    1        5.509  -0.235   2.148  0.00  0.00    +0.300 C 
ATOM      4  N   LIG    1        6.848   0.358   2.012  0.00  0.00    -0.600 N 
ATOM      5  C   LIG    1        7.179   1.051   0.758  0.00  0.00    +0.300 C 
ATOM      6  C   LIG    1        7.749   0.268   3.010  0.00  0.00    +0.610 C 
ATOM      7  O   LIG    1        8.877   0.695   2.853  0.00  0.00    -0.530 OA
ATOM      8  C   LIG    1        6.071   2.066   0.456  0.00  0.00    +0.180 C 
ENDROOT
BRANCH   6   9
ATOM      9  C   LIG    1        7.368  -0.349   4.294  0.00  0.00    +0.010 A 
ATOM     10  N   LIG    1        6.232  -0.952   4.572  0.00  0.00    -0.210 NA
ATOM     11  N   LIG    1        6.202  -1.386   5.780  0.00  0.00    -0.420 N 
ATOM     12  H   LIG    1        5.452  -1.858   6.174  0.00  0.00    +0.450 HD
ATOM     13  C   LIG    1        7.367  -1.096   6.441  0.00  0.00    +0.070 A 
ATOM     14  C   LIG    1        7.847  -1.328   7.726  0.00  0.00    +0.010 A 
ATOM     15  C   LIG    1        9.104  -0.888   8.074  0.00  0.00    +0.050 A 
ATOM     16  C   LIG    1        9.900  -0.214   7.157  0.00  0.00    -0.010 A 
ATOM     17  C   LIG    1        9.447   0.026   5.889  0.00  0.00    +0.100 A 
ATOM     18  C   LIG    1        8.183  -0.417   5.514  0.00  0.00    -0.110 A 
ENDBRANCH   6   9
BRANCH   1  20
ATOM     19  C   LIG    1        3.999   2.753  -1.413  0.00  0.00    +0.060 C 
ATOM     20  C   LIG    1        3.701   2.283   0.012  0.00  0.00    +0.180 C 
BRANCH  20  21
ATOM     21  C   LIG    1        2.384   1.549   0.034  0.00  0.00    -0.070 A 
ATOM     22  C   LIG    1        2.363   0.167   0.032  0.00  0.00    +0.060 A 
ATOM     23  C   LIG    1        1.156  -0.506   0.052  0.00  0.00    +0.010 A 
ATOM     24  C   LIG    1       -0.031   0.203   0.076  0.00  0.00    +0.020 A 
ATOM     25  C   LIG    1       -0.011   1.585   0.079  0.00  0.00    +0.020 A 
ATOM     26  C   LIG    1        1.197   2.259   0.058  0.00  0.00    -0.030 A 
ATOM     27 CL   LIG    1        1.223   3.995   0.061  0.00  0.00    -0.070 Cl
ENDBRANCH  20  21
ENDBRANCH   1  20
TORSDOF 3
