REMARK  Name = ZINCpk00000KfKt4.0
REMARK                            x       y       z     vdW  Elec       q    Type
REMARK                         _______ _______ _______ _____ _____    ______ ____
ROOT
ATOM      1  N   LIG    1        4.113   1.420  -1.069  0.00  0.00    -0.740 N 
ATOM      2  H   LIG    1        3.623   2.214  -1.335  0.00  0.00    +0.390 HD
ATOM      3  C   LIG    1        5.276   1.111  -1.677  0.00  0.00    +0.700 C 
ATOM      4  N   LIG    1        5.757   1.905  -2.654  0.00  0.00    -0.740 N 
ATOM      5  H   LIG    1        5.267   2.698  -2.920  0.00  0.00    +0.400 HD
ATOM      6  O   LIG    1        5.890   0.116  -1.344  0.00  0.00    -0.590 OA
ENDROOT
BRANCH   1   7
ATOM      7  C   LIG    1        3.590   0.557  -0.007  0.00  0.00    +0.350 C 
BRANCH   7   8
ATOM      8  C   LIG    1        2.084   0.626  -0.001  0.00  0.00    -0.250 A 
ATOM      9  C   LIG    1        1.239  -0.431  -0.001  0.00  0.00    +0.100 A 
ATOM     10  N   LIG    1       -0.022   0.051   0.006  0.00  0.00    -0.370 N 
ATOM     11  N   LIG    1        0.051   1.450   0.011  0.00  0.00    -0.290 NA
ATOM     12  C   LIG    1       -1.249  -0.748   0.009  0.00  0.00    +0.360 C 
ATOM     13  C   LIG    1        1.635  -1.885  -0.008  0.00  0.00    +0.140 C 
ATOM     14  C   LIG    1        1.314   1.794   0.007  0.00  0.00    +0.090 A 
ATOM     15  C   LIG    1        1.846   3.203   0.010  0.00  0.00    +0.150 C 
ENDBRANCH   7   8
BRANCH   7  17
ATOM     16  C   LIG    1        5.646   0.843   1.383  0.00  0.00    +0.020 C 
ATOM     17  C   LIG    1        4.128   1.030   1.345  0.00  0.00    +0.000 C 
ENDBRANCH   7  17
ENDBRANCH   1   7
BRANCH   4  18
ATOM     18  C   LIG    1        7.021   1.568  -3.315  0.00  0.00    +0.270 C 
BRANCH  18  19
ATOM     19  C   LIG    1        7.337   2.623  -4.377  0.00  0.00    +0.210 C 
ATOM     20  C   LIG    1        7.459   3.996  -3.712  0.00  0.00    +0.070 C 
BRANCH  19  21
ATOM     21  C   LIG    1        8.637   2.277  -5.057  0.00  0.00    -0.270 A 
ATOM     22  C   LIG    1        8.968   2.567  -6.337  0.00  0.00    +0.260 A 
ATOM     23  N   LIG    1       10.212   2.092  -6.557  0.00  0.00    -0.370 N 
ATOM     24  N   LIG    1       10.657   1.484  -5.376  0.00  0.00    -0.290 NA
ATOM     25  C   LIG    1       10.962   2.191  -7.812  0.00  0.00    +0.360 C 
ATOM     26  C   LIG    1        9.713   1.596  -4.478  0.00  0.00    +0.240 A 
ENDBRANCH  19  21
BRANCH  19  27
ATOM     27  O   LIG    1        6.287   2.655  -5.346  0.00  0.00    -0.550 OA
ATOM     28  H   LIG    1        6.153   1.816  -5.808  0.00  0.00    +0.380 HD
ENDBRANCH  19  27
ENDBRANCH  18  19
ENDBRANCH   4  18
TORSDOF 7
