REMARK  Name = ZINCqH0000008lTO.0
REMARK                            x       y       z     vdW  Elec       q    Type
REMARK                         _______ _______ _______ _____ _____    ______ ____
ROOT
ATOM      1  C   LIG    1       -2.201  -6.912  -0.205  0.00  0.00    -0.110 A 
ATOM      2  C   LIG    1       -3.405  -6.233  -0.186  0.00  0.00    +0.040 A 
ATOM      3  C   LIG    1       -3.421  -4.852  -0.174  0.00  0.00    -0.010 A 
ATOM      4  C   LIG    1       -2.226  -4.146  -0.180  0.00  0.00    +0.160 A 
ATOM      5  C   LIG    1       -1.018  -4.830  -0.204  0.00  0.00    +0.030 A 
ATOM      6  C   LIG    1       -1.009  -6.211  -0.211  0.00  0.00    +0.020 A 
ENDROOT
BRANCH   4   7
ATOM      7  N   LIG    1       -2.239  -2.746  -0.168  0.00  0.00    -0.680 N 
ATOM      8  H   LIG    1       -2.936  -2.264  -0.639  0.00  0.00    +0.410 HD
ATOM      9  C   LIG    1       -1.283  -2.070   0.499  0.00  0.00    +0.710 C 
ATOM     10  N   LIG    1       -1.347  -0.727   0.590  0.00  0.00    -0.680 N 
ATOM     11  H   LIG    1       -2.114  -0.252   0.234  0.00  0.00    +0.410 HD
ATOM     12  O   LIG    1       -0.362  -2.671   1.019  0.00  0.00    -0.550 OA
BRANCH  10  13
ATOM     13  C   LIG    1       -0.306  -0.016   1.198  0.00  0.00    +0.160 A 
ATOM     14  C   LIG    1        0.054   1.237   0.719  0.00  0.00    -0.010 A 
ATOM     15  C   LIG    1        1.081   1.936   1.321  0.00  0.00    +0.030 A 
ATOM     16  C   LIG    1        1.752   1.389   2.400  0.00  0.00    -0.010 A 
ATOM     17  C   LIG    1        1.397   0.142   2.879  0.00  0.00    +0.030 A 
ATOM     18  C   LIG    1        0.370  -0.562   2.281  0.00  0.00    +0.020 A 
ENDBRANCH  10  13
ENDBRANCH   4   7
BRANCH   1  20
ATOM     19  C   LIG    1       -1.947  -8.914  -1.646  0.00  0.00    +0.040 C 
ATOM     20  C   LIG    1       -2.187  -8.419  -0.218  0.00  0.00    +0.290 C 
BRANCH  20  21
ATOM     21  N   LIG    1       -1.115  -8.905   0.654  0.00  0.00    -0.720 N 
ATOM     22  H   LIG    1       -0.345  -8.344   0.836  0.00  0.00    +0.400 HD
ATOM     23  C   LIG    1       -1.198 -10.133   1.204  0.00  0.00    +0.530 C 
ATOM     24  O   LIG    1       -2.161 -10.835   0.977  0.00  0.00    -0.510 OA
BRANCH  23  25
ATOM     25  C   LIG    1       -0.096 -10.633   2.101  0.00  0.00    +0.100 C 
BRANCH  25  26
ATOM     26  S   LIG    1       -0.498 -12.305   2.679  0.00  0.00    -0.130 S 
BRANCH  26  27
ATOM     27  C   LIG    1        0.921 -12.728   3.726  0.00  0.00    +0.240 C 
BRANCH  27  28
ATOM     28  C   LIG    1        0.739 -14.080   4.278  0.00  0.00    +0.220 C 
ATOM     29  N   LIG    1        0.598 -15.124   4.704  0.00  0.00    -0.400 NA
ENDBRANCH  27  28
ENDBRANCH  26  27
ENDBRANCH  25  26
ENDBRANCH  23  25
ENDBRANCH  20  21
ENDBRANCH   1  20
TORSDOF 8
