REMARK  Name = ZINCtV00000L6jpA.0
REMARK                            x       y       z     vdW  Elec       q    Type
REMARK                         _______ _______ _______ _____ _____    ______ ____
ROOT
ATOM      1  O   LIG    1       -1.506  -4.824  -1.316  0.00  0.00    -0.490 OA
ATOM      2  C   LIG    1       -2.470  -4.330  -0.771  0.00  0.00    +0.520 C 
ATOM      3  N   LIG    1       -3.357  -5.115  -0.129  0.00  0.00    -0.660 N 
ATOM      4  H   LIG    1       -4.097  -4.716   0.355  0.00  0.00    +0.420 HD
ENDROOT
BRANCH   3   5
ATOM      5  C   LIG    1       -3.210  -6.508  -0.159  0.00  0.00    +0.150 A 
ATOM      6  C   LIG    1       -1.944  -7.074  -0.175  0.00  0.00    +0.060 A 
ATOM      7  C   LIG    1       -1.802  -8.449  -0.201  0.00  0.00    -0.010 A 
ATOM      8  C   LIG    1       -2.921  -9.263  -0.221  0.00  0.00    +0.040 A 
ATOM      9  C   LIG    1       -4.186  -8.705  -0.211  0.00  0.00    +0.060 A 
ATOM     10 CL   LIG    1       -0.216  -9.156  -0.214  0.00  0.00    -0.050 Cl
ATOM     11  C   LIG    1       -4.337  -7.329  -0.180  0.00  0.00    +0.060 A 
BRANCH  11  12
ATOM     12  O   LIG    1       -5.580  -6.779  -0.170  0.00  0.00    -0.250 OA
BRANCH  12  13
ATOM     13  C   LIG    1       -6.135  -6.433  -1.362  0.00  0.00    +0.110 A 
ATOM     14  C   LIG    1       -5.393  -6.539  -2.530  0.00  0.00    -0.060 A 
ATOM     15  C   LIG    1       -5.961  -6.192  -3.740  0.00  0.00    +0.050 A 
ATOM     16  C   LIG    1       -7.263  -5.729  -3.787  0.00  0.00    -0.020 A 
ATOM     17  C   LIG    1       -8.002  -5.617  -2.624  0.00  0.00    +0.050 A 
ATOM     18  C   LIG    1       -7.441  -5.968  -1.411  0.00  0.00    -0.010 A 
ENDBRANCH  12  13
ENDBRANCH  11  12
ENDBRANCH   3   5
BRANCH   2  19
ATOM     19  C   LIG    1       -2.676  -2.837  -0.812  0.00  0.00    +0.270 C 
BRANCH  19  20
ATOM     20  O   LIG    1       -1.593  -2.220  -1.557  0.00  0.00    -0.320 OA
BRANCH  20  21
ATOM     21  C   LIG    1       -1.627  -0.879  -1.688  0.00  0.00    +0.520 C 
ATOM     22  O   LIG    1       -2.537  -0.244  -1.193  0.00  0.00    -0.490 OA
BRANCH  21  23
ATOM     23  C   LIG    1       -0.559  -0.182  -2.433  0.00  0.00    -0.100 A 
ATOM     24  C   LIG    1       -0.592   1.207  -2.570  0.00  0.00    +0.120 A 
ATOM     25  C   LIG    1        0.410   1.853  -3.267  0.00  0.00    -0.040 A 
ATOM     26  C   LIG    1        1.445   1.125  -3.830  0.00  0.00    +0.090 A 
ATOM     27  C   LIG    1        1.483  -0.252  -3.697  0.00  0.00    -0.040 A 
ATOM     28 CL   LIG    1        2.785  -1.155  -4.407  0.00  0.00    -0.040 Cl
ATOM     29 CL   LIG    1        0.371   3.579  -3.439  0.00  0.00    -0.040 Cl
ATOM     30  C   LIG    1        0.488  -0.910  -3.002  0.00  0.00    +0.110 A 
ENDBRANCH  21  23
ENDBRANCH  20  21
ENDBRANCH  19  20
ENDBRANCH   2  19
TORSDOF 7
