REMARK  Name = ZINCrH000009jwem.0
REMARK                            x       y       z     vdW  Elec       q    Type
REMARK                         _______ _______ _______ _____ _____    ______ ____
ROOT
ATOM      1  N   LIG    1       -2.461  -0.383  -0.001  0.00  0.00    -0.660 N 
ATOM      2  H   LIG    1       -1.618  -0.855  -0.087  0.00  0.00    +0.410 HD
ATOM      3  C   LIG    1       -2.481   0.964   0.013  0.00  0.00    +0.570 C 
ATOM      4  O   LIG    1       -3.542   1.556   0.035  0.00  0.00    -0.510 OA
ENDROOT
BRANCH   3   5
ATOM      5  C   LIG    1       -1.213   1.721  -0.001  0.00  0.00    -0.110 A 
ATOM      6  C   LIG    1        0.010   1.036  -0.027  0.00  0.00    +0.050 A 
ATOM      7  C   LIG    1        1.187   1.720  -0.045  0.00  0.00    +0.100 A 
ATOM      8  C   LIG    1        1.183   3.119  -0.033  0.00  0.00    +0.030 A 
ATOM      9  N   LIG    1        2.139   4.068  -0.044  0.00  0.00    -0.260 NA
ATOM     10  N   LIG    1        1.586   5.229  -0.022  0.00  0.00    -0.000 NA
ATOM     11  N   LIG    1        0.300   5.146   0.004  0.00  0.00    -0.300 N 
ATOM     12  C   LIG    1       -0.042   3.816  -0.001  0.00  0.00    +0.010 A 
ATOM     13  C   LIG    1       -1.236   3.113   0.018  0.00  0.00    +0.130 A 
BRANCH  11  14
ATOM     14  C   LIG    1       -0.634   6.275   0.034  0.00  0.00    +0.170 C 
ATOM     15  C   LIG    1       -1.540   6.218  -1.197  0.00  0.00    +0.060 C 
ATOM     16  C   LIG    1        0.152   7.587   0.029  0.00  0.00    +0.080 C 
ATOM     17  C   LIG    1       -1.488   6.196   1.301  0.00  0.00    +0.060 C 
ENDBRANCH  11  14
ENDBRANCH   3   5
BRANCH   1  21
ATOM     18  C   LIG    1       -6.024  -2.523   0.329  0.00  0.00    +0.130 A 
ATOM     19  C   LIG    1       -6.000  -1.317  -0.358  0.00  0.00    +0.000 A 
ATOM     20  C   LIG    1       -4.820  -0.608  -0.468  0.00  0.00    +0.040 A 
ATOM     21  C   LIG    1       -3.658  -1.102   0.110  0.00  0.00    +0.130 A 
ATOM     22  C   LIG    1       -3.681  -2.312   0.792  0.00  0.00    +0.010 A 
ATOM     23  C   LIG    1       -4.861  -3.018   0.906  0.00  0.00    +0.040 A 
BRANCH  18  25
ATOM     24  C   LIG    1       -7.489  -3.937   1.563  0.00  0.00    +0.510 C 
ATOM     25  N   LIG    1       -7.221  -3.243   0.439  0.00  0.00    -0.680 N 
ATOM     26  H   LIG    1       -7.857  -3.241  -0.293  0.00  0.00    +0.410 HD
ATOM     27  O   LIG    1       -6.658  -4.008   2.444  0.00  0.00    -0.520 OA
BRANCH  24  29
ATOM     28  C   LIG    1       -8.865  -5.336   3.079  0.00  0.00    +0.040 C 
ATOM     29  C   LIG    1       -8.820  -4.625   1.725  0.00  0.00    +0.060 C 
ENDBRANCH  24  29
ENDBRANCH  18  25
ENDBRANCH   1  21
TORSDOF 5
