REMARK  Name = ZINCqH00000352kO.0
REMARK                            x       y       z     vdW  Elec       q    Type
REMARK                         _______ _______ _______ _____ _____    ______ ____
ROOT
ATOM      1  N   LIG    1        1.653   3.453  -2.295  0.00  0.00    -0.680 N 
ATOM      2  H   LIG    1        1.918   3.946  -3.087  0.00  0.00    +0.420 HD
ATOM      3  C   LIG    1        1.186   2.194  -2.410  0.00  0.00    +0.510 C 
ATOM      4  O   LIG    1        0.804   1.596  -1.427  0.00  0.00    -0.460 OA
ENDROOT
BRANCH   1  12
ATOM      5  C   LIG    1        2.648   3.529  -0.086  0.00  0.00    -0.090 A 
ATOM      6  C   LIG    1        2.737   4.130   1.173  0.00  0.00    +0.000 A 
ATOM      7  C   LIG    1        1.958   5.230   1.466  0.00  0.00    +0.050 A 
ATOM      8  C   LIG    1        1.079   5.736   0.523  0.00  0.00    +0.070 A 
ATOM      9  C   LIG    1        0.977   5.149  -0.723  0.00  0.00    -0.080 A 
ATOM     10  C   LIG    1        0.017   5.708  -1.741  0.00  0.00    +0.120 C 
ATOM     11 CL   LIG    1        3.831   3.497   2.363  0.00  0.00    -0.040 Cl
ATOM     12  C   LIG    1        1.756   4.045  -1.039  0.00  0.00    +0.190 A 
BRANCH   5  13
ATOM     13  C   LIG    1        3.481   2.357  -0.409  0.00  0.00    +0.510 C 
ATOM     14  O   LIG    1        4.636   2.509  -0.754  0.00  0.00    -0.490 OA
BRANCH  13  16
ATOM     15  C   LIG    1        3.840   0.009  -0.655  0.00  0.00    +0.260 C 
ATOM     16  O   LIG    1        2.962   1.117  -0.322  0.00  0.00    -0.320 OA
ENDBRANCH  13  16
ENDBRANCH   5  13
ENDBRANCH   1  12
BRANCH   3  17
ATOM     17  C   LIG    1        1.139   1.528  -3.762  0.00  0.00    +0.180 C 
ATOM     18  C   LIG    1        2.564   1.340  -4.287  0.00  0.00    +0.070 C 
BRANCH  17  19
ATOM     19  O   LIG    1        0.503   0.254  -3.643  0.00  0.00    -0.280 OA
BRANCH  19  20
ATOM     20  C   LIG    1       -0.081  -0.249  -4.761  0.00  0.00    +0.160 A 
ATOM     21  C   LIG    1        0.055   0.416  -5.973  0.00  0.00    -0.080 A 
ATOM     22  C   LIG    1       -0.531  -0.095  -7.110  0.00  0.00    +0.110 A 
ATOM     23  C   LIG    1       -1.273  -1.277  -7.041  0.00  0.00    -0.070 A 
ATOM     24  C   LIG    1       -1.411  -1.940  -5.819  0.00  0.00    +0.110 A 
ATOM     25  C   LIG    1       -0.817  -1.425  -4.688  0.00  0.00    +0.000 A 
BRANCH  23  26
ATOM     26  C   LIG    1       -1.889  -1.808  -8.220  0.00  0.00    +0.250 C 
ATOM     27  N   LIG    1       -2.378  -2.229  -9.155  0.00  0.00    -0.420 NA
ENDBRANCH  23  26
ENDBRANCH  19  20
ENDBRANCH  17  19
ENDBRANCH   3  17
TORSDOF 7
