REMARK  Name = ZINCnE000001TCNq.0
REMARK                            x       y       z     vdW  Elec       q    Type
REMARK                         _______ _______ _______ _____ _____    ______ ____
ROOT
ATOM      1  C   LIG    1       -0.926  -3.861   0.015  0.00  0.00    +0.610 C 
ATOM      2  N   LIG    1       -2.249  -4.093  -0.103  0.00  0.00    -0.610 N 
ATOM      3  O   LIG    1       -0.515  -2.719   0.096  0.00  0.00    -0.530 OA
ENDROOT
BRANCH   1   7
ATOM      4  C   LIG    1        1.260  -7.173   0.113  0.00  0.00    -0.200 A 
ATOM      5  C   LIG    1        2.057  -6.062   0.065  0.00  0.00    -0.010 A 
ATOM      6  C   LIG    1        1.382  -4.874   0.023  0.00  0.00    +0.100 A 
ATOM      7  C   LIG    1        0.020  -4.989   0.045  0.00  0.00    -0.320 A 
ATOM      8  S   LIG    1       -0.430  -6.687   0.116  0.00  0.00    +0.230 S 
BRANCH   4  10
ATOM      9  O   LIG    1        2.943  -8.789   0.155  0.00  0.00    -0.670 OA
ATOM     10  C   LIG    1        1.741  -8.558   0.161  0.00  0.00    +0.540 C 
ATOM     11  O   LIG    1        0.941  -9.482   0.213  0.00  0.00    -0.680 OA
ENDBRANCH   4  10
ENDBRANCH   1   7
BRANCH   2  12
ATOM     12  C   LIG    1       -2.753  -5.469  -0.106  0.00  0.00    +0.400 C 
BRANCH  12  13
ATOM     13  C   LIG    1       -2.911  -5.948   1.314  0.00  0.00    -0.050 A 
ATOM     14  C   LIG    1       -4.016  -5.819   2.070  0.00  0.00    -0.050 A 
ATOM     15  C   LIG    1       -3.727  -6.406   3.322  0.00  0.00    -0.090 A 
ATOM     16  C   LIG    1       -2.460  -6.853   3.260  0.00  0.00    +0.170 A 
ATOM     17  O   LIG    1       -1.970  -6.573   2.041  0.00  0.00    -0.140 OA
ENDBRANCH  12  13
ENDBRANCH   2  12
BRANCH   2  18
ATOM     18  C   LIG    1       -3.182  -2.971  -0.229  0.00  0.00    +0.410 C 
BRANCH  18  19
ATOM     19  C   LIG    1       -3.461  -2.711  -1.687  0.00  0.00    -0.030 A 
ATOM     20  C   LIG    1       -4.444  -3.274  -2.413  0.00  0.00    -0.050 A 
ATOM     21  C   LIG    1       -4.341  -2.747  -3.721  0.00  0.00    -0.070 A 
ATOM     22  C   LIG    1       -3.296  -1.900  -3.719  0.00  0.00    +0.160 A 
ATOM     23  O   LIG    1       -2.767  -1.882  -2.484  0.00  0.00    -0.160 OA
ENDBRANCH  18  19
ENDBRANCH   2  18
TORSDOF 6
