REMARK  Name = ZINCpk00000KfLMZ.0
REMARK                            x       y       z     vdW  Elec       q    Type
REMARK                         _______ _______ _______ _____ _____    ______ ____
ROOT
ATOM      1  C   LIG    1       -1.865  -2.836  -1.077  0.00  0.00    +0.520 C 
ATOM      2  N   LIG    1       -1.137  -2.165  -0.161  0.00  0.00    -0.620 N 
ATOM      3  C   LIG    1       -1.446  -0.770   0.189  0.00  0.00    +0.290 C 
ATOM      4  C   LIG    1       -1.867  -0.730   1.657  0.00  0.00    +0.120 C 
ATOM      5  C   LIG    1       -0.901  -1.508   2.511  0.00  0.00    +0.020 A 
ATOM      6  N   LIG    1       -0.876  -1.256   3.813  0.00  0.00    -0.200 NA
ATOM      7  N   LIG    1       -0.106  -1.881   4.624  0.00  0.00    -0.300 NA
ATOM      8  C   LIG    1        0.725  -2.829   4.217  0.00  0.00    +0.340 A 
ATOM      9  C   LIG    1        0.774  -3.160   2.863  0.00  0.00    -0.030 A 
ATOM     10  C   LIG    1       -0.061  -2.473   1.993  0.00  0.00    -0.050 A 
ATOM     11  C   LIG    1       -0.004  -2.799   0.525  0.00  0.00    +0.360 C 
ATOM     12  O   LIG    1       -1.536  -3.954  -1.412  0.00  0.00    -0.510 OA
ENDROOT
BRANCH   8  13
ATOM     13  N   LIG    1        1.540  -3.488   5.130  0.00  0.00    -0.610 N 
ATOM     14  C   LIG    1        1.405  -3.214   6.563  0.00  0.00    +0.300 C 
ATOM     15  C   LIG    1        2.533  -4.457   4.661  0.00  0.00    +0.300 C 
ENDBRANCH   8  13
BRANCH   1  17
ATOM     16  C   LIG    1       -2.657  -1.121  -2.683  0.00  0.00    +0.040 C 
ATOM     17  C   LIG    1       -3.087  -2.196  -1.682  0.00  0.00    +0.160 C 
BRANCH  17  18
ATOM     18  O   LIG    1       -3.862  -3.190  -2.355  0.00  0.00    -0.350 OA
BRANCH  18  19
ATOM     19  C   LIG    1       -5.265  -2.921  -2.372  0.00  0.00    +0.200 C 
BRANCH  19  20
ATOM     20  C   LIG    1       -5.991  -4.045  -3.114  0.00  0.00    +0.160 C 
ATOM     21  C   LIG    1       -7.503  -3.821  -3.026  0.00  0.00    +0.000 C 
ATOM     22  C   LIG    1       -8.221  -4.916  -3.821  0.00  0.00    +0.020 C 
ATOM     23  C   LIG    1       -7.713  -4.898  -5.266  0.00  0.00    -0.020 C 
ATOM     24  C   LIG    1       -6.193  -5.081  -5.267  0.00  0.00    +0.210 C 
ATOM     25  O   LIG    1       -5.590  -4.048  -4.485  0.00  0.00    -0.370 OA
ENDBRANCH  19  20
ENDBRANCH  18  19
ENDBRANCH  17  18
ENDBRANCH   1  17
TORSDOF 5
