REMARK  Name = ZINCrD0000075GWP.0
REMARK                            x       y       z     vdW  Elec       q    Type
REMARK                         _______ _______ _______ _____ _____    ______ ____
ROOT
ATOM      1  O   LIG    1        1.667   4.956   2.631  0.00  0.00    -0.530 OA
ATOM      2  C   LIG    1        2.630   4.345   2.209  0.00  0.00    +0.570 C 
ATOM      3  N   LIG    1        2.643   3.901   0.937  0.00  0.00    -0.720 N 
ATOM      4  H   LIG    1        3.411   3.414   0.601  0.00  0.00    +0.400 HD
ENDROOT
BRANCH   2   5
ATOM      5  C   LIG    1        3.785   4.089   3.091  0.00  0.00    -0.170 A 
ATOM      6  C   LIG    1        4.890   3.382   2.610  0.00  0.00    +0.080 A 
ATOM      7  C   LIG    1        5.968   3.149   3.433  0.00  0.00    -0.040 A 
ATOM      8  C   LIG    1        5.954   3.608   4.748  0.00  0.00    +0.140 A 
ATOM      9  C   LIG    1        4.852   4.308   5.232  0.00  0.00    -0.030 A 
ATOM     10  C   LIG    1        3.773   4.548   4.412  0.00  0.00    +0.120 A 
BRANCH   8  11
ATOM     11  N   LIG    1        7.042   3.366   5.579  0.00  0.00    -0.470 N 
ATOM     12  C   LIG    1        8.308   3.441   4.828  0.00  0.00    +0.210 C 
ATOM     13  C   LIG    1        9.188   4.503   5.520  0.00  0.00    -0.010 C 
ATOM     14  C   LIG    1        8.602   4.561   6.955  0.00  0.00    +0.170 C 
ATOM     15  C   LIG    1        7.092   4.347   6.685  0.00  0.00    +0.220 C 
BRANCH  14  16
ATOM     16  O   LIG    1        8.838   5.837   7.553  0.00  0.00    -0.560 OA
ATOM     17  H   LIG    1        9.775   6.057   7.653  0.00  0.00    +0.390 HD
ENDBRANCH  14  16
ENDBRANCH   8  11
ENDBRANCH   2   5
BRANCH   3  18
ATOM     18  C   LIG    1        1.496   4.155   0.061  0.00  0.00    +0.410 C 
BRANCH  18  19
ATOM     19  C   LIG    1        1.948   4.140  -1.376  0.00  0.00    -0.100 A 
ATOM     20  C   LIG    1        2.879   3.209  -1.798  0.00  0.00    +0.010 A 
ATOM     21  C   LIG    1        3.291   3.193  -3.118  0.00  0.00    +0.010 A 
ATOM     22  C   LIG    1        2.779   4.113  -4.013  0.00  0.00    +0.020 A 
ATOM     23  C   LIG    1        1.852   5.048  -3.590  0.00  0.00    +0.010 A 
ATOM     24  C   LIG    1        1.437   5.061  -2.271  0.00  0.00    +0.030 A 
ENDBRANCH  18  19
BRANCH  18  25
ATOM     25  C   LIG    1        0.456   3.085   0.272  0.00  0.00    -0.020 A 
ATOM     26  C   LIG    1       -0.874   3.277   0.313  0.00  0.00    -0.040 A 
ATOM     27  C   LIG    1       -1.465   2.010   0.524  0.00  0.00    -0.060 A 
ATOM     28  C   LIG    1       -0.460   1.120   0.607  0.00  0.00    +0.160 A 
ATOM     29  O   LIG    1        0.701   1.776   0.450  0.00  0.00    -0.170 OA
ENDBRANCH  18  25
ENDBRANCH   3  18
TORSDOF 6
