REMARK  Name = ZINCrD000000D23d.0
REMARK                            x       y       z     vdW  Elec       q    Type
REMARK                         _______ _______ _______ _____ _____    ______ ____
ROOT
ATOM      1  N   LIG    1        4.341   5.537   1.237  0.00  0.00    -1.000 NA
ATOM      2  C   LIG    1        5.534   4.745   0.885  0.00  0.00    +0.270 C 
ATOM      3  C   LIG    1        5.864   5.151  -0.572  0.00  0.00    +0.040 C 
ATOM      4  C   LIG    1        4.445   5.319  -1.178  0.00  0.00    +0.060 C 
ATOM      5  C   LIG    1        3.633   5.897   0.000  0.00  0.00    +0.260 C 
ENDROOT
BRANCH   1   7
ATOM      6  O   LIG    1        5.086   5.952   3.516  0.00  0.00    -0.930 OA
ATOM      7  S   LIG    1        3.876   5.952   2.771  0.00  0.00    +2.630 S 
ATOM      8  O   LIG    1        3.122   7.144   2.598  0.00  0.00    -0.930 OA
BRANCH   7   9
ATOM      9  C   LIG    1        2.802   4.590   3.303  0.00  0.00    -0.260 C 
BRANCH   9  10
ATOM     10  C   LIG    1        2.309   4.856   4.702  0.00  0.00    +0.130 A 
ATOM     11  N   LIG    1        1.227   5.495   5.027  0.00  0.00    -0.260 NA
ATOM     12  O   LIG    1        1.104   5.540   6.434  0.00  0.00    -0.080 OA
ATOM     13  C   LIG    1        2.152   4.903   6.995  0.00  0.00    +0.090 A 
ATOM     14  C   LIG    1        2.527   4.654   8.309  0.00  0.00    +0.020 A 
ATOM     15  C   LIG    1        3.687   3.957   8.570  0.00  0.00    +0.100 A 
ATOM     16  C   LIG    1        4.486   3.500   7.532  0.00  0.00    +0.000 A 
ATOM     17  C   LIG    1        4.135   3.736   6.232  0.00  0.00    +0.110 A 
ATOM     18  C   LIG    1        2.961   4.435   5.946  0.00  0.00    -0.200 A 
ENDBRANCH   9  10
ENDBRANCH   7   9
ENDBRANCH   1   7
BRANCH   5  19
ATOM     19  C   LIG    1        2.228   5.292   0.010  0.00  0.00    +0.180 C 
BRANCH  19  20
ATOM     20  O   LIG    1        2.323   3.866   0.001  0.00  0.00    -0.300 OA
BRANCH  20  21
ATOM     21  C   LIG    1        1.155   3.169   0.008  0.00  0.00    +0.110 A 
ATOM     22  C   LIG    1        1.175   1.782   0.000  0.00  0.00    +0.020 A 
ATOM     23  C   LIG    1       -0.013   1.076   0.008  0.00  0.00    +0.030 A 
ATOM     24  C   LIG    1       -1.221   1.751   0.017  0.00  0.00    +0.060 A 
ATOM     25  C   LIG    1       -1.242   3.136   0.031  0.00  0.00    +0.030 A 
ATOM     26  F   LIG    1       -2.381   1.059   0.019  0.00  0.00    -0.140 F 
ATOM     27  C   LIG    1       -0.056   3.845   0.023  0.00  0.00    -0.040 A 
ENDBRANCH  20  21
ENDBRANCH  19  20
ENDBRANCH   5  19
TORSDOF 6
