REMARK  Name = ZINCpk00000y4jgh.0
REMARK                            x       y       z     vdW  Elec       q    Type
REMARK                         _______ _______ _______ _____ _____    ______ ____
ROOT
ATOM      1  C   LIG    1        6.456   2.247  -0.781  0.00  0.00    +0.160 C 
ATOM      2  C   LIG    1        6.123   3.695  -0.531  0.00  0.00    +0.100 A 
ATOM      3  N   LIG    1        6.801   4.724  -0.973  0.00  0.00    -0.270 NA
ATOM      4  N   LIG    1        6.174   5.894  -0.527  0.00  0.00    -0.350 N 
ATOM      5  C   LIG    1        5.083   5.533   0.200  0.00  0.00    +0.260 A 
ATOM      6  C   LIG    1        6.612   7.265  -0.800  0.00  0.00    +0.370 C 
ATOM      7  C   LIG    1        5.036   4.168   0.215  0.00  0.00    -0.040 A 
ENDROOT
BRANCH   5   8
ATOM      8  N   LIG    1        4.180   6.397   0.820  0.00  0.00    -0.480 N 
ATOM      9  C   LIG    1        4.098   6.127   2.263  0.00  0.00    +0.170 C 
ATOM     10  C   LIG    1        3.144   7.134   2.911  0.00  0.00    +0.230 C 
ATOM     11  O   LIG    1        1.867   7.053   2.272  0.00  0.00    -0.370 OA
ATOM     12  C   LIG    1        1.910   7.311   0.866  0.00  0.00    +0.240 C 
ATOM     13  C   LIG    1        2.852   6.307   0.196  0.00  0.00    +0.170 C 
ENDBRANCH   5   8
BRANCH   7  14
ATOM     14  N   LIG    1        4.063   3.377   0.861  0.00  0.00    -0.650 N 
ATOM     15  H   LIG    1        3.125   3.487   0.641  0.00  0.00    +0.400 HD
ATOM     16  C   LIG    1        4.438   2.468   1.783  0.00  0.00    +0.570 C 
ATOM     17  O   LIG    1        5.619   2.295   2.022  0.00  0.00    -0.490 OA
BRANCH  16  18
ATOM     18  C   LIG    1        3.422   1.688   2.498  0.00  0.00    +0.000 A 
ATOM     19  C   LIG    1        3.774   0.530   3.132  0.00  0.00    +0.130 A 
ATOM     20  C   LIG    1        2.814  -0.223   3.817  0.00  0.00    +0.000 A 
ATOM     21  C   LIG    1        1.518   0.197   3.856  0.00  0.00    +0.130 A 
ATOM     22  C   LIG    1        1.154   1.388   3.203  0.00  0.00    -0.010 A 
ATOM     23  C   LIG    1       -0.039   2.068   3.051  0.00  0.00    +0.200 A 
ATOM     24  N   LIG    1        0.213   3.157   2.326  0.00  0.00    -0.440 NA
ATOM     25  C   LIG    1        1.484   3.198   2.009  0.00  0.00    +0.330 A 
ATOM     26  N   LIG    1        2.109   2.126   2.528  0.00  0.00    -0.350 N 
ENDBRANCH  16  18
ENDBRANCH   7  14
TORSDOF 3
