REMARK  Name = ZINCrD00000751DW.0
REMARK                            x       y       z     vdW  Elec       q    Type
REMARK                         _______ _______ _______ _____ _____    ______ ____
ROOT
ATOM      1  S   LIG    1        3.103   4.700   1.948  0.00  0.00    +0.060 S 
ENDROOT
BRANCH   1   6
ATOM      2  C   LIG    1       -1.956   6.143   1.840  0.00  0.00    +0.140 C 
ATOM      3  C   LIG    1       -0.668   5.461   1.455  0.00  0.00    +0.000 A 
ATOM      4  C   LIG    1       -0.502   4.625   0.415  0.00  0.00    +0.010 A 
ATOM      5  N   LIG    1        0.817   4.230   0.426  0.00  0.00    -0.430 N 
ATOM      6  C   LIG    1        1.411   4.853   1.480  0.00  0.00    +0.170 A 
ATOM      7  C   LIG    1       -1.558   4.200  -0.572  0.00  0.00    +0.150 C 
ATOM      8  N   LIG    1        0.510   5.588   2.088  0.00  0.00    -0.480 NA
BRANCH   5   9
ATOM      9  C   LIG    1        1.460   3.315  -0.521  0.00  0.00    +0.320 C 
BRANCH   9  10
ATOM     10  C   LIG    1        1.348   1.881  -0.001  0.00  0.00    +0.140 C 
ATOM     11  C   LIG    1        2.033   0.891  -0.978  0.00  0.00    +0.020 C 
ATOM     12  C   LIG    1        1.298  -0.435  -0.664  0.00  0.00    +0.010 C 
ATOM     13  C   LIG    1       -0.019   0.011   0.002  0.00  0.00    +0.200 C 
ATOM     14  O   LIG    1       -0.030   1.449   0.006  0.00  0.00    -0.370 OA
ENDBRANCH   9  10
ENDBRANCH   5   9
ENDBRANCH   1   6
BRANCH   1  15
ATOM     15  C   LIG    1        3.130   5.792   3.391  0.00  0.00    +0.120 C 
BRANCH  15  16
ATOM     16  C   LIG    1        4.519   5.819   3.975  0.00  0.00    +0.530 C 
ATOM     17  N   LIG    1        4.778   6.570   5.064  0.00  0.00    -0.670 N 
ATOM     18  H   LIG    1        4.089   7.145   5.431  0.00  0.00    +0.420 HD
ATOM     19  O   LIG    1        5.404   5.164   3.466  0.00  0.00    -0.500 OA
BRANCH  17  20
ATOM     20  C   LIG    1        6.041   6.520   5.664  0.00  0.00    +0.150 A 
ATOM     21  C   LIG    1        6.162   6.639   7.042  0.00  0.00    +0.060 A 
ATOM     22  C   LIG    1        7.410   6.583   7.632  0.00  0.00    +0.060 A 
ATOM     23  C   LIG    1        8.539   6.422   6.850  0.00  0.00    +0.090 A 
ATOM     24  C   LIG    1        8.422   6.309   5.476  0.00  0.00    -0.020 A 
ATOM     25  C   LIG    1        7.177   6.358   4.881  0.00  0.00    +0.110 A 
BRANCH  24  26
ATOM     26  N   LIG    1        9.633   6.137   4.644  0.00  0.00    +0.030 N 
ATOM     27  O   LIG    1       10.732   6.094   5.168  0.00  0.00    -0.150 OA
ATOM     28  O   LIG    1        9.532   6.038   3.434  0.00  0.00    -0.150 OA
ENDBRANCH  24  26
ENDBRANCH  17  20
ENDBRANCH  15  16
ENDBRANCH   1  15
TORSDOF 7
