REMARK  Name = ZINCvU00000006Y8.0
REMARK                            x       y       z     vdW  Elec       q    Type
REMARK                         _______ _______ _______ _____ _____    ______ ____
ROOT
ATOM      1  S   LIG    1       -1.644   5.049   0.043  0.00  0.00    +0.080 S 
ENDROOT
BRANCH   1   2
ATOM      2  C   LIG    1       -0.667   3.582   0.026  0.00  0.00    +0.140 A 
ATOM      3  N   LIG    1        0.644   3.518   0.014  0.00  0.00    -0.290 NA
ATOM      4  N   LIG    1        1.021   2.289   0.005  0.00  0.00    -0.280 NA
ATOM      5  C   LIG    1       -0.018   1.503   0.010  0.00  0.00    +0.220 A 
ATOM      6  N   LIG    1       -1.131   2.298   0.019  0.00  0.00    -0.450 N 
BRANCH   5   7
ATOM      7  C   LIG    1        0.002  -0.004   0.002  0.00  0.00    +0.030 C 
ATOM      8  C   LIG    1        1.355  -0.693   0.192  0.00  0.00    +0.070 C 
ATOM      9  C   LIG    1        0.681  -0.695  -1.182  0.00  0.00    +0.050 C 
ENDBRANCH   5   7
BRANCH   6  10
ATOM     10  C   LIG    1       -2.530   1.863   0.023  0.00  0.00    +0.370 C 
BRANCH  10  11
ATOM     11  C   LIG    1       -3.003   1.706   1.445  0.00  0.00    -0.120 A 
ATOM     12  C   LIG    1       -2.869   0.490   2.088  0.00  0.00    +0.020 A 
ATOM     13  C   LIG    1       -3.299   0.348   3.395  0.00  0.00    +0.010 A 
ATOM     14  C   LIG    1       -3.872   1.419   4.054  0.00  0.00    +0.030 A 
ATOM     15  C   LIG    1       -4.010   2.634   3.409  0.00  0.00    +0.010 A 
ATOM     16  C   LIG    1       -3.576   2.777   2.105  0.00  0.00    +0.040 A 
ENDBRANCH  10  11
ENDBRANCH   6  10
ENDBRANCH   1   2
BRANCH   1  17
ATOM     17  C   LIG    1       -0.335   6.299   0.037  0.00  0.00    +0.120 C 
BRANCH  17  29
ATOM     18  C   LIG    1       -0.035  11.624   3.547  0.00  0.00    +0.070 C 
ATOM     19  C   LIG    1        0.318  10.880   2.258  0.00  0.00    +0.030 C 
ATOM     20  C   LIG    1       -0.953  10.611   1.467  0.00  0.00    +0.030 C 
ATOM     21  C   LIG    1       -0.747  10.117   0.054  0.00  0.00    +0.300 C 
ATOM     22  N   LIG    1       -0.164   8.766   0.048  0.00  0.00    -0.560 N 
ATOM     23  C   LIG    1        1.232   8.645   0.035  0.00  0.00    +0.150 A 
ATOM     24  C   LIG    1        1.876   8.236  -1.126  0.00  0.00    +0.010 A 
ATOM     25  C   LIG    1        3.256   8.164  -1.157  0.00  0.00    +0.040 A 
ATOM     26  C   LIG    1        4.005   8.498  -0.043  0.00  0.00    +0.030 A 
ATOM     27  C   LIG    1        3.371   8.889   1.125  0.00  0.00    +0.080 A 
ATOM     28  C   LIG    1        1.991   8.936   1.160  0.00  0.00    -0.100 A 
ATOM     29  C   LIG    1       -0.952   7.673   0.050  0.00  0.00    +0.550 C 
ATOM     30  O   LIG    1       -2.159   7.796   0.061  0.00  0.00    -0.510 OA
ATOM     31  S   LIG    1        1.140   9.315   2.673  0.00  0.00    -0.140 S 
ENDBRANCH  17  29
ENDBRANCH   1  17
TORSDOF 6
