REMARK  Name = ZINCpk00000eaTFB.0
REMARK                            x       y       z     vdW  Elec       q    Type
REMARK                         _______ _______ _______ _____ _____    ______ ____
ROOT
ATOM      1  C   LIG    1       -0.742   1.585  -1.213  0.00  0.00    +0.480 C 
ATOM      2  O   LIG    1       -1.732   2.266  -1.089  0.00  0.00    -0.500 OA
ENDROOT
BRANCH   1   3
ATOM      3  O   LIG    1       -0.290   1.274  -2.438  0.00  0.00    -0.330 OA
BRANCH   3   4
ATOM      4  C   LIG    1       -1.042   1.789  -3.568  0.00  0.00    +0.280 C 
BRANCH   4   7
ATOM      5  N   LIG    1       -0.920   1.702  -6.037  0.00  0.00    -0.630 N 
ATOM      6  H   LIG    1       -1.719   2.251  -6.065  0.00  0.00    +0.420 HD
ATOM      7  C   LIG    1       -0.391   1.340  -4.851  0.00  0.00    +0.530 C 
ATOM      8  O   LIG    1        0.608   0.654  -4.817  0.00  0.00    -0.490 OA
BRANCH   5  12
ATOM      9  C   LIG    1        2.113  -0.386  -9.399  0.00  0.00    +0.190 C 
ATOM     10  C   LIG    1        1.016   0.368  -8.692  0.00  0.00    -0.020 A 
ATOM     11  C   LIG    1        0.848   0.486  -7.355  0.00  0.00    -0.040 A 
ATOM     12  C   LIG    1       -0.317   1.286  -7.225  0.00  0.00    +0.240 A 
ATOM     13  N   LIG    1       -0.716   1.552  -8.441  0.00  0.00    -0.380 NA
ATOM     14  O   LIG    1        0.017   1.054  -9.265  0.00  0.00    +0.100 OA
ENDBRANCH   5  12
ENDBRANCH   4   7
ENDBRANCH   3   4
ENDBRANCH   1   3
BRANCH   1  15
ATOM     15  C   LIG    1       -0.013   1.086   0.008  0.00  0.00    +0.100 C 
BRANCH  15  16
ATOM     16  C   LIG    1       -0.729   1.579   1.267  0.00  0.00    +0.360 C 
BRANCH  16  17
ATOM     17  N   LIG    1       -0.020   1.094   2.454  0.00  0.00    -0.550 N 
ATOM     18  C   LIG    1        0.980   1.726   3.099  0.00  0.00    +0.640 A 
ATOM     19  O   LIG    1        1.382   0.981   4.140  0.00  0.00    -0.230 OA
ATOM     20  C   LIG    1        0.643  -0.154   4.187  0.00  0.00    +0.040 A 
ATOM     21  C   LIG    1        0.640  -1.246   5.040  0.00  0.00    +0.060 A 
ATOM     22  C   LIG    1       -0.253  -2.280   4.834  0.00  0.00    +0.030 A 
ATOM     23  C   LIG    1       -1.146  -2.232   3.778  0.00  0.00    +0.040 A 
ATOM     24  C   LIG    1       -1.151  -1.147   2.922  0.00  0.00    +0.040 A 
ATOM     25  O   LIG    1        1.446   2.805   2.786  0.00  0.00    -0.480 OA
ATOM     26  C   LIG    1       -0.262  -0.104   3.126  0.00  0.00    +0.070 A 
ENDBRANCH  16  17
ENDBRANCH  15  16
ENDBRANCH   1  15
TORSDOF 7
