REMARK  Name = ZINCrg000000thoK.0
REMARK                            x       y       z     vdW  Elec       q    Type
REMARK                         _______ _______ _______ _____ _____    ______ ____
ROOT
ATOM      1  C   LIG    1       -0.651   6.389  -4.064  0.00  0.00    +0.510 C 
ATOM      2  N   LIG    1       -0.717   7.035  -5.245  0.00  0.00    -0.590 N 
ATOM      3  O   LIG    1        0.422   6.221  -3.524  0.00  0.00    -0.510 OA
ENDROOT
BRANCH   2   4
ATOM      4  C   LIG    1        0.515   7.436  -5.931  0.00  0.00    +0.280 C 
ATOM      5  C   LIG    1        1.395   6.202  -6.196  0.00  0.00    +0.060 C 
ATOM      6  C   LIG    1        2.806   6.679  -6.596  0.00  0.00    -0.310 C 
ATOM      7  S   LIG    1        3.010   8.303  -5.780  0.00  0.00    +2.390 S 
ATOM      8  O   LIG    1        3.986   8.195  -4.753  0.00  0.00    -0.930 OA
ATOM      9  O   LIG    1        3.130   9.316  -6.770  0.00  0.00    -0.930 OA
ATOM     10  C   LIG    1        1.341   8.386  -5.026  0.00  0.00    -0.310 C 
ENDBRANCH   2   4
BRANCH   2  11
ATOM     11  C   LIG    1       -2.019   7.337  -5.843  0.00  0.00    +0.230 C 
ATOM     12  C   LIG    1       -2.157   6.616  -7.200  0.00  0.00    +0.020 C 
ATOM     13  C   LIG    1       -2.927   7.624  -8.089  0.00  0.00    +0.020 C 
ATOM     14  C   LIG    1       -2.332   8.987  -7.656  0.00  0.00    +0.010 C 
ATOM     15  C   LIG    1       -2.130   8.844  -6.133  0.00  0.00    +0.020 C 
ENDBRANCH   2  11
BRANCH   1  16
ATOM     16  C   LIG    1       -1.910   5.877  -3.414  0.00  0.00    +0.330 C 
BRANCH  16  27
ATOM     17  O   LIG    1       -1.418   3.209  -3.363  0.00  0.00    -0.530 OA
ATOM     18  C   LIG    1       -1.337   3.788  -2.292  0.00  0.00    +0.530 A 
ATOM     19  C   LIG    1       -1.003   3.078  -1.115  0.00  0.00    -0.240 A 
ATOM     20  C   LIG    1       -0.917   3.760   0.052  0.00  0.00    +0.180 A 
ATOM     21  N   LIG    1       -1.160   5.081   0.064  0.00  0.00    -0.530 NA
ATOM     22  C   LIG    1       -1.471   5.736  -1.019  0.00  0.00    +0.580 A 
ATOM     23  C   LIG    1       -0.555   3.099   1.356  0.00  0.00    +0.110 C 
ATOM     24  C   LIG    1       -0.741   1.586   1.261  0.00  0.00    +0.030 C 
ATOM     25  C   LIG    1       -0.011   1.086   0.008  0.00  0.00    +0.020 C 
ATOM     26  C   LIG    1       -0.761   1.598  -1.221  0.00  0.00    +0.110 C 
ATOM     27  N   LIG    1       -1.564   5.115  -2.212  0.00  0.00    -0.510 N 
ENDBRANCH  16  27
ENDBRANCH   1  16
TORSDOF 4
