REMARK  Name = ZINCtV000002HooM.0
REMARK                            x       y       z     vdW  Elec       q    Type
REMARK                         _______ _______ _______ _____ _____    ______ ____
ROOT
ATOM      1  S   LIG    1       -1.119   1.396  -1.356  0.00  0.00    -0.140 S 
ENDROOT
BRANCH   1   2
ATOM      2  C   LIG    1       -0.190   1.128   0.179  0.00  0.00    +0.010 C 
ATOM      3  C   LIG    1       -0.991   1.677   1.362  0.00  0.00    +0.080 C 
BRANCH   2   6
ATOM      4  N   LIG    1        2.178   1.413   0.834  0.00  0.00    -0.660 N 
ATOM      5  H   LIG    1        2.054   0.701   1.482  0.00  0.00    +0.410 HD
ATOM      6  C   LIG    1        1.135   1.841   0.096  0.00  0.00    +0.540 C 
ATOM      7  O   LIG    1        1.263   2.799  -0.636  0.00  0.00    -0.490 OA
BRANCH   4  13
ATOM      8  C   LIG    1        5.371   3.854  -1.997  0.00  0.00    +0.090 C 
ATOM      9  C   LIG    1        5.014   3.185  -0.695  0.00  0.00    -0.070 A 
ATOM     10  C   LIG    1        5.934   3.146   0.337  0.00  0.00    -0.010 A 
ATOM     11  C   LIG    1        5.610   2.533   1.533  0.00  0.00    +0.030 A 
ATOM     12  C   LIG    1        4.366   1.957   1.701  0.00  0.00    -0.120 A 
ATOM     13  C   LIG    1        3.440   1.995   0.667  0.00  0.00    +0.150 A 
ATOM     14  C   LIG    1        4.014   1.289   3.005  0.00  0.00    +0.090 C 
ATOM     15  C   LIG    1        3.770   2.606  -0.535  0.00  0.00    +0.020 A 
ENDBRANCH   4  13
ENDBRANCH   2   6
ENDBRANCH   1   2
BRANCH   1  16
ATOM     16  C   LIG    1       -2.587   0.355  -1.131  0.00  0.00    +0.120 C 
BRANCH  16  17
ATOM     17  C   LIG    1       -2.173  -1.093  -1.077  0.00  0.00    -0.100 A 
ATOM     18  C   LIG    1       -1.610  -1.693  -2.188  0.00  0.00    +0.080 A 
ATOM     19  C   LIG    1       -1.224  -3.019  -2.137  0.00  0.00    -0.010 A 
ATOM     20  C   LIG    1       -1.413  -3.750  -0.976  0.00  0.00    +0.100 A 
ATOM     21  C   LIG    1       -1.982  -3.150   0.134  0.00  0.00    -0.010 A 
ATOM     22  F   LIG    1       -1.043  -5.048  -0.927  0.00  0.00    -0.140 F 
ATOM     23  C   LIG    1       -2.361  -1.822   0.083  0.00  0.00    +0.050 A 
ENDBRANCH  16  17
BRANCH  16  24
ATOM     24  C   LIG    1       -3.532   0.564  -2.287  0.00  0.00    -0.080 A 
ATOM     25  C   LIG    1       -3.032   0.784  -3.557  0.00  0.00    +0.060 A 
ATOM     26  C   LIG    1       -3.898   0.970  -4.618  0.00  0.00    -0.010 A 
ATOM     27  C   LIG    1       -5.266   0.948  -4.407  0.00  0.00    +0.110 A 
ATOM     28  C   LIG    1       -5.765   0.732  -3.133  0.00  0.00    -0.010 A 
ATOM     29  F   LIG    1       -6.113   1.136  -5.442  0.00  0.00    -0.140 F 
ATOM     30  C   LIG    1       -4.898   0.540  -2.075  0.00  0.00    +0.070 A 
ENDBRANCH  16  24
ENDBRANCH   1  16
TORSDOF 6
