REMARK  Name = ZINCpk00000K65mp.0
REMARK                            x       y       z     vdW  Elec       q    Type
REMARK                         _______ _______ _______ _____ _____    ______ ____
ROOT
ATOM      1  N   LIG    1       -2.107   3.843  -5.704  0.00  0.00    -0.720 N 
ATOM      2  H   LIG    1       -1.927   2.928  -5.972  0.00  0.00    +0.400 HD
ATOM      3  C   LIG    1       -1.963   4.208  -4.415  0.00  0.00    +0.720 C 
ATOM      4  N   LIG    1       -1.570   3.303  -3.497  0.00  0.00    -0.650 N 
ATOM      5  H   LIG    1       -1.391   2.388  -3.765  0.00  0.00    +0.410 HD
ATOM      6  O   LIG    1       -2.188   5.356  -4.080  0.00  0.00    -0.580 OA
ENDROOT
BRANCH   4   7
ATOM      7  C   LIG    1       -1.420   3.686  -2.147  0.00  0.00    +0.010 A 
ATOM      8  C   LIG    1       -1.034   2.883  -1.126  0.00  0.00    +0.230 A 
ATOM      9  O   LIG    1       -0.708   1.562  -1.154  0.00  0.00    -0.290 OA
ATOM     10  C   LIG    1       -0.013   1.086   0.008  0.00  0.00    +0.240 C 
ATOM     11  C   LIG    1       -0.731   1.581   1.268  0.00  0.00    +0.020 C 
ATOM     12  C   LIG    1       -0.652   3.113   1.329  0.00  0.00    +0.320 C 
ATOM     13  N   LIG    1       -1.017   3.638   0.010  0.00  0.00    -0.400 N 
ATOM     14  N   LIG    1       -1.400   4.935  -0.331  0.00  0.00    -0.270 NA
ATOM     15  C   LIG    1       -1.643   4.968  -1.620  0.00  0.00    +0.290 A 
ENDBRANCH   4   7
BRANCH   1  16
ATOM     16  C   LIG    1       -2.534   4.827  -6.702  0.00  0.00    +0.280 C 
BRANCH  16  17
ATOM     17  C   LIG    1       -1.333   5.589  -7.202  0.00  0.00    +0.510 C 
ATOM     18  O   LIG    1       -0.230   5.334  -6.768  0.00  0.00    -0.530 OA
ATOM     19  N   LIG    1       -1.486   6.553  -8.131  0.00  0.00    -0.850 N 
ATOM     20  H   LIG    1       -0.713   7.043  -8.453  0.00  0.00    +0.400 HD
ATOM     21  H   LIG    1       -2.369   6.756  -8.478  0.00  0.00    +0.400 HD
ENDBRANCH  16  17
BRANCH  16  23
ATOM     22  C   LIG    1       -4.424   3.335  -7.365  0.00  0.00    +0.050 C 
ATOM     23  C   LIG    1       -3.206   4.108  -7.873  0.00  0.00    +0.040 C 
BRANCH  23  24
ATOM     24  C   LIG    1       -3.645   5.121  -8.899  0.00  0.00    -0.090 A 
ATOM     25  C   LIG    1       -4.551   6.106  -8.554  0.00  0.00    +0.010 A 
ATOM     26  C   LIG    1       -4.950   7.037  -9.494  0.00  0.00    +0.010 A 
ATOM     27  C   LIG    1       -4.451   6.978 -10.781  0.00  0.00    +0.010 A 
ATOM     28  C   LIG    1       -3.548   5.990 -11.128  0.00  0.00    +0.010 A 
ATOM     29  C   LIG    1       -3.146   5.061 -10.187  0.00  0.00    +0.010 A 
ENDBRANCH  23  24
ENDBRANCH  16  23
ENDBRANCH   1  16
TORSDOF 5
