REMARK  Name = ZINCrD00000dI9j0.0
REMARK                            x       y       z     vdW  Elec       q    Type
REMARK                         _______ _______ _______ _____ _____    ______ ____
ROOT
ATOM      1  C   LIG    1       -2.357   1.760   3.287  0.00  0.00    +0.240 C 
ATOM      2  C   LIG    1       -2.573   3.296   3.277  0.00  0.00    -0.010 C 
ATOM      3  C   LIG    1       -3.127   2.995   4.704  0.00  0.00    +0.060 C 
ATOM      4  C   LIG    1       -1.111   3.826   3.472  0.00  0.00    +0.270 C 
ATOM      5  N   LIG    1       -0.657   2.887   4.539  0.00  0.00    -0.610 N 
ATOM      6  C   LIG    1        0.537   2.809   5.160  0.00  0.00    +0.590 C 
ATOM      7  O   LIG    1        0.753   1.911   5.951  0.00  0.00    -0.530 OA
ATOM      8  C   LIG    1       -1.887   2.054   4.733  0.00  0.00    +0.230 C 
ENDROOT
BRANCH   6   9
ATOM      9  C   LIG    1        1.581   3.814   4.880  0.00  0.00    -0.180 A 
ATOM     10  C   LIG    1        2.765   3.819   5.623  0.00  0.00    +0.120 A 
ATOM     11  C   LIG    1        3.739   4.755   5.354  0.00  0.00    -0.070 A 
ATOM     12  C   LIG    1        3.542   5.700   4.355  0.00  0.00    +0.170 A 
ATOM     13  C   LIG    1        2.363   5.701   3.618  0.00  0.00    -0.020 A 
ATOM     14  C   LIG    1        1.387   4.765   3.876  0.00  0.00    +0.080 A 
BRANCH  12  15
ATOM     15  O   LIG    1        4.502   6.624   4.097  0.00  0.00    -0.300 OA
BRANCH  15  16
ATOM     16  C   LIG    1        5.630   6.649   4.975  0.00  0.00    +0.110 C 
ATOM     17  C   LIG    1        5.149   6.802   6.419  0.00  0.00    +0.030 C 
ATOM     18  C   LIG    1        6.533   7.828   4.610  0.00  0.00    +0.080 C 
ATOM     19  C   LIG    1        6.414   5.343   4.834  0.00  0.00    +0.030 C 
ENDBRANCH  15  16
ENDBRANCH  12  15
ENDBRANCH   6   9
BRANCH   1  21
ATOM     20  C   LIG    1       -1.234  -0.013   2.049  0.00  0.00    +0.520 C 
ATOM     21  N   LIG    1       -1.300   1.290   2.389  0.00  0.00    -0.720 N 
ATOM     22  H   LIG    1       -0.649   1.917   2.036  0.00  0.00    +0.400 HD
ATOM     23  O   LIG    1       -2.047  -0.797   2.490  0.00  0.00    -0.520 OA
BRANCH  20  24
ATOM     24  C   LIG    1       -0.150  -0.495   1.120  0.00  0.00    +0.020 C 
BRANCH  24  26
ATOM     25  C   LIG    1        0.367  -2.028  -0.784  0.00  0.00    +0.030 C 
ATOM     26  C   LIG    1       -0.699  -1.613   0.232  0.00  0.00    +0.070 C 
ENDBRANCH  24  26
BRANCH  24  27
ATOM     27  S   LIG    1        1.244  -1.126   2.094  0.00  0.00    -0.200 S 
ATOM     28  C   LIG    1        1.884   0.366   2.904  0.00  0.00    +0.130 C 
ENDBRANCH  24  27
ENDBRANCH  20  24
ENDBRANCH   1  21
TORSDOF 7
