REMARK  Name = ZINCAx0000000aJB.0
REMARK                            x       y       z     vdW  Elec       q    Type
REMARK                         _______ _______ _______ _____ _____    ______ ____
ROOT
ATOM      1  C   LIG    1        1.304   7.551   2.731  0.00  0.00    +0.180 C 
ATOM      2  C   LIG    1        2.458   6.831   2.081  0.00  0.00    +0.400 A 
ATOM      3  N   LIG    1        2.211   5.739   1.422  0.00  0.00    -0.510 NA
ATOM      4  C   LIG    1        3.198   5.039   0.811  0.00  0.00    +0.130 A 
ATOM      5  C   LIG    1        2.932   3.860   0.100  0.00  0.00    +0.160 A 
ATOM      6  C   LIG    1        3.973   3.176  -0.501  0.00  0.00    +0.070 A 
ATOM      7  C   LIG    1        5.274   3.651  -0.419  0.00  0.00    +0.030 A 
ATOM      8  C   LIG    1        5.558   4.807   0.275  0.00  0.00    +0.090 A 
ATOM      9  C   LIG    1        4.526   5.510   0.895  0.00  0.00    -0.180 A 
ATOM     10  C   LIG    1        4.773   6.749   1.648  0.00  0.00    +0.560 A 
ATOM     11  O   LIG    1        5.894   7.209   1.759  0.00  0.00    -0.500 OA
ATOM     12  N   LIG    1        3.704   7.357   2.213  0.00  0.00    -0.530 N 
ENDROOT
BRANCH  12  13
ATOM     13  C   LIG    1        3.892   8.594   2.976  0.00  0.00    +0.260 C 
ATOM     14  C   LIG    1        4.845   8.334   4.147  0.00  0.00    +0.070 C 
ATOM     15  C   LIG    1        5.114   9.663   4.862  0.00  0.00    +0.110 C 
ATOM     16  C   LIG    1        5.641  10.661   3.865  0.00  0.00    +0.520 C 
ATOM     17  N   LIG    1        5.299  10.599   2.569  0.00  0.00    -0.670 N 
ATOM     18  H   LIG    1        5.654  11.266   1.961  0.00  0.00    +0.420 HD
ATOM     19  O   LIG    1        6.389  11.538   4.240  0.00  0.00    -0.490 OA
ATOM     20  C   LIG    1        4.485   9.651   2.082  0.00  0.00    +0.520 C 
ATOM     21  O   LIG    1        4.222   9.644   0.898  0.00  0.00    -0.480 OA
ENDBRANCH  12  13
BRANCH   5  22
ATOM     22  N   LIG    1        1.623   3.376   0.005  0.00  0.00    -0.660 N 
ATOM     23  H   LIG    1        0.880   3.996  -0.053  0.00  0.00    +0.420 HD
ATOM     24  C   LIG    1        1.396   2.047  -0.007  0.00  0.00    +0.510 C 
ATOM     25  O   LIG    1        2.328   1.272  -0.016  0.00  0.00    -0.520 OA
BRANCH  24  26
ATOM     26  C   LIG    1       -0.018   1.525  -0.008  0.00  0.00    +0.060 C 
BRANCH  26  27
ATOM     27  C   LIG    1        0.003  -0.004  -0.022  0.00  0.00    +0.040 C 
BRANCH  27  28
ATOM     28  C   LIG    1       -1.432  -0.535  -0.023  0.00  0.00    +0.020 C 
BRANCH  28  29
ATOM     29  C   LIG    1       -1.411  -2.064  -0.037  0.00  0.00    +0.010 C 
BRANCH  29  30
ATOM     30  C   LIG    1       -2.846  -2.594  -0.038  0.00  0.00    +0.280 C 
BRANCH  30  31
ATOM     31  N   LIG    1       -2.825  -4.059  -0.051  0.00  0.00    -0.710 N 
ATOM     32  H   LIG    1       -1.979  -4.532  -0.058  0.00  0.00    +0.410 HD
ATOM     33  C   LIG    1       -3.983  -4.749  -0.054  0.00  0.00    +0.650 C 
ATOM     34  O   LIG    1       -5.044  -4.157  -0.047  0.00  0.00    -0.570 OA
BRANCH  33  35
ATOM     35  O   LIG    1       -3.964  -6.096  -0.067  0.00  0.00    -0.370 OA
BRANCH  35  36
ATOM     36  C   LIG    1       -5.249  -6.773  -0.070  0.00  0.00    +0.140 C 
ATOM     37  C   LIG    1       -6.033  -6.384   1.185  0.00  0.00    +0.040 C 
ATOM     38  C   LIG    1       -5.027  -8.287  -0.084  0.00  0.00    +0.080 C 
ATOM     39  C   LIG    1       -6.039  -6.361  -1.313  0.00  0.00    +0.040 C 
ENDBRANCH  35  36
ENDBRANCH  33  35
ENDBRANCH  30  31
ENDBRANCH  29  30
ENDBRANCH  28  29
ENDBRANCH  27  28
ENDBRANCH  26  27
ENDBRANCH  24  26
ENDBRANCH   5  22
TORSDOF 10
