REMARK  Name = ZINCkj000005ktLV.1
REMARK                            x       y       z     vdW  Elec       q    Type
REMARK                         _______ _______ _______ _____ _____    ______ ____
ROOT
ATOM      1  C   LIG    1       -2.425   0.977  -0.522  0.00  0.00    +0.560 C 
ATOM      2  N   LIG    1       -2.368  -0.362  -0.664  0.00  0.00    -0.740 N 
ATOM      3  H   LIG    1       -1.518  -0.822  -0.585  0.00  0.00    +0.400 HD
ATOM      4  O   LIG    1       -3.490   1.554  -0.621  0.00  0.00    -0.520 OA
ENDROOT
BRANCH   1  11
ATOM      5  C   LIG    1       -2.600   3.806   0.060  0.00  0.00    +0.110 C 
ATOM      6  C   LIG    1       -1.264   3.110   0.037  0.00  0.00    -0.020 A 
ATOM      7  C   LIG    1       -0.109   3.821   0.289  0.00  0.00    +0.000 A 
ATOM      8  C   LIG    1        1.118   3.182   0.267  0.00  0.00    +0.050 A 
ATOM      9  C   LIG    1        1.196   1.828  -0.006  0.00  0.00    -0.010 A 
ATOM     10  C   LIG    1        0.049   1.105  -0.259  0.00  0.00    +0.040 A 
ATOM     11  C   LIG    1       -1.192   1.744  -0.245  0.00  0.00    -0.150 A 
ENDBRANCH   1  11
BRANCH   2  12
ATOM     12  C   LIG    1       -3.590  -1.122  -0.939  0.00  0.00    +0.280 C 
BRANCH  12  13
ATOM     13  C   LIG    1       -3.250  -2.610  -1.054  0.00  0.00    +0.020 C 
BRANCH  13  14
ATOM     14  C   LIG    1       -4.526  -3.403  -1.341  0.00  0.00    +0.280 C 
BRANCH  14  15
ATOM     15  N   LIG    1       -4.200  -4.831  -1.452  0.00  0.00    -0.390 N 
ATOM     16  C   LIG    1       -3.337  -5.047  -2.621  0.00  0.00    +0.270 C 
ATOM     17  C   LIG    1       -2.981  -6.531  -2.726  0.00  0.00    +0.200 C 
ATOM     18  N   LIG    1       -4.215  -7.320  -2.855  0.00  0.00    -0.540 NA
ATOM     19  C   LIG    1       -5.101  -7.095  -1.704  0.00  0.00    +0.200 C 
ATOM     20  C   LIG    1       -3.913  -8.748  -3.016  0.00  0.00    +0.220 C 
ATOM     21  C   LIG    1       -5.439  -5.606  -1.607  0.00  0.00    +0.280 C 
ATOM     22  H   LIG    1       -3.718  -5.132  -0.618  0.00  0.00    +0.420 HD
ENDBRANCH  14  15
ENDBRANCH  13  14
ENDBRANCH  12  13
ENDBRANCH   2  12
TORSDOF 5
