REMARK  Name = ZINCkj000005ktLV.0
REMARK                            x       y       z     vdW  Elec       q    Type
REMARK                         _______ _______ _______ _____ _____    ______ ____
ROOT
ATOM      1  C   LIG    1       -0.938   4.192   2.600  0.00  0.00    +0.560 C 
ATOM      2  N   LIG    1       -0.183   3.533   1.699  0.00  0.00    -0.730 N 
ATOM      3  H   LIG    1        0.213   4.012   0.955  0.00  0.00    +0.400 HD
ATOM      4  O   LIG    1       -1.435   3.592   3.533  0.00  0.00    -0.520 OA
ENDROOT
BRANCH   1  11
ATOM      5  C   LIG    1       -2.770   5.545   4.386  0.00  0.00    +0.110 C 
ATOM      6  C   LIG    1       -2.045   6.309   3.308  0.00  0.00    -0.020 A 
ATOM      7  C   LIG    1       -2.251   7.665   3.165  0.00  0.00    +0.000 A 
ATOM      8  C   LIG    1       -1.586   8.369   2.176  0.00  0.00    +0.050 A 
ATOM      9  C   LIG    1       -0.711   7.718   1.325  0.00  0.00    -0.010 A 
ATOM     10  C   LIG    1       -0.493   6.362   1.460  0.00  0.00    +0.040 A 
ATOM     11  C   LIG    1       -1.164   5.646   2.452  0.00  0.00    -0.150 A 
ENDBRANCH   1  11
BRANCH   2  12
ATOM     12  C   LIG    1        0.041   2.092   1.846  0.00  0.00    +0.260 C 
BRANCH  12  13
ATOM     13  C   LIG    1        0.926   1.595   0.701  0.00  0.00    +0.020 C 
BRANCH  13  14
ATOM     14  C   LIG    1        1.159   0.091   0.854  0.00  0.00    +0.200 C 
BRANCH  14  15
ATOM     15  N   LIG    1        2.009  -0.387  -0.245  0.00  0.00    -0.540 NA
ATOM     16  C   LIG    1        1.313  -0.276  -1.536  0.00  0.00    +0.200 C 
ATOM     17  C   LIG    1        2.251  -0.726  -2.658  0.00  0.00    +0.280 C 
ATOM     18  N   LIG    1        2.664  -2.116  -2.423  0.00  0.00    -0.390 N 
ATOM     19  C   LIG    1        3.379  -2.207  -1.143  0.00  0.00    +0.280 C 
ATOM     20  C   LIG    1        3.550  -2.554  -3.510  0.00  0.00    +0.310 C 
ATOM     21  H   LIG    1        1.848  -2.709  -2.395  0.00  0.00    +0.420 HD
ATOM     22  C   LIG    1        2.450  -1.769  -0.008  0.00  0.00    +0.200 C 
ENDBRANCH  14  15
ENDBRANCH  13  14
ENDBRANCH  12  13
ENDBRANCH   2  12
TORSDOF 5
