REMARK  Name = ZINCpk00000e9kI7.0
REMARK                            x       y       z     vdW  Elec       q    Type
REMARK                         _______ _______ _______ _____ _____    ______ ____
ROOT
ATOM      1  N   LIG    1       -2.430   0.977   0.019  0.00  0.00    -0.370 N 
ATOM      2  C   LIG    1       -2.971   0.383  -1.083  0.00  0.00    +0.360 A 
ATOM      3  C   LIG    1       -3.963  -0.446  -0.691  0.00  0.00    -0.110 A 
ATOM      4  C   LIG    1       -4.062  -0.382   0.715  0.00  0.00    +0.490 A 
ATOM      5  N   LIG    1       -4.921  -1.055   1.477  0.00  0.00    -0.670 NA
ATOM      6  N   LIG    1       -3.103   0.499   1.152  0.00  0.00    -0.470 N 
ATOM      7  H   LIG    1       -2.926   0.747   2.073  0.00  0.00    +0.450 HD
ENDROOT
BRANCH   5   8
ATOM      8  C   LIG    1       -5.801  -1.890   0.915  0.00  0.00    +0.540 C 
ATOM      9  O   LIG    1       -5.817  -2.034  -0.295  0.00  0.00    -0.560 OA
BRANCH   8  10
ATOM     10  C   LIG    1       -6.757  -2.639   1.763  0.00  0.00    -0.080 A 
ATOM     11  C   LIG    1       -6.741  -2.475   3.148  0.00  0.00    +0.070 A 
ATOM     12  C   LIG    1       -7.633  -3.174   3.936  0.00  0.00    +0.030 A 
ATOM     13  C   LIG    1       -8.544  -4.037   3.357  0.00  0.00    +0.010 A 
ATOM     14  C   LIG    1       -8.568  -4.207   1.978  0.00  0.00    +0.140 A 
ATOM     15  C   LIG    1       -7.680  -3.505   1.179  0.00  0.00    +0.080 A 
BRANCH  14  16
ATOM     16  N   LIG    1       -9.494  -5.083   1.396  0.00  0.00    -0.320 N 
ATOM     17  C   LIG    1      -10.476  -5.750   2.044  0.00  0.00    +0.230 A 
ATOM     18  C   LIG    1      -11.147  -6.487   1.129  0.00  0.00    -0.110 A 
ATOM     19  C   LIG    1      -10.556  -6.266  -0.120  0.00  0.00    +0.240 A 
ATOM     20  N   LIG    1       -9.570  -5.420   0.038  0.00  0.00    -0.290 NA
ENDBRANCH  14  16
ENDBRANCH   8  10
ENDBRANCH   5   8
BRANCH   1  21
ATOM     21  C   LIG    1       -1.330   1.944   0.019  0.00  0.00    +0.390 C 
BRANCH  21  24
ATOM     22  N   LIG    1        1.143   1.898   0.001  0.00  0.00    -0.730 N 
ATOM     23  H   LIG    1        1.130   2.868   0.007  0.00  0.00    +0.400 HD
ATOM     24  C   LIG    1       -0.014   1.209   0.009  0.00  0.00    +0.480 C 
ATOM     25  O   LIG    1        0.002  -0.004   0.002  0.00  0.00    -0.510 OA
BRANCH  22  27
ATOM     26  C   LIG    1        3.571   2.193  -0.020  0.00  0.00    +0.030 C 
ATOM     27  C   LIG    1        2.422   1.183  -0.015  0.00  0.00    +0.250 C 
ENDBRANCH  22  27
ENDBRANCH  21  24
ENDBRANCH   1  21
TORSDOF 6
