REMARK  Name = ZINCqH0000037S8C.0
REMARK                            x       y       z     vdW  Elec       q    Type
REMARK                         _______ _______ _______ _____ _____    ______ ____
ROOT
ATOM      1  N   LIG    1       -0.793  -0.583  -2.066  0.00  0.00    -0.690 N 
ATOM      2  H   LIG    1       -0.465  -0.939  -1.226  0.00  0.00    +0.410 HD
ATOM      3  C   LIG    1       -0.933   0.749  -2.224  0.00  0.00    +0.710 C 
ATOM      4  N   LIG    1       -0.531   1.589  -1.250  0.00  0.00    -0.620 N 
ATOM      5  C   LIG    1       -0.046   1.067   0.035  0.00  0.00    +0.270 C 
ATOM      6  C   LIG    1       -0.840   1.726   1.168  0.00  0.00    +0.030 C 
ATOM      7  C   LIG    1       -0.750   3.248   1.030  0.00  0.00    +0.020 C 
ATOM      8  C   LIG    1       -1.360   3.680  -0.306  0.00  0.00    +0.220 C 
ATOM      9  C   LIG    1       -0.570   3.043  -1.453  0.00  0.00    +0.290 C 
ATOM     10  O   LIG    1       -1.421   1.191  -3.246  0.00  0.00    -0.560 OA
ENDROOT
BRANCH   1  14
ATOM     11  C   LIG    1       -3.678  -1.702  -5.887  0.00  0.00    +0.100 C 
ATOM     12  C   LIG    1       -2.516  -2.017  -4.981  0.00  0.00    -0.070 A 
ATOM     13  C   LIG    1       -2.194  -1.159  -3.948  0.00  0.00    +0.060 A 
ATOM     14  C   LIG    1       -1.122  -1.450  -3.114  0.00  0.00    +0.170 A 
ATOM     15  C   LIG    1       -0.374  -2.601  -3.325  0.00  0.00    +0.030 A 
ATOM     16  C   LIG    1       -0.706  -3.459  -4.356  0.00  0.00    -0.160 A 
ATOM     17  C   LIG    1       -1.773  -3.166  -5.185  0.00  0.00    +0.050 A 
BRANCH  16  18
ATOM     18  C   LIG    1        0.101  -4.712  -4.581  0.00  0.00    +0.510 C 
ATOM     19  F   LIG    1       -0.719  -5.700  -5.137  0.00  0.00    -0.170 F 
ATOM     20  F   LIG    1        0.612  -5.163  -3.359  0.00  0.00    -0.180 F 
ATOM     21  F   LIG    1        1.157  -4.436  -5.455  0.00  0.00    -0.180 F 
ENDBRANCH  16  18
ENDBRANCH   1  14
BRANCH   8  22
ATOM     22  N   LIG    1       -1.300   5.140  -0.422  0.00  0.00    -0.730 N 
ATOM     23  H   LIG    1       -0.630   5.638   0.071  0.00  0.00    +0.400 HD
ATOM     24  C   LIG    1       -2.176   5.789  -1.214  0.00  0.00    +0.520 C 
ATOM     25  O   LIG    1       -3.014   5.166  -1.830  0.00  0.00    -0.530 OA
BRANCH  24  26
ATOM     26  C   LIG    1       -2.115   7.290  -1.333  0.00  0.00    -0.010 C 
ATOM     27  C   LIG    1       -3.211   7.771  -2.286  0.00  0.00    +0.040 C 
ATOM     28  C   LIG    1       -0.747   7.702  -1.880  0.00  0.00    +0.040 C 
ENDBRANCH  24  26
ENDBRANCH   8  22
TORSDOF 4
