REMARK  Name = ZINCkj00000a7AoA.1
REMARK                            x       y       z     vdW  Elec       q    Type
REMARK                         _______ _______ _______ _____ _____    ______ ____
ROOT
ATOM      1  N   LIG    1        0.178   0.960   4.776  0.00  0.00    -0.670 N 
ATOM      2  H   LIG    1        0.992   0.443   4.670  0.00  0.00    +0.430 HD
ATOM      3  C   LIG    1       -0.560   1.284   3.696  0.00  0.00    +0.700 C 
ATOM      4  N   LIG    1       -0.114   0.983   2.460  0.00  0.00    -0.720 N 
ATOM      5  H   LIG    1        0.738   0.533   2.348  0.00  0.00    +0.410 HD
ATOM      6  O   LIG    1       -1.628   1.847   3.836  0.00  0.00    -0.550 OA
ENDROOT
BRANCH   1  10
ATOM      7  C   LIG    1       -0.101   0.185   9.628  0.00  0.00    +0.200 C 
ATOM      8  C   LIG    1       -0.382   1.024   8.407  0.00  0.00    +0.200 C 
ATOM      9  C   LIG    1        0.037   0.585   7.168  0.00  0.00    +0.000 C 
ATOM     10  C   LIG    1       -0.228   1.369   6.047  0.00  0.00    +0.310 C 
ATOM     11  C   LIG    1       -0.905   2.574   6.228  0.00  0.00    +0.040 C 
ATOM     12  C   LIG    1       -1.294   2.939   7.500  0.00  0.00    +0.190 C 
ATOM     13  C   LIG    1       -2.031   4.237   7.708  0.00  0.00    +0.200 C 
ATOM     14  N   LIG    1       -1.025   2.169   8.537  0.00  0.00    -0.470 NA
ATOM     15  H   LIG    1       -1.307   2.453   9.421  0.00  0.00    +0.450 HD
ENDBRANCH   1  10
BRANCH   4  16
ATOM     16  C   LIG    1       -0.917   1.334   1.286  0.00  0.00    +0.290 C 
BRANCH  16  17
ATOM     17  C   LIG    1       -0.189   0.885   0.017  0.00  0.00    +0.040 C 
BRANCH  17  18
ATOM     18  C   LIG    1       -1.028   1.252  -1.209  0.00  0.00    +0.000 C 
ATOM     19  C   LIG    1       -0.346   0.770  -2.509  0.00  0.00    +0.270 C 
ATOM     20  N   LIG    1       -0.626   1.810  -3.506  0.00  0.00    -0.730 N 
ATOM     21  H   LIG    1       -0.537   1.688  -4.464  0.00  0.00    +0.410 HD
ATOM     22  C   LIG    1       -1.024   2.953  -2.921  0.00  0.00    +0.520 C 
ATOM     23  O   LIG    1       -1.312   3.972  -3.512  0.00  0.00    -0.530 OA
ATOM     24  C   LIG    1       -1.061   2.784  -1.418  0.00  0.00    +0.060 C 
ENDBRANCH  17  18
ENDBRANCH  16  17
ENDBRANCH   4  16
TORSDOF 4
