REMARK  Name = ZINCrg00000J2k6e.0
REMARK                            x       y       z     vdW  Elec       q    Type
REMARK                         _______ _______ _______ _____ _____    ______ ____
ROOT
ATOM      1  C   LIG    1       -6.928   5.733   4.701  0.00  0.00    +0.610 C 
ATOM      2  N   LIG    1       -6.739   5.284   3.444  0.00  0.00    -0.600 N 
ATOM      3  C   LIG    1       -6.805   6.203   2.297  0.00  0.00    +0.310 C 
ATOM      4  C   LIG    1       -7.765   5.615   1.257  0.00  0.00    +0.180 C 
ATOM      5  N   LIG    1       -7.350   4.244   0.932  0.00  0.00    -0.520 NA
ATOM      6  C   LIG    1       -7.437   3.368   2.108  0.00  0.00    +0.180 C 
ATOM      7  C   LIG    1       -6.464   3.863   3.183  0.00  0.00    +0.280 C 
ATOM      8  O   LIG    1       -7.080   6.922   4.906  0.00  0.00    -0.510 OA
ENDROOT
BRANCH   1  10
ATOM      9  C   LIG    1       -7.826   4.735   6.893  0.00  0.00    +0.100 A 
ATOM     10  C   LIG    1       -6.950   4.783   5.825  0.00  0.00    -0.300 A 
ATOM     11  S   LIG    1       -5.853   3.427   6.145  0.00  0.00    +0.420 S 
ATOM     12  N   LIG    1       -6.560   2.979   7.470  0.00  0.00    -0.260 NA
ATOM     13  N   LIG    1       -7.548   3.746   7.710  0.00  0.00    -0.240 NA
BRANCH   9  15
ATOM     14  C   LIG    1      -10.221   5.155   6.408  0.00  0.00    +0.040 C 
ATOM     15  C   LIG    1       -8.966   5.700   7.093  0.00  0.00    +0.150 C 
ENDBRANCH   9  15
ENDBRANCH   1  10
BRANCH   5  16
ATOM     16  C   LIG    1       -8.139   3.707  -0.185  0.00  0.00    +0.270 C 
BRANCH  16  17
ATOM     17  C   LIG    1       -7.531   2.408  -0.650  0.00  0.00    +0.220 A 
ATOM     18  C   LIG    1       -8.236   1.228  -0.513  0.00  0.00    -0.180 A 
ATOM     19  C   LIG    1       -7.651   0.035  -0.953  0.00  0.00    +0.510 A 
ATOM     20  N   LIG    1       -6.415   0.075  -1.496  0.00  0.00    -0.430 N 
ATOM     21  C   LIG    1       -5.832  -1.078  -1.929  0.00  0.00    +0.280 A 
ATOM     22  C   LIG    1       -4.598  -1.063  -2.481  0.00  0.00    -0.010 A 
ATOM     23  C   LIG    1       -3.899   0.146  -2.610  0.00  0.00    +0.120 A 
ATOM     24  C   LIG    1       -4.471   1.304  -2.176  0.00  0.00    +0.040 A 
ATOM     25  C   LIG    1       -5.757   1.268  -1.604  0.00  0.00    +0.390 A 
ATOM     26  O   LIG    1       -8.248  -1.024  -0.846  0.00  0.00    -0.530 OA
ATOM     27  N   LIG    1       -6.318   2.398  -1.179  0.00  0.00    -0.520 NA
ENDBRANCH  16  17
ENDBRANCH   5  16
TORSDOF 4
