REMARK  Name = ZINCqH0000062TLN.0
REMARK                            x       y       z     vdW  Elec       q    Type
REMARK                         _______ _______ _______ _____ _____    ______ ____
ROOT
ATOM      1  N   LIG    1        0.392   7.739   0.040  0.00  0.00    -0.360 N 
ATOM      2  N   LIG    1        0.905   6.432   0.033  0.00  0.00    -0.280 NA
ATOM      3  C   LIG    1       -0.130   5.620   0.032  0.00  0.00    +0.270 A 
ATOM      4  N   LIG    1       -1.251   6.353   0.046  0.00  0.00    -0.470 NA
ATOM      5  C   LIG    1       -0.949   7.624   0.051  0.00  0.00    +0.280 A 
ENDROOT
BRANCH   3   6
ATOM      6  C   LIG    1       -0.065   4.138   0.024  0.00  0.00    +0.180 A 
ATOM      7  C   LIG    1        1.169   3.515   0.009  0.00  0.00    +0.040 A 
ATOM      8  C   LIG    1        1.212   2.110   0.002  0.00  0.00    -0.030 A 
ATOM      9  C   LIG    1        2.422   1.401  -0.014  0.00  0.00    +0.020 A 
ATOM     10  C   LIG    1        2.401   0.039  -0.021  0.00  0.00    +0.030 A 
ATOM     11  C   LIG    1        1.196  -0.660  -0.013  0.00  0.00    +0.020 A 
ATOM     12  C   LIG    1        0.002  -0.004   0.002  0.00  0.00    +0.050 A 
ATOM     13  C   LIG    1       -0.017   1.399   0.010  0.00  0.00    -0.110 A 
ATOM     14  C   LIG    1       -1.220   2.125   0.019  0.00  0.00    +0.320 A 
ATOM     15  N   LIG    1       -1.199   3.435   0.031  0.00  0.00    -0.450 NA
ENDBRANCH   3   6
BRANCH   5  16
ATOM     16  C   LIG    1       -1.933   8.765   0.066  0.00  0.00    -0.330 C 
ATOM     17  C   LIG    1       -2.657   8.866  -1.291  0.00  0.00    +0.100 C 
ATOM     18  C   LIG    1       -4.094   9.360  -1.049  0.00  0.00    +0.080 C 
ATOM     19  C   LIG    1       -4.664   8.512   0.117  0.00  0.00    -0.290 C 
ATOM     20  S   LIG    1       -3.256   8.446   1.289  0.00  0.00    +2.400 S 
ATOM     21  O   LIG    1       -3.338   9.542   2.190  0.00  0.00    -0.930 OA
ATOM     22  O   LIG    1       -3.123   7.124   1.792  0.00  0.00    -0.890 OA
ENDBRANCH   5  16
BRANCH   1  23
ATOM     23  C   LIG    1        1.164   8.984   0.040  0.00  0.00    +0.260 C 
ATOM     24  C   LIG    1        2.057   9.029   1.282  0.00  0.00    +0.040 C 
BRANCH  23  26
ATOM     25  C   LIG    1        2.746  10.398  -1.279  0.00  0.00    +0.030 C 
ATOM     26  C   LIG    1        2.034   9.045  -1.217  0.00  0.00    +0.020 C 
ENDBRANCH  23  26
ENDBRANCH   1  23
TORSDOF 4
