REMARK  Name = ZINCqH0000001S9G.0
REMARK                            x       y       z     vdW  Elec       q    Type
REMARK                         _______ _______ _______ _____ _____    ______ ____
ROOT
ATOM      1  C   LIG    1       -3.820   5.356   0.066  0.00  0.00    +0.140 C 
ATOM      2  C   LIG    1       -2.998   4.072   0.194  0.00  0.00    +0.080 C 
ENDROOT
BRANCH   1   3
ATOM      3  N   LIG    1       -5.251   5.029   0.131  0.00  0.00    -0.510 NA
ATOM      4  C   LIG    1       -5.555   4.232   1.325  0.00  0.00    +0.160 C 
ATOM      5  C   LIG    1       -7.019   3.788   1.285  0.00  0.00    +0.030 C 
ATOM      6  C   LIG    1       -7.921   5.025   1.231  0.00  0.00    -0.010 C 
ATOM      7  C   LIG    1       -7.551   5.863   0.004  0.00  0.00    +0.040 C 
ATOM      8  C   LIG    1       -6.071   6.246   0.082  0.00  0.00    +0.160 C 
BRANCH   6   9
ATOM      9  C   LIG    1       -9.383   4.588   1.129  0.00  0.00    +0.060 C 
BRANCH   9  10
ATOM     10  C   LIG    1       -9.782   3.868   2.392  0.00  0.00    -0.080 A 
ATOM     11  C   LIG    1       -9.625   2.498   2.486  0.00  0.00    +0.000 A 
ATOM     12  C   LIG    1       -9.986   1.839   3.646  0.00  0.00    +0.000 A 
ATOM     13  C   LIG    1      -10.513   2.548   4.709  0.00  0.00    -0.010 A 
ATOM     14  C   LIG    1      -10.674   3.918   4.613  0.00  0.00    +0.000 A 
ATOM     15  C   LIG    1      -10.309   4.578   3.455  0.00  0.00    +0.000 A 
ENDBRANCH   9  10
ENDBRANCH   6   9
ENDBRANCH   1   3
BRANCH   1  18
ATOM     16  N   LIG    1       -2.480   6.875  -1.353  0.00  0.00    -0.650 N 
ATOM     17  H   LIG    1       -1.931   7.065  -0.576  0.00  0.00    +0.410 HD
ATOM     18  C   LIG    1       -3.515   6.018  -1.253  0.00  0.00    +0.520 C 
ATOM     19  O   LIG    1       -4.202   5.781  -2.224  0.00  0.00    -0.480 OA
BRANCH  16  24
ATOM     20  N   LIG    1       -1.195   8.364  -2.815  0.00  0.00    -0.380 N 
ATOM     21  N   LIG    1       -1.266   8.738  -4.163  0.00  0.00    -0.290 NA
ATOM     22  C   LIG    1       -2.274   8.111  -4.713  0.00  0.00    +0.250 A 
ATOM     23  C   LIG    1       -2.885   7.320  -3.736  0.00  0.00    -0.110 A 
ATOM     24  C   LIG    1       -2.198   7.489  -2.573  0.00  0.00    +0.300 A 
BRANCH  20  26
ATOM     25  C   LIG    1        1.196   8.463  -2.310  0.00  0.00    +0.050 C 
ATOM     26  C   LIG    1       -0.211   8.838  -1.839  0.00  0.00    +0.250 C 
ATOM     27  C   LIG    1       -0.315  10.358  -1.706  0.00  0.00    +0.050 C 
ENDBRANCH  20  26
ENDBRANCH  16  24
ENDBRANCH   1  18
TORSDOF 6
