REMARK  Name = ZINCpe00000MJJvC.0
REMARK                            x       y       z     vdW  Elec       q    Type
REMARK                         _______ _______ _______ _____ _____    ______ ____
ROOT
ATOM      1  O   LIG    1        6.464  -1.023  -3.033  0.00  0.00    -0.530 OA
ATOM      2  C   LIG    1        6.737  -0.365  -2.048  0.00  0.00    +0.700 C 
ATOM      3  N   LIG    1        7.020  -0.897  -0.853  0.00  0.00    -0.680 N 
ATOM      4  H   LIG    1        7.032  -1.849  -0.668  0.00  0.00    +0.440 HD
ATOM      5  C   LIG    1        7.287   0.056   0.064  0.00  0.00    +0.530 C 
ATOM      6  C   LIG    1        7.150   1.371  -0.668  0.00  0.00    +0.110 C 
ATOM      7  C   LIG    1        8.475   2.126  -0.661  0.00  0.00    +0.060 C 
ATOM      8  C   LIG    1        8.847   2.494   0.778  0.00  0.00    +0.030 C 
ATOM      9  C   LIG    1        7.742   3.363   1.383  0.00  0.00    +0.030 C 
ATOM     10  C   LIG    1        6.426   2.583   1.391  0.00  0.00    +0.020 C 
ATOM     11  C   LIG    1        6.044   2.215  -0.045  0.00  0.00    +0.270 C 
ATOM     12  O   LIG    1        7.576  -0.108   1.230  0.00  0.00    -0.440 OA
ATOM     13  N   LIG    1        6.789   0.980  -2.037  0.00  0.00    -0.720 N 
ATOM     14  H   LIG    1        6.622   1.574  -2.786  0.00  0.00    +0.440 HD
ENDROOT
BRANCH  11  15
ATOM     15  N   LIG    1        4.794   1.451  -0.037  0.00  0.00    -0.710 N 
ATOM     16  H   LIG    1        4.818   0.482  -0.042  0.00  0.00    +0.410 HD
ATOM     17  C   LIG    1        3.610   2.096  -0.022  0.00  0.00    +0.580 C 
ATOM     18  O   LIG    1        3.580   3.311  -0.015  0.00  0.00    -0.510 OA
BRANCH  17  19
ATOM     19  C   LIG    1        2.345   1.323  -0.013  0.00  0.00    +0.050 A 
ATOM     20  N   LIG    1        2.384   0.003  -0.021  0.00  0.00    -0.390 NA
ATOM     21  C   LIG    1        1.245  -0.691  -0.013  0.00  0.00    +0.080 A 
ATOM     22  C   LIG    1        1.253  -2.099  -0.021  0.00  0.00    +0.060 A 
ATOM     23  C   LIG    1        0.076  -2.780  -0.014  0.00  0.00    +0.040 A 
ATOM     24  C   LIG    1       -1.144  -2.104   0.001  0.00  0.00    +0.060 A 
ATOM     25  C   LIG    1       -1.192  -0.744   0.009  0.00  0.00    +0.060 A 
ATOM     26  C   LIG    1        0.002  -0.004   0.002  0.00  0.00    +0.100 A 
ATOM     27  N   LIG    1       -0.016   1.334   0.009  0.00  0.00    -0.420 NA
ATOM     28  C   LIG    1        1.114   2.002   0.002  0.00  0.00    +0.320 A 
ENDBRANCH  17  19
ENDBRANCH  11  15
TORSDOF 2
