REMARK  Name = ZINCqH0000005fN2.0
REMARK                            x       y       z     vdW  Elec       q    Type
REMARK                         _______ _______ _______ _____ _____    ______ ____
ROOT
ATOM      1  C   LIG    1        3.203   4.444  -3.557  0.00  0.00    +0.270 C 
ATOM      2  N   LIG    1        3.357   5.575  -2.639  0.00  0.00    -0.620 N 
ATOM      3  C   LIG    1        2.286   6.056  -1.976  0.00  0.00    +0.520 C 
ATOM      4  O   LIG    1        2.413   6.992  -1.216  0.00  0.00    -0.490 OA
ENDROOT
BRANCH   3   5
ATOM      5  C   LIG    1        0.931   5.428  -2.178  0.00  0.00    +0.130 C 
ATOM      6  C   LIG    1        0.431   5.660  -3.626  0.00  0.00    +0.050 C 
ATOM      7  C   LIG    1       -1.104   5.548  -3.485  0.00  0.00    +0.020 C 
ATOM      8  C   LIG    1       -1.393   5.830  -1.998  0.00  0.00    +0.180 C 
ATOM      9  N   LIG    1       -0.094   6.115  -1.351  0.00  0.00    -0.480 NA
BRANCH   9  10
ATOM     10  C   LIG    1       -0.074   5.619   0.032  0.00  0.00    +0.270 C 
BRANCH  10  11
ATOM     11  C   LIG    1       -0.054   4.112   0.024  0.00  0.00    -0.130 A 
ATOM     12  C   LIG    1        1.153   3.438   0.009  0.00  0.00    +0.050 A 
ATOM     13  C   LIG    1        1.173   2.056   0.002  0.00  0.00    -0.010 A 
ATOM     14  C   LIG    1       -0.016   1.347   0.009  0.00  0.00    +0.100 A 
ATOM     15  C   LIG    1       -1.224   2.023   0.019  0.00  0.00    -0.010 A 
ATOM     16  F   LIG    1        0.002  -0.004   0.002  0.00  0.00    -0.140 F 
ATOM     17  C   LIG    1       -1.242   3.405   0.031  0.00  0.00    +0.050 A 
ENDBRANCH  10  11
ENDBRANCH   9  10
ENDBRANCH   3   5
BRANCH   2  18
ATOM     18  C   LIG    1        4.674   6.186  -2.443  0.00  0.00    +0.350 C 
BRANCH  18  19
ATOM     19  C   LIG    1        5.383   5.494  -1.307  0.00  0.00    -0.120 A 
ATOM     20  C   LIG    1        6.412   4.611  -1.572  0.00  0.00    +0.030 A 
ATOM     21  C   LIG    1        7.065   3.975  -0.528  0.00  0.00    +0.080 A 
ATOM     22  C   LIG    1        6.686   4.225   0.779  0.00  0.00    +0.030 A 
ATOM     23  C   LIG    1        5.656   5.108   1.044  0.00  0.00    +0.020 A 
ATOM     24  F   LIG    1        8.071   3.112  -0.787  0.00  0.00    -0.130 F 
ATOM     25  C   LIG    1        5.008   5.748   0.001  0.00  0.00    +0.110 A 
ATOM     26  F   LIG    1        4.005   6.616   0.260  0.00  0.00    -0.110 F 
ENDBRANCH  18  19
ENDBRANCH   2  18
TORSDOF 5
