REMARK  Name = ZINCpe000000VwAh.0
REMARK                            x       y       z     vdW  Elec       q    Type
REMARK                         _______ _______ _______ _____ _____    ______ ____
ROOT
ATOM      1  N   LIG    1        2.716   4.254  -0.412  0.00  0.00    -1.100 NA
ATOM      2  H   LIG    1        3.570   4.336   0.041  0.00  0.00    +0.430 HD
ENDROOT
BRANCH   1   3
ATOM      3  S   LIG    1        2.589   4.648  -2.016  0.00  0.00    +2.710 S 
ATOM      4  O   LIG    1        1.911   3.568  -2.642  0.00  0.00    -0.930 OA
ATOM      5  O   LIG    1        3.875   5.098  -2.421  0.00  0.00    -0.900 OA
BRANCH   3  11
ATOM      6  C   LIG    1        1.886   7.392  -1.935  0.00  0.00    -0.210 A 
ATOM      7  C   LIG    1        0.749   8.155  -2.113  0.00  0.00    +0.350 A 
ATOM      8  N   LIG    1       -0.258   7.314  -2.398  0.00  0.00    -0.440 N 
ATOM      9  H   LIG    1       -1.177   7.570  -2.573  0.00  0.00    +0.450 HD
ATOM     10  N   LIG    1        0.243   6.008  -2.407  0.00  0.00    -0.170 NA
ATOM     11  C   LIG    1        1.516   6.041  -2.127  0.00  0.00    -0.430 A 
BRANCH   6  12
ATOM     12  C   LIG    1        3.232   7.892  -1.607  0.00  0.00    +0.520 C 
ATOM     13  O   LIG    1        4.155   7.112  -1.476  0.00  0.00    -0.460 OA
BRANCH  12  15
ATOM     14  C   LIG    1        4.792   9.635  -1.128  0.00  0.00    +0.280 C 
ATOM     15  O   LIG    1        3.441   9.214  -1.451  0.00  0.00    -0.360 OA
ENDBRANCH  12  15
ENDBRANCH   6  12
ENDBRANCH   3  11
ENDBRANCH   1   3
BRANCH   1  16
ATOM     16  C   LIG    1        1.540   3.781   0.321  0.00  0.00    +0.300 C 
BRANCH  16  17
ATOM     17  C   LIG    1        1.532   2.274   0.341  0.00  0.00    -0.140 A 
ATOM     18  C   LIG    1        2.717   1.576   0.208  0.00  0.00    +0.100 A 
ATOM     19  C   LIG    1        2.712   0.194   0.227  0.00  0.00    -0.010 A 
ATOM     20  C   LIG    1        1.519  -0.493   0.377  0.00  0.00    +0.130 A 
ATOM     21  C   LIG    1        0.331   0.206   0.509  0.00  0.00    -0.040 A 
ATOM     22  F   LIG    1        1.515  -1.844   0.395  0.00  0.00    -0.130 F 
ATOM     23  C   LIG    1        0.338   1.590   0.491  0.00  0.00    +0.140 A 
ATOM     24  F   LIG    1       -0.821   2.272   0.615  0.00  0.00    -0.130 F 
ENDBRANCH  16  17
BRANCH  16  25
ATOM     25  C   LIG    1        1.587   4.309   1.756  0.00  0.00    +0.060 C 
BRANCH  25  26
ATOM     26  C   LIG    1        1.474   5.835   1.742  0.00  0.00    +0.170 C 
BRANCH  26  27
ATOM     27  O   LIG    1        1.630   6.337   3.071  0.00  0.00    -0.570 OA
ATOM     28  H   LIG    1        1.570   7.300   3.137  0.00  0.00    +0.380 HD
ENDBRANCH  26  27
ENDBRANCH  25  26
ENDBRANCH  16  25
ENDBRANCH   1  16
TORSDOF 9
