REMARK  Name = ZINCfA000001duBC.2
REMARK                            x       y       z     vdW  Elec       q    Type
REMARK                         _______ _______ _______ _____ _____    ______ ____
ROOT
ATOM      1  C   LIG    1        2.154   1.177   0.506  0.00  0.00    +0.170 C 
ATOM      2  C   LIG    1        0.700   0.683   0.657  0.00  0.00    +0.080 C 
ATOM      3  C   LIG    1       -0.025   1.361  -0.535  0.00  0.00    +0.080 C 
ATOM      4  C   LIG    1        0.704   2.726  -0.609  0.00  0.00    +0.250 C 
ATOM      5  N   LIG    1        2.114   2.419  -0.287  0.00  0.00    -0.390 N 
ATOM      6  H   LIG    1        2.638   2.295  -1.140  0.00  0.00    +0.430 HD
ENDROOT
BRANCH   1   8
ATOM      7  C   LIG    1        1.683   2.063   2.794  0.00  0.00    +0.050 C 
ATOM      8  C   LIG    1        2.755   1.459   1.885  0.00  0.00    -0.020 C 
ATOM      9  C   LIG    1        3.264   0.152   2.496  0.00  0.00    +0.070 C 
ENDBRANCH   1   8
BRANCH   5  10
ATOM     10  C   LIG    1        2.694   3.522   0.492  0.00  0.00    +0.380 C 
BRANCH  10  11
ATOM     11  C   LIG    1        2.761   4.760  -0.364  0.00  0.00    -0.020 A 
ATOM     12  N   LIG    1        1.843   5.676  -0.485  0.00  0.00    -0.310 NA
ATOM     13  O   LIG    1        2.184   6.551  -1.245  0.00  0.00    +0.140 OA
ATOM     14  C   LIG    1        3.409   6.323  -1.742  0.00  0.00    +0.270 A 
ATOM     15  C   LIG    1        3.836   5.162  -1.191  0.00  0.00    -0.220 A 
ATOM     16 BR   LIG    1        5.486   4.279  -1.466  0.00  0.00    +0.050 Br
ENDBRANCH  10  11
ENDBRANCH   5  10
TORSDOF 3
