REMARK  Name = ZINCfA000001duBC.1
REMARK                            x       y       z     vdW  Elec       q    Type
REMARK                         _______ _______ _______ _____ _____    ______ ____
ROOT
ATOM      1  C   LIG    1        1.279  -0.453  -0.583  0.00  0.00    +0.160 C 
ATOM      2  C   LIG    1        2.093   0.811  -0.929  0.00  0.00    +0.090 C 
ATOM      3  C   LIG    1        1.474   1.890  -0.002  0.00  0.00    +0.080 C 
ATOM      4  C   LIG    1       -0.018   1.474   0.010  0.00  0.00    +0.240 C 
ATOM      5  N   LIG    1        0.002  -0.004   0.002  0.00  0.00    -0.390 N 
ATOM      6  H   LIG    1       -0.766  -0.351  -0.552  0.00  0.00    +0.420 HD
ENDROOT
BRANCH   1   8
ATOM      7  C   LIG    1        2.343  -1.725  -2.452  0.00  0.00    +0.070 C 
ATOM      8  C   LIG    1        1.012  -1.264  -1.853  0.00  0.00    -0.010 C 
ATOM      9  C   LIG    1        0.158  -2.486  -1.507  0.00  0.00    +0.040 C 
ENDBRANCH   1   8
BRANCH   5  10
ATOM     10  C   LIG    1       -0.116  -0.508   1.377  0.00  0.00    +0.380 C 
BRANCH  10  11
ATOM     11  C   LIG    1       -1.477  -0.163   1.923  0.00  0.00    -0.020 A 
ATOM     12  N   LIG    1       -2.556  -0.887   1.844  0.00  0.00    -0.310 NA
ATOM     13  O   LIG    1       -3.496  -0.346   2.377  0.00  0.00    +0.140 OA
ATOM     14  C   LIG    1       -3.153   0.842   2.894  0.00  0.00    +0.270 A 
ATOM     15  C   LIG    1       -1.835   1.009   2.630  0.00  0.00    -0.230 A 
ATOM     16 BR   LIG    1       -0.730   2.472   3.093  0.00  0.00    +0.060 Br
ENDBRANCH  10  11
ENDBRANCH   5  10
TORSDOF 3
