REMARK  Name = ZINCtV000002PVi2.0
REMARK                            x       y       z     vdW  Elec       q    Type
REMARK                         _______ _______ _______ _____ _____    ______ ____
ROOT
ATOM      1  C   LIG    1        4.961   1.632   0.653  0.00  0.00    +0.180 A 
ATOM      2  C   LIG    1        3.659   2.107   0.332  0.00  0.00    -0.150 A 
ATOM      3  C   LIG    1        3.432   3.491   0.272  0.00  0.00    +0.090 A 
ATOM      4  S   LIG    1        1.763   3.795  -0.139  0.00  0.00    +0.210 S 
ATOM      5  C   LIG    1        1.395   2.078  -0.224  0.00  0.00    -0.160 A 
ATOM      6  C   LIG    1        0.025   1.515  -0.559  0.00  0.00    +0.130 C 
ATOM      7  C   LIG    1        0.175   0.042  -0.945  0.00  0.00    +0.030 C 
ATOM      8  C   LIG    1        1.002  -0.670   0.130  0.00  0.00    +0.030 C 
ATOM      9  C   LIG    1        2.452  -0.193   0.043  0.00  0.00    +0.100 C 
ATOM     10  N   LIG    1        4.418   4.364   0.510  0.00  0.00    -0.450 NA
ATOM     11  C   LIG    1        5.616   3.867   0.805  0.00  0.00    +0.400 A 
ATOM     12  C   LIG    1        2.473   1.331   0.044  0.00  0.00    -0.080 A 
ATOM     13  N   LIG    1        5.880   2.570   0.874  0.00  0.00    -0.530 NA
ENDROOT
BRANCH  11  14
ATOM     14  C   LIG    1        6.721   4.819   1.071  0.00  0.00    -0.100 A 
ATOM     15  C   LIG    1        7.952   4.363   1.551  0.00  0.00    +0.120 A 
ATOM     16  C   LIG    1        8.951   5.293   1.783  0.00  0.00    -0.040 A 
ATOM     17  C   LIG    1        8.702   6.630   1.535  0.00  0.00    +0.280 A 
ATOM     18  N   LIG    1        7.530   7.031   1.082  0.00  0.00    -0.480 NA
ATOM     19  C   LIG    1        6.551   6.184   0.841  0.00  0.00    +0.330 A 
ENDBRANCH  11  14
BRANCH   1  20
ATOM     20  S   LIG    1        5.333  -0.087   0.752  0.00  0.00    +0.250 S 
BRANCH  20  26
ATOM     21  C   LIG    1       11.496  -1.328   1.672  0.00  0.00    +0.030 A 
ATOM     22  C   LIG    1       11.822   0.015   1.552  0.00  0.00    +0.040 A 
ATOM     23  C   LIG    1       10.833   0.945   1.317  0.00  0.00    +0.050 A 
ATOM     24  C   LIG    1        9.506   0.542   1.200  0.00  0.00    -0.220 A 
ATOM     25  S   LIG    1        8.035   1.464   0.898  0.00  0.00    +0.210 S 
ATOM     26  C   LIG    1        7.081  -0.011   0.962  0.00  0.00    +0.010 A 
ATOM     27  N   LIG    1        7.841  -1.029   1.179  0.00  0.00    -0.430 NA
ATOM     28  C   LIG    1        9.164  -0.809   1.318  0.00  0.00    +0.080 A 
ATOM     29  C   LIG    1       10.193  -1.743   1.558  0.00  0.00    +0.070 A 
ENDBRANCH  20  26
ENDBRANCH   1  20
TORSDOF 3
