REMARK  Name = ZINCkj00000y7D49.0
REMARK                            x       y       z     vdW  Elec       q    Type
REMARK                         _______ _______ _______ _____ _____    ______ ____
ROOT
ATOM      1  C   LIG    1        0.520   2.817  -4.838  0.00  0.00    +0.050 C 
ATOM      2  C   LIG    1        0.024   4.027  -4.029  0.00  0.00    +0.150 C 
ATOM      3  C   LIG    1       -0.749   3.026  -3.154  0.00  0.00    +0.140 C 
ATOM      4  C   LIG    1       -0.750   2.082  -4.368  0.00  0.00    +0.130 C 
ENDROOT
BRANCH   1   5
ATOM      5  C   LIG    1        0.562   3.061  -6.325  0.00  0.00    -0.100 A 
ATOM      6  C   LIG    1        1.251   4.148  -6.828  0.00  0.00    +0.030 A 
ATOM      7  C   LIG    1        1.293   4.369  -8.192  0.00  0.00    +0.020 A 
ATOM      8  C   LIG    1        0.637   3.508  -9.052  0.00  0.00    +0.030 A 
ATOM      9  C   LIG    1       -0.057   2.423  -8.548  0.00  0.00    +0.020 A 
ATOM     10  C   LIG    1       -0.095   2.200  -7.185  0.00  0.00    +0.030 A 
ENDBRANCH   1   5
BRANCH   3  11
ATOM     11  N   LIG    1        0.028   2.519  -2.015  0.00  0.00    -0.490 N 
ATOM     12  H   LIG    1        0.823   1.999  -2.355  0.00  0.00    +0.420 HD
ATOM     13  H   LIG    1        0.348   3.294  -1.454  0.00  0.00    +0.440 HD
BRANCH  11  14
ATOM     14  C   LIG    1       -0.819   1.639  -1.198  0.00  0.00    +0.010 C 
ATOM     15  C   LIG    1       -0.025   1.091   0.009  0.00  0.00    +0.060 C 
ATOM     16  C   LIG    1       -0.791   1.625   1.240  0.00  0.00    +0.250 C 
ATOM     17  O   LIG    1       -1.490   2.796   0.758  0.00  0.00    -0.360 OA
ATOM     18  C   LIG    1       -1.974   2.439  -0.555  0.00  0.00    +0.270 C 
BRANCH  14  19
ATOM     19  C   LIG    1       -1.369   0.490  -2.045  0.00  0.00    +0.220 C 
BRANCH  19  20
ATOM     20  O   LIG    1       -2.224  -0.326  -1.241  0.00  0.00    -0.550 OA
ATOM     21  H   LIG    1       -2.610  -1.077  -1.714  0.00  0.00    +0.410 HD
ENDBRANCH  19  20
ENDBRANCH  14  19
ENDBRANCH  11  14
ENDBRANCH   3  11
BRANCH   1  23
ATOM     22  N   LIG    1        2.730   1.781  -3.920  0.00  0.00    -0.370 NA
ATOM     23  C   LIG    1        1.768   2.232  -4.320  0.00  0.00    +0.180 C 
ENDBRANCH   1  23
TORSDOF 6
