REMARK  Name = ZINCrH000004tU3k.0
REMARK                            x       y       z     vdW  Elec       q    Type
REMARK                         _______ _______ _______ _____ _____    ______ ____
ROOT
ATOM      1  O   LIG    1       -1.736   2.268  -1.088  0.00  0.00    -0.530 OA
ATOM      2  C   LIG    1       -0.742   1.585  -1.213  0.00  0.00    +0.520 C 
ATOM      3  N   LIG    1       -0.288   1.272  -2.443  0.00  0.00    -0.730 N 
ATOM      4  H   LIG    1        0.507   0.726  -2.543  0.00  0.00    +0.400 HD
ENDROOT
BRANCH   3   5
ATOM      5  C   LIG    1       -0.997   1.758  -3.630  0.00  0.00    +0.260 C 
BRANCH   5   6
ATOM      6  C   LIG    1       -0.281   1.264  -4.889  0.00  0.00    +0.090 C 
BRANCH   6   7
ATOM      7  C   LIG    1       -1.010   1.763  -6.110  0.00  0.00    -0.060 A 
ATOM      8  C   LIG    1       -1.931   0.974  -6.725  0.00  0.00    +0.030 A 
ATOM      9  C   LIG    1       -2.621   1.418  -7.852  0.00  0.00    +0.020 A 
ATOM     10  C   LIG    1       -2.383   2.652  -8.375  0.00  0.00    +0.030 A 
ATOM     11  C   LIG    1       -1.434   3.491  -7.769  0.00  0.00    -0.100 A 
ATOM     12  C   LIG    1       -1.159   4.774  -8.280  0.00  0.00    +0.080 A 
ATOM     13  C   LIG    1       -0.223   5.535  -7.639  0.00  0.00    -0.030 A 
ATOM     14  C   LIG    1        0.428   5.035  -6.513  0.00  0.00    +0.290 A 
ATOM     15  N   LIG    1        0.168   3.840  -6.041  0.00  0.00    -0.470 NA
ATOM     16  C   LIG    1       -0.736   3.045  -6.620  0.00  0.00    +0.130 A 
ENDBRANCH   6   7
ENDBRANCH   5   6
ENDBRANCH   3   5
BRANCH   2  17
ATOM     17  C   LIG    1       -0.013   1.086   0.008  0.00  0.00    +0.070 C 
BRANCH  17  18
ATOM     18  C   LIG    1       -0.729   1.579   1.267  0.00  0.00    +0.000 C 
ATOM     19  C   LIG    1       -0.069   0.975   2.513  0.00  0.00    +0.040 C 
ATOM     20  C   LIG    1       -0.845   1.404   3.756  0.00  0.00    +0.090 C 
ATOM     21  C   LIG    1       -0.973   2.901   3.829  0.00  0.00    -0.040 A 
ATOM     22  C   LIG    1       -1.208   3.498   5.053  0.00  0.00    -0.010 A 
ATOM     23  C   LIG    1       -1.334   4.872   5.149  0.00  0.00    +0.040 A 
ATOM     24  C   LIG    1       -1.227   5.667   4.022  0.00  0.00    -0.010 A 
ATOM     25  C   LIG    1       -0.991   5.089   2.792  0.00  0.00    +0.070 A 
ATOM     26  C   LIG    1       -0.861   3.701   2.690  0.00  0.00    -0.160 A 
ATOM     27  C   LIG    1       -0.603   3.085   1.374  0.00  0.00    +0.400 C 
ATOM     28  O   LIG    1       -0.302   3.760   0.413  0.00  0.00    -0.430 OA
ENDBRANCH  17  18
ENDBRANCH   2  17
TORSDOF 5
