REMARK  Name = ZINCvU0000000Hgj.0
REMARK                            x       y       z     vdW  Elec       q    Type
REMARK                         _______ _______ _______ _____ _____    ______ ____
ROOT
ATOM      1  C   LIG    1      -11.447  -5.390  -0.625  0.00  0.00    +0.110 C 
ATOM      2  C   LIG    1      -10.790  -4.039  -0.508  0.00  0.00    -0.010 A 
ATOM      3  C   LIG    1      -11.573  -2.893  -0.502  0.00  0.00    -0.020 A 
ATOM      4  C   LIG    1      -10.995  -1.659  -0.397  0.00  0.00    +0.100 A 
ATOM      5  C   LIG    1       -9.604  -1.549  -0.293  0.00  0.00    -0.140 A 
ATOM      6  C   LIG    1       -8.806  -2.707  -0.298  0.00  0.00    +0.210 A 
ATOM      7  N   LIG    1       -7.434  -2.615  -0.197  0.00  0.00    -0.630 N 
ATOM      8  H   LIG    1       -6.904  -3.428  -0.202  0.00  0.00    +0.420 HD
ATOM      9  C   LIG    1       -6.809  -1.429  -0.097  0.00  0.00    +0.560 A 
ATOM     10  C   LIG    1       -7.570  -0.178  -0.079  0.00  0.00    -0.260 A 
ATOM     11  O   LIG    1       -5.594  -1.395  -0.015  0.00  0.00    -0.510 OA
ATOM     12  C   LIG    1       -8.966  -0.231  -0.179  0.00  0.00    +0.140 A 
ATOM     13  C   LIG    1       -9.418  -3.953  -0.406  0.00  0.00    -0.030 A 
ENDROOT
BRANCH  12  14
ATOM     14  C   LIG    1       -9.774   1.004  -0.172  0.00  0.00    -0.070 A 
ATOM     15  C   LIG    1      -10.665   1.254   0.876  0.00  0.00    +0.030 A 
ATOM     16  C   LIG    1      -11.412   2.413   0.879  0.00  0.00    +0.010 A 
ATOM     17  C   LIG    1      -11.290   3.322  -0.157  0.00  0.00    +0.020 A 
ATOM     18  C   LIG    1      -10.414   3.079  -1.200  0.00  0.00    +0.010 A 
ATOM     19  C   LIG    1       -9.656   1.927  -1.214  0.00  0.00    +0.060 A 
ENDBRANCH  12  14
BRANCH  10  20
ATOM     20  C   LIG    1       -6.879   1.113   0.037  0.00  0.00    +0.440 C 
ATOM     21  O   LIG    1       -7.522   2.138   0.178  0.00  0.00    -0.440 OA
BRANCH  20  22
ATOM     22  C   LIG    1       -5.414   1.169  -0.018  0.00  0.00    +0.020 C 
ATOM     23  C   LIG    1       -4.774   2.337   0.203  0.00  0.00    +0.100 C 
BRANCH  23  24
ATOM     24  C   LIG    1       -3.308   2.392   0.147  0.00  0.00    +0.300 A 
ATOM     25  N   LIG    1       -2.522   1.372  -0.106  0.00  0.00    -0.460 NA
ATOM     26  C   LIG    1       -1.237   1.770  -0.080  0.00  0.00    +0.050 A 
ATOM     27  C   LIG    1       -0.020   1.106  -0.278  0.00  0.00    +0.070 A 
ATOM     28  C   LIG    1        1.154   1.796  -0.191  0.00  0.00    +0.000 A 
ATOM     29  C   LIG    1        1.159   3.154   0.099  0.00  0.00    +0.030 A 
ATOM     30  C   LIG    1       -0.025   3.830   0.303  0.00  0.00    +0.010 A 
ATOM     31  C   LIG    1       -1.231   3.147   0.219  0.00  0.00    +0.050 A 
ATOM     32  N   LIG    1       -2.551   3.516   0.364  0.00  0.00    -0.590 N 
ATOM     33  H   LIG    1       -2.883   4.404   0.570  0.00  0.00    +0.430 HD
ENDBRANCH  23  24
ENDBRANCH  20  22
ENDBRANCH  10  20
TORSDOF 4
