REMARK  Name = ZINCrD0000074AQU.0
REMARK                            x       y       z     vdW  Elec       q    Type
REMARK                         _______ _______ _______ _____ _____    ______ ____
ROOT
ATOM      1  C   LIG    1       -5.942   2.502  -0.427  0.00  0.00    +0.040 C 
ATOM      2  C   LIG    1       -5.222   3.754   0.126  0.00  0.00    +0.110 C 
ATOM      3  C   LIG    1       -3.761   3.361   0.152  0.00  0.00    +0.520 C 
ATOM      4  N   LIG    1       -3.640   2.027   0.048  0.00  0.00    -0.560 N 
ATOM      5  O   LIG    1       -2.835   4.138   0.253  0.00  0.00    -0.500 OA
ATOM      6  C   LIG    1       -4.952   1.378  -0.055  0.00  0.00    +0.310 C 
ENDROOT
BRANCH   4   7
ATOM      7  C   LIG    1       -2.418   1.344   0.032  0.00  0.00    +0.160 A 
ATOM      8  C   LIG    1       -2.396  -0.044   0.042  0.00  0.00    -0.030 A 
ATOM      9  C   LIG    1       -1.188  -0.712   0.026  0.00  0.00    +0.050 A 
ATOM     10  C   LIG    1        0.002  -0.004   0.002  0.00  0.00    -0.120 A 
ATOM     11  C   LIG    1        1.434  -0.496  -0.018  0.00  0.00    +0.070 C 
ATOM     12  C   LIG    1        2.285   0.722   0.400  0.00  0.00    +0.030 C 
ATOM     13  C   LIG    1        1.401   1.910  -0.034  0.00  0.00    +0.080 C 
ATOM     14  C   LIG    1       -0.017   1.379  -0.007  0.00  0.00    -0.070 A 
ATOM     15  C   LIG    1       -1.225   2.053   0.003  0.00  0.00    +0.010 A 
ENDBRANCH   4   7
BRANCH   1  16
ATOM     16  C   LIG    1       -7.272   2.301   0.252  0.00  0.00    +0.480 C 
ATOM     17  O   LIG    1       -7.479   1.295   0.889  0.00  0.00    -0.490 OA
BRANCH  16  18
ATOM     18  O   LIG    1       -8.227   3.239   0.149  0.00  0.00    -0.330 OA
BRANCH  18  19
ATOM     19  C   LIG    1       -9.483   2.978   0.828  0.00  0.00    +0.240 C 
BRANCH  19  20
ATOM     20  C   LIG    1      -10.425   4.132   0.602  0.00  0.00    +0.430 C 
ATOM     21  O   LIG    1      -10.072   5.082  -0.067  0.00  0.00    -0.420 OA
BRANCH  20  26
ATOM     22  C   LIG    1      -15.035   3.120   3.124  0.00  0.00    +0.150 C 
ATOM     23  C   LIG    1      -13.858   3.639   2.339  0.00  0.00    -0.170 A 
ATOM     24  C   LIG    1      -13.836   4.812   1.690  0.00  0.00    -0.020 A 
ATOM     25  C   LIG    1      -12.664   5.094   1.035  0.00  0.00    +0.140 A 
ATOM     26  C   LIG    1      -11.719   4.109   1.168  0.00  0.00    -0.320 A 
ATOM     27  S   LIG    1      -12.380   2.808   2.151  0.00  0.00    +0.220 S 
ENDBRANCH  20  26
ENDBRANCH  19  20
ENDBRANCH  18  19
ENDBRANCH  16  18
ENDBRANCH   1  16
TORSDOF 6
