REMARK  Name = ZINC650000002L4L.0
REMARK                            x       y       z     vdW  Elec       q    Type
REMARK                         _______ _______ _______ _____ _____    ______ ____
ROOT
ATOM      1  C   LIG    1       -1.330   1.951   0.019  0.00  0.00    +0.100 C 
ENDROOT
BRANCH   1   3
ATOM      2  O   LIG    1        0.002  -0.004   0.002  0.00  0.00    -0.680 OA
ATOM      3  C   LIG    1       -0.015   1.215   0.009  0.00  0.00    +0.500 C 
ATOM      4  O   LIG    1        1.033   1.839   0.002  0.00  0.00    -0.690 OA
ENDBRANCH   1   3
BRANCH   1   5
ATOM      5  N   LIG    1       -2.433   0.981   0.019  0.00  0.00    -0.470 NA
ATOM      6  H   LIG    1       -2.361   0.351  -0.766  0.00  0.00    +0.340 HD
BRANCH   5   7
ATOM      7  O   LIG    1       -3.728   1.661   0.029  0.00  0.00    -0.460 OA
ATOM      8  H   LIG    1       -4.487   1.062   0.029  0.00  0.00    +0.370 HD
ENDBRANCH   5   7
ENDBRANCH   1   5
TORSDOF 3
