REMARK  Name = ZINCpk00000y6v1p.0
REMARK                            x       y       z     vdW  Elec       q    Type
REMARK                         _______ _______ _______ _____ _____    ______ ____
ROOT
ATOM      1  N   LIG    1        3.976   4.934   1.357  0.00  0.00    -0.670 N 
ATOM      2  H   LIG    1        4.126   5.701   0.783  0.00  0.00    +0.410 HD
ATOM      3  C   LIG    1        2.994   4.058   1.068  0.00  0.00    +0.520 C 
ATOM      4  O   LIG    1        2.867   3.049   1.730  0.00  0.00    -0.490 OA
ENDROOT
BRANCH   1   9
ATOM      5  C   LIG    1        9.245   5.750   3.086  0.00  0.00    +0.160 C 
ATOM      6  C   LIG    1        8.190   5.132   3.966  0.00  0.00    +0.130 A 
ATOM      7  C   LIG    1        6.873   4.898   3.617  0.00  0.00    -0.240 A 
ATOM      8  C   LIG    1        6.096   5.112   2.458  0.00  0.00    +0.110 A 
ATOM      9  C   LIG    1        4.781   4.738   2.488  0.00  0.00    +0.060 A 
ATOM     10  C   LIG    1        4.230   4.164   3.641  0.00  0.00    +0.380 A 
ATOM     11  N   LIG    1        4.932   3.950   4.723  0.00  0.00    -0.460 NA
ATOM     12  C   LIG    1        6.230   4.285   4.790  0.00  0.00    +0.260 A 
ATOM     13  N   LIG    1        7.159   4.195   5.725  0.00  0.00    -0.290 NA
ATOM     14  N   LIG    1        8.360   4.712   5.227  0.00  0.00    -0.410 N 
ATOM     15  H   LIG    1        9.194   4.759   5.721  0.00  0.00    +0.450 HD
ENDBRANCH   1   9
BRANCH   3  16
ATOM     16  C   LIG    1        2.054   4.331  -0.077  0.00  0.00    +0.180 C 
BRANCH  16  17
ATOM     17  C   LIG    1        1.056   3.207  -0.187  0.00  0.00    +0.110 A 
ATOM     18  C   LIG    1       -0.263   3.408  -0.172  0.00  0.00    -0.090 A 
ATOM     19  S   LIG    1       -1.056   1.843  -0.330  0.00  0.00    +0.130 S 
ATOM     20  C   LIG    1        0.465   1.066  -0.393  0.00  0.00    +0.310 A 
ATOM     21  N   LIG    1        1.417   1.942  -0.307  0.00  0.00    -0.460 NA
BRANCH  20  22
ATOM     22  N   LIG    1        0.654  -0.305  -0.523  0.00  0.00    -0.540 N 
ATOM     23  C   LIG    1       -0.417  -1.308  -0.616  0.00  0.00    +0.280 C 
ATOM     24  C   LIG    1        0.338  -2.644  -0.747  0.00  0.00    +0.280 C 
ATOM     25  N   LIG    1        1.755  -2.253  -0.706  0.00  0.00    -0.740 N 
ATOM     26  H   LIG    1        2.508  -2.862  -0.762  0.00  0.00    +0.440 HD
ATOM     27  C   LIG    1        1.841  -0.923  -0.579  0.00  0.00    +0.700 C 
ATOM     28  O   LIG    1        2.901  -0.330  -0.519  0.00  0.00    -0.520 OA
ENDBRANCH  20  22
ENDBRANCH  16  17
ENDBRANCH   3  16
TORSDOF 4
