REMARK  Name = ZINCtV000002wB3H.0
REMARK                            x       y       z     vdW  Elec       q    Type
REMARK                         _______ _______ _______ _____ _____    ______ ____
ROOT
ATOM      1  C   LIG    1       -2.300  -2.471   0.009  0.00  0.00    -0.190 A 
ATOM      2  C   LIG    1       -2.705  -2.493   1.315  0.00  0.00    +0.040 A 
ATOM      3  S   LIG    1       -4.136  -3.399   1.487  0.00  0.00    +0.310 S 
ATOM      4  C   LIG    1       -4.209  -3.766  -0.229  0.00  0.00    -0.240 A 
ATOM      5  C   LIG    1       -5.290  -4.598  -0.892  0.00  0.00    +0.120 C 
ATOM      6  C   LIG    1       -5.246  -4.348  -2.402  0.00  0.00    -0.010 C 
ATOM      7  C   LIG    1       -6.151  -5.355  -3.115  0.00  0.00    +0.030 C 
ATOM      8  C   LIG    1       -3.805  -4.514  -2.894  0.00  0.00    +0.030 C 
ATOM      9  C   LIG    1       -2.960  -3.348  -2.376  0.00  0.00    +0.100 C 
ATOM     10  C   LIG    1       -3.182  -3.207  -0.879  0.00  0.00    -0.040 A 
ENDROOT
BRANCH   2  11
ATOM     11  N   LIG    1       -2.042  -1.864   2.357  0.00  0.00    -0.630 N 
ATOM     12  H   LIG    1       -1.229  -1.363   2.182  0.00  0.00    +0.420 HD
ATOM     13  C   LIG    1       -2.525  -1.947   3.612  0.00  0.00    +0.500 C 
ATOM     14  O   LIG    1       -3.541  -2.572   3.830  0.00  0.00    -0.470 OA
BRANCH  13  15
ATOM     15  C   LIG    1       -1.804  -1.262   4.745  0.00  0.00    +0.000 C 
ATOM     16  C   LIG    1       -0.617  -2.120   5.186  0.00  0.00    +0.120 C 
BRANCH  15  17
ATOM     17  S   LIG    1       -2.942  -1.040   6.140  0.00  0.00    +0.020 S 
BRANCH  17  18
ATOM     18  C   LIG    1       -4.078   0.164   5.537  0.00  0.00    -0.080 A 
ATOM     19  C   LIG    1       -3.865   0.766   4.303  0.00  0.00    +0.010 A 
ATOM     20  C   LIG    1       -4.761   1.707   3.831  0.00  0.00    -0.010 A 
ATOM     21  C   LIG    1       -5.864   2.056   4.590  0.00  0.00    +0.050 A 
ATOM     22  C   LIG    1       -6.077   1.462   5.822  0.00  0.00    +0.080 A 
ATOM     23 CL   LIG    1       -4.500   2.455   2.287  0.00  0.00    -0.050 Cl
ATOM     24  C   LIG    1       -5.188   0.518   6.297  0.00  0.00    -0.020 A 
ATOM     25 CL   LIG    1       -5.454  -0.226   7.843  0.00  0.00    -0.040 Cl
ENDBRANCH  17  18
ENDBRANCH  15  17
ENDBRANCH  13  15
ENDBRANCH   2  11
BRANCH   1  26
ATOM     26  C   LIG    1       -1.099  -1.770  -0.449  0.00  0.00    +0.540 C 
ATOM     27  O   LIG    1       -0.030  -2.350  -0.478  0.00  0.00    -0.490 OA
BRANCH  26  28
ATOM     28  O   LIG    1       -1.178  -0.481  -0.840  0.00  0.00    -0.350 OA
BRANCH  28  30
ATOM     29  C   LIG    1       -0.234   1.599  -1.683  0.00  0.00    +0.070 C 
ATOM     30  C   LIG    1        0.052   0.150  -1.282  0.00  0.00    +0.200 C 
ENDBRANCH  28  30
ENDBRANCH  26  28
ENDBRANCH   1  26
TORSDOF 7
