REMARK  Name = ZINCxy0000000k81.0
REMARK                            x       y       z     vdW  Elec       q    Type
REMARK                         _______ _______ _______ _____ _____    ______ ____
ROOT
ATOM      1  N   LIG    1        4.896  -4.291   1.053  0.00  0.00    -0.990 NA
ATOM      2  C   LIG    1        3.632  -5.037   1.125  0.00  0.00    +0.310 C 
ATOM      3  C   LIG    1        2.639  -4.415   0.136  0.00  0.00    +0.280 C 
ATOM      4  N   LIG    1        2.616  -2.961   0.345  0.00  0.00    -0.590 N 
ATOM      5  C   LIG    1        3.879  -2.214   0.268  0.00  0.00    +0.260 C 
ATOM      6  C   LIG    1        1.456  -2.323   0.598  0.00  0.00    +0.560 C 
ATOM      7  O   LIG    1        0.435  -2.961   0.763  0.00  0.00    -0.540 OA
ATOM      8  C   LIG    1        4.873  -2.837   1.262  0.00  0.00    +0.280 C 
ENDROOT
BRANCH   6   9
ATOM      9  C   LIG    1        1.426  -0.847   0.675  0.00  0.00    -0.120 A 
ATOM     10  C   LIG    1        0.633  -0.211   1.631  0.00  0.00    +0.060 A 
ATOM     11  C   LIG    1        0.610   1.167   1.698  0.00  0.00    +0.000 A 
ATOM     12  C   LIG    1        1.370   1.918   0.819  0.00  0.00    -0.060 A 
ATOM     13  C   LIG    1        2.158   1.294  -0.131  0.00  0.00    +0.000 A 
ATOM     14  C   LIG    1        2.191  -0.083  -0.208  0.00  0.00    +0.050 A 
BRANCH  12  15
ATOM     15  C   LIG    1        1.340   3.423   0.898  0.00  0.00    -0.030 C 
ATOM     16  C   LIG    1       -0.090   3.917   0.668  0.00  0.00    +0.040 C 
ATOM     17  C   LIG    1        2.260   4.008  -0.175  0.00  0.00    +0.030 C 
ATOM     18  C   LIG    1        1.818   3.871   2.280  0.00  0.00    +0.040 C 
ENDBRANCH  12  15
ENDBRANCH   6   9
BRANCH   1  19
ATOM     19  S   LIG    1        6.321  -5.075   0.741  0.00  0.00    +2.710 S 
ATOM     20  O   LIG    1        6.129  -6.428   1.131  0.00  0.00    -0.890 OA
ATOM     21  O   LIG    1        7.354  -4.254   1.267  0.00  0.00    -0.990 OA
BRANCH  19  26
ATOM     22  C   LIG    1        5.770  -6.676  -4.307  0.00  0.00    +0.130 C 
ATOM     23  C   LIG    1        6.286  -5.798  -3.196  0.00  0.00    -0.080 A 
ATOM     24  C   LIG    1        7.104  -4.745  -3.406  0.00  0.00    -0.210 A 
ATOM     25  S   LIG    1        7.483  -3.966  -1.878  0.00  0.00    +0.220 S 
ATOM     26  C   LIG    1        6.537  -5.088  -1.008  0.00  0.00    -0.830 A 
ATOM     27  C   LIG    1        5.965  -5.996  -1.859  0.00  0.00    -0.020 A 
BRANCH  24  28
ATOM     28  C   LIG    1        7.597  -4.313  -4.714  0.00  0.00    +0.550 C 
ATOM     29  O   LIG    1        8.338  -3.341  -4.799  0.00  0.00    -0.690 OA
ATOM     30  O   LIG    1        7.269  -4.922  -5.724  0.00  0.00    -0.660 OA
ENDBRANCH  24  28
BRANCH  27  31
ATOM     31  C   LIG    1        5.089  -7.082  -1.399  0.00  0.00    +0.520 C 
ATOM     32  O   LIG    1        4.627  -7.879  -2.204  0.00  0.00    -0.670 OA
ATOM     33  O   LIG    1        4.822  -7.191  -0.209  0.00  0.00    -0.640 OA
ENDBRANCH  27  31
ENDBRANCH  19  26
ENDBRANCH   1  19
TORSDOF 6
