REMARK  Name = ZINCpk00000eb3Me.0
REMARK                            x       y       z     vdW  Elec       q    Type
REMARK                         _______ _______ _______ _____ _____    ______ ____
ROOT
ATOM      1  C   LIG    1        0.058  -2.789   0.092  0.00  0.00    +0.630 A 
ATOM      2  N   LIG    1        0.086  -4.116   0.185  0.00  0.00    -0.610 NA
ATOM      3  C   LIG    1       -1.042  -4.797   0.292  0.00  0.00    +0.430 A 
ATOM      4  N   LIG    1       -2.201  -4.163   0.308  0.00  0.00    -0.610 NA
ATOM      5  C   LIG    1       -2.237  -2.835   0.215  0.00  0.00    +0.630 A 
ATOM      6  N   LIG    1       -1.105  -2.148   0.112  0.00  0.00    -0.630 NA
ENDROOT
BRANCH   5   7
ATOM      7  N   LIG    1       -3.449  -2.174   0.231  0.00  0.00    -0.800 N 
ATOM      8  H   LIG    1       -3.474  -1.207   0.163  0.00  0.00    +0.420 HD
ATOM      9  H   LIG    1       -4.274  -2.677   0.310  0.00  0.00    +0.420 HD
ENDBRANCH   5   7
BRANCH   1  10
ATOM     10  N   LIG    1        1.237  -2.079  -0.020  0.00  0.00    -0.620 N 
ATOM     11  H   LIG    1        2.089  -2.537   0.059  0.00  0.00    +0.430 HD
BRANCH  10  18
ATOM     12  C   LIG    1        3.394  -0.502   0.960  0.00  0.00    +0.080 C 
ATOM     13  C   LIG    1        2.236   0.108   0.214  0.00  0.00    -0.110 A 
ATOM     14  C   LIG    1        2.200   1.469  -0.012  0.00  0.00    +0.030 A 
ATOM     15  C   LIG    1        1.137   2.030  -0.698  0.00  0.00    -0.010 A 
ATOM     16  C   LIG    1        0.108   1.230  -1.159  0.00  0.00    +0.010 A 
ATOM     17  C   LIG    1        0.139  -0.133  -0.936  0.00  0.00    +0.030 A 
ATOM     18  C   LIG    1        1.204  -0.699  -0.248  0.00  0.00    +0.160 A 
ENDBRANCH  10  18
ENDBRANCH   1  10
BRANCH   3  19
ATOM     19  C   LIG    1       -1.006  -6.300   0.398  0.00  0.00    +0.360 C 
BRANCH  19  20
ATOM     20  O   LIG    1       -0.924  -6.679   1.773  0.00  0.00    -0.340 OA
BRANCH  20  21
ATOM     21  C   LIG    1       -0.883  -8.000   2.043  0.00  0.00    +0.530 C 
ATOM     22  O   LIG    1       -0.915  -8.808   1.134  0.00  0.00    -0.480 OA
BRANCH  21  23
ATOM     23  C   LIG    1       -0.800  -8.461   3.428  0.00  0.00    -0.070 C 
ATOM     24  C   LIG    1       -0.765  -7.558   4.418  0.00  0.00    +0.250 C 
ATOM     25  O   LIG    1       -0.681  -7.929   5.713  0.00  0.00    -0.300 OA
ATOM     26  C   LIG    1       -1.009  -9.290   6.017  0.00  0.00    +0.230 C 
ATOM     27  C   LIG    1       -0.312 -10.189   4.986  0.00  0.00    +0.230 C 
ATOM     28  O   LIG    1       -0.764  -9.799   3.683  0.00  0.00    -0.290 OA
ENDBRANCH  21  23
ENDBRANCH  20  21
ENDBRANCH  19  20
ENDBRANCH   3  19
TORSDOF 7
