REMARK  Name = ZINCrm000000Gjei.1
REMARK                            x       y       z     vdW  Elec       q    Type
REMARK                         _______ _______ _______ _____ _____    ______ ____
ROOT
ATOM      1  C   LIG    1       -4.588   2.824   2.321  0.00  0.00    +0.520 C 
ATOM      2  N   LIG    1       -3.251   2.906   2.467  0.00  0.00    -0.700 N 
ATOM      3  H   LIG    1       -2.875   3.350   3.243  0.00  0.00    +0.420 HD
ATOM      4  O   LIG    1       -5.059   2.268   1.350  0.00  0.00    -0.500 OA
ENDROOT
BRANCH   1   9
ATOM      5  C   LIG    1       -9.102   4.086   3.287  0.00  0.00    +0.160 C 
ATOM      6  C   LIG    1       -9.043   2.865   2.332  0.00  0.00    +0.070 C 
ATOM      7  C   LIG    1       -7.530   2.692   2.086  0.00  0.00    +0.310 C 
ATOM      8  N   LIG    1       -6.829   3.334   3.207  0.00  0.00    -0.590 N 
ATOM      9  C   LIG    1       -5.491   3.416   3.354  0.00  0.00    +0.530 C 
ATOM     10  O   LIG    1       -5.021   3.972   4.324  0.00  0.00    -0.500 OA
ATOM     11  C   LIG    1       -7.830   3.867   4.148  0.00  0.00    +0.310 C 
BRANCH   5  12
ATOM     12  N   LIG    1      -10.312   4.046   4.119  0.00  0.00    -0.380 N 
ATOM     13  H   LIG    1      -10.313   3.203   4.672  0.00  0.00    +0.420 HD
BRANCH  12  15
ATOM     14  C   LIG    1      -10.463   6.490   4.172  0.00  0.00    +0.090 C 
ATOM     15  C   LIG    1      -10.334   5.215   5.008  0.00  0.00    +0.250 C 
ENDBRANCH  12  15
BRANCH  12  16
ATOM     16  C   LIG    1      -11.501   4.066   3.255  0.00  0.00    +0.250 C 
ATOM     17  C   LIG    1      -12.758   3.918   4.114  0.00  0.00    +0.080 C 
ENDBRANCH  12  16
ENDBRANCH   5  12
ENDBRANCH   1   9
BRANCH   2  18
ATOM     18  C   LIG    1       -2.366   2.325   1.455  0.00  0.00    +0.270 C 
BRANCH  18  19
ATOM     19  C   LIG    1       -0.908   2.555   1.859  0.00  0.00    +0.000 C 
ATOM     20  C   LIG    1       -0.607   1.781   3.146  0.00  0.00    +0.040 C 
ATOM     21  C   LIG    1       -0.771   0.282   2.878  0.00  0.00    +0.060 C 
ATOM     22  C   LIG    1        0.148  -0.128   1.725  0.00  0.00    +0.250 C 
ATOM     23  N   LIG    1       -0.208   0.627   0.518  0.00  0.00    -0.380 N 
ATOM     24  H   LIG    1       -1.181   0.471   0.299  0.00  0.00    +0.420 HD
ATOM     25  C   LIG    1        0.015   2.061   0.744  0.00  0.00    +0.280 C 
BRANCH  23  26
ATOM     26  C   LIG    1        0.624   0.174  -0.604  0.00  0.00    +0.160 C 
ATOM     27  C   LIG    1        0.225   0.923  -1.893  0.00  0.00    +0.040 C 
ATOM     28  C   LIG    1        0.356  -0.146  -3.008  0.00  0.00    +0.060 C 
ATOM     29  C   LIG    1       -0.158  -1.431  -2.312  0.00  0.00    +0.040 C 
ATOM     30  C   LIG    1        0.381  -1.321  -0.871  0.00  0.00    +0.040 C 
ENDBRANCH  23  26
ENDBRANCH  18  19
ENDBRANCH   2  18
TORSDOF 7
