REMARK  Name = ZINCrm000000Gjei.0
REMARK                            x       y       z     vdW  Elec       q    Type
REMARK                         _______ _______ _______ _____ _____    ______ ____
ROOT
ATOM      1  C   LIG    1       -5.528   1.622   3.081  0.00  0.00    +0.520 C 
ATOM      2  N   LIG    1       -4.929   1.496   1.880  0.00  0.00    -0.700 N 
ATOM      3  H   LIG    1       -5.374   1.015   1.164  0.00  0.00    +0.420 HD
ATOM      4  O   LIG    1       -4.973   2.225   3.975  0.00  0.00    -0.500 OA
ENDROOT
BRANCH   1   9
ATOM      5  C   LIG    1       -8.757   0.453   6.414  0.00  0.00    +0.160 C 
ATOM      6  C   LIG    1       -7.938   1.705   6.827  0.00  0.00    +0.070 C 
ATOM      7  C   LIG    1       -6.915   1.840   5.679  0.00  0.00    +0.310 C 
ATOM      8  N   LIG    1       -7.475   1.145   4.511  0.00  0.00    -0.590 N 
ATOM      9  C   LIG    1       -6.876   1.019   3.310  0.00  0.00    +0.530 C 
ATOM     10  O   LIG    1       -7.432   0.417   2.415  0.00  0.00    -0.500 OA
ATOM     11  C   LIG    1       -8.797   0.603   4.873  0.00  0.00    +0.300 C 
BRANCH   5  12
ATOM     12  N   LIG    1      -10.110   0.497   6.984  0.00  0.00    -0.380 N 
ATOM     13  H   LIG    1      -10.551   1.370   6.735  0.00  0.00    +0.420 HD
BRANCH  12  15
ATOM     14  C   LIG    1      -10.262  -1.944   6.874  0.00  0.00    +0.090 C 
ATOM     15  C   LIG    1      -10.902  -0.620   6.452  0.00  0.00    +0.250 C 
ENDBRANCH  12  15
BRANCH  12  16
ATOM     16  C   LIG    1      -10.030   0.388   8.446  0.00  0.00    +0.240 C 
ATOM     17  C   LIG    1      -11.428   0.548   9.047  0.00  0.00    +0.080 C 
ENDBRANCH  12  16
ENDBRANCH   5  12
ENDBRANCH   1   9
BRANCH   2  18
ATOM     18  C   LIG    1       -3.608   2.087   1.655  0.00  0.00    +0.310 C 
BRANCH  18  19
ATOM     19  C   LIG    1       -3.159   1.802   0.220  0.00  0.00    -0.020 C 
ATOM     20  C   LIG    1       -4.091   2.521  -0.760  0.00  0.00    +0.040 C 
ATOM     21  C   LIG    1       -3.587   2.293  -2.188  0.00  0.00    +0.070 C 
ATOM     22  C   LIG    1       -2.143   2.782  -2.296  0.00  0.00    +0.250 C 
ATOM     23  N   LIG    1       -1.297   2.039  -1.355  0.00  0.00    -0.380 N 
ATOM     24  H   LIG    1       -1.375   1.050  -1.543  0.00  0.00    +0.420 HD
ATOM     25  C   LIG    1       -1.729   2.309   0.021  0.00  0.00    +0.270 C 
BRANCH  23  26
ATOM     26  C   LIG    1        0.101   2.458  -1.519  0.00  0.00    +0.160 C 
ATOM     27  C   LIG    1        0.594   2.112  -2.939  0.00  0.00    +0.050 C 
ATOM     28  C   LIG    1        2.067   1.678  -2.735  0.00  0.00    +0.040 C 
ATOM     29  C   LIG    1        2.010   0.895  -1.401  0.00  0.00    +0.040 C 
ATOM     30  C   LIG    1        1.002   1.684  -0.541  0.00  0.00    +0.040 C 
ENDBRANCH  23  26
ENDBRANCH  18  19
ENDBRANCH   2  18
TORSDOF 7
