REMARK  Name = ZINCrg000000tzru.0
REMARK                            x       y       z     vdW  Elec       q    Type
REMARK                         _______ _______ _______ _____ _____    ______ ____
ROOT
ATOM      1  O   LIG    1       -0.776  -0.711   1.948  0.00  0.00    -0.580 OA
ATOM      2  C   LIG    1       -0.382  -1.156   0.888  0.00  0.00    +0.720 C 
ATOM      3  N   LIG    1        0.094  -0.322  -0.058  0.00  0.00    -0.630 N 
ATOM      4  C   LIG    1        0.039   1.136   0.128  0.00  0.00    +0.330 C 
ATOM      5  C   LIG    1        1.468   1.690   0.199  0.00  0.00    +0.120 C 
ATOM      6  C   LIG    1        2.285   1.063  -0.899  0.00  0.00    +0.000 A 
ATOM      7  C   LIG    1        1.944  -0.067  -1.566  0.00  0.00    -0.040 A 
ATOM      8  N   LIG    1        2.913  -0.304  -2.443  0.00  0.00    -0.240 NA
ATOM      9  N   LIG    1        3.805   0.622  -2.335  0.00  0.00    -0.080 NA
ATOM     10  N   LIG    1        3.467   1.466  -1.419  0.00  0.00    -0.230 N 
ATOM     11  C   LIG    1        0.682  -0.850  -1.303  0.00  0.00    +0.400 C 
ATOM     12  N   LIG    1       -0.420  -2.483   0.658  0.00  0.00    -0.740 N 
ATOM     13  H   LIG    1       -0.039  -2.846  -0.157  0.00  0.00    +0.400 HD
ENDROOT
BRANCH  10  14
ATOM     14  C   LIG    1        4.196   2.600  -1.031  0.00  0.00    +0.110 A 
ATOM     15  C   LIG    1        4.796   3.402  -1.992  0.00  0.00    +0.050 A 
ATOM     16  C   LIG    1        5.509   4.521  -1.607  0.00  0.00    +0.040 A 
ATOM     17  C   LIG    1        5.633   4.836  -0.266  0.00  0.00    +0.040 A 
ATOM     18  C   LIG    1        5.041   4.036   0.693  0.00  0.00    +0.040 A 
ATOM     19  C   LIG    1        4.322   2.918   0.314  0.00  0.00    +0.020 A 
ENDBRANCH  10  14
BRANCH  12  20
ATOM     20  C   LIG    1       -1.035  -3.380   1.640  0.00  0.00    +0.430 C 
BRANCH  20  21
ATOM     21  C   LIG    1       -0.948  -4.801   1.147  0.00  0.00    +0.170 A 
ATOM     22  N   LIG    1        0.024  -5.641   1.376  0.00  0.00    -0.260 NA
ATOM     23  N   LIG    1       -0.230  -6.763   0.803  0.00  0.00    -0.280 NA
ATOM     24  C   LIG    1       -1.377  -6.689   0.181  0.00  0.00    +0.170 A 
ATOM     25  C   LIG    1       -2.337  -7.488  -0.673  0.00  0.00    +0.180 C 
ATOM     26  C   LIG    1       -3.264  -6.423  -1.303  0.00  0.00    +0.070 C 
ATOM     27  C   LIG    1       -3.164  -5.271  -0.278  0.00  0.00    +0.300 C 
ATOM     28  N   LIG    1       -1.868  -5.447   0.389  0.00  0.00    -0.490 N 
ENDBRANCH  20  21
ENDBRANCH  12  20
TORSDOF 3
