REMARK  Name = ZINCbu0000001MTW.0
REMARK                            x       y       z     vdW  Elec       q    Type
REMARK                         _______ _______ _______ _____ _____    ______ ____
ROOT
ATOM      1  C   LIG    1       -0.728   3.097   3.772  0.00  0.00    +0.030 C 
ATOM      2  C   LIG    1       -0.708   1.567   3.764  0.00  0.00    +0.010 C 
ATOM      3  C   LIG    1        0.009   1.073   2.506  0.00  0.00    +0.060 C 
ATOM      4  C   LIG    1       -0.731   1.580   1.266  0.00  0.00    +0.060 C 
ATOM      5  C   LIG    1       -0.013   1.086   0.008  0.00  0.00    +0.070 C 
ATOM      6  C   LIG    1       -0.755   1.594  -1.231  0.00  0.00    +0.040 C 
ATOM      7  C   LIG    1       -2.211   1.122  -1.172  0.00  0.00    +0.050 C 
ATOM      8  C   LIG    1       -2.848   1.615   0.129  0.00  0.00    +0.250 C 
ATOM      9  C   LIG    1       -0.749   3.110   1.274  0.00  0.00    +0.060 C 
ATOM     10  N   LIG    1       -2.110   1.074   1.276  0.00  0.00    -0.500 N 
ATOM     11  H   LIG    1       -2.096   0.067   1.220  0.00  0.00    +0.420 HD
ATOM     12  H   LIG    1       -2.564   1.357   2.131  0.00  0.00    +0.420 HD
ATOM     13  C   LIG    1       -1.466   3.605   2.532  0.00  0.00    +0.010 C 
ENDROOT
TORSDOF 0
