REMARK  Name = ZINCvU0000000IWp.0
REMARK                            x       y       z     vdW  Elec       q    Type
REMARK                         _______ _______ _______ _____ _____    ______ ____
ROOT
ATOM      1  N   LIG    1        3.734  -0.657  -0.796  0.00  0.00    -0.670 N 
ATOM      2  H   LIG    1        4.486  -0.348  -0.267  0.00  0.00    +0.430 HD
ATOM      3  C   LIG    1        2.546  -0.025  -0.713  0.00  0.00    +0.710 C 
ATOM      4  N   LIG    1        2.418   1.069   0.064  0.00  0.00    -0.510 N 
ATOM      5  C   LIG    1        1.217   1.790   0.041  0.00  0.00    +0.160 A 
ATOM      6  C   LIG    1        0.005   1.125  -0.060  0.00  0.00    +0.050 A 
ATOM      7  C   LIG    1       -1.178   1.842  -0.081  0.00  0.00    +0.050 A 
ATOM      8  C   LIG    1       -1.161   3.221   0.011  0.00  0.00    +0.030 A 
ATOM      9  C   LIG    1        0.043   3.895   0.110  0.00  0.00    +0.070 A 
ATOM     10  C   LIG    1        1.230   3.184   0.124  0.00  0.00    -0.130 A 
ATOM     11  S   LIG    1        2.778   4.021   0.246  0.00  0.00    +0.030 S 
ATOM     12  C   LIG    1        3.776   2.815   1.062  0.00  0.00    -0.130 A 
ATOM     13  C   LIG    1        4.827   3.203   1.873  0.00  0.00    +0.080 A 
ATOM     14  C   LIG    1        5.599   2.243   2.503  0.00  0.00    +0.030 A 
ATOM     15  C   LIG    1        5.320   0.901   2.323  0.00  0.00    +0.060 A 
ATOM     16  C   LIG    1        4.269   0.508   1.514  0.00  0.00    -0.020 A 
ATOM     17  C   LIG    1        3.489   1.461   0.879  0.00  0.00    +0.150 A 
ATOM     18  O   LIG    1        1.591  -0.442  -1.339  0.00  0.00    -0.540 OA
ENDROOT
BRANCH   1  24
ATOM     19  C   LIG    1        5.139  -2.060  -2.188  0.00  0.00    -0.170 A 
ATOM     20  C   LIG    1        5.280  -3.168  -3.031  0.00  0.00    +0.060 A 
ATOM     21  C   LIG    1        4.182  -3.947  -3.332  0.00  0.00    +0.070 A 
ATOM     22  C   LIG    1        2.933  -3.638  -2.792  0.00  0.00    +0.170 A 
ATOM     23  C   LIG    1        2.786  -2.546  -1.951  0.00  0.00    -0.030 A 
ATOM     24  C   LIG    1        3.881  -1.755  -1.642  0.00  0.00    +0.240 A 
BRANCH  19  25
ATOM     25  C   LIG    1        6.305  -1.221  -1.870  0.00  0.00    +0.520 C 
ATOM     26  O   LIG    1        6.162  -0.202  -1.222  0.00  0.00    -0.510 OA
BRANCH  25  28
ATOM     27  C   LIG    1        8.636  -0.707  -1.945  0.00  0.00    +0.290 C 
ATOM     28  O   LIG    1        7.532  -1.583  -2.296  0.00  0.00    -0.350 OA
ENDBRANCH  25  28
ENDBRANCH  19  25
BRANCH  22  29
ATOM     29  O   LIG    1        1.857  -4.409  -3.093  0.00  0.00    -0.290 OA
ATOM     30  C   LIG    1        0.608  -4.037  -2.507  0.00  0.00    +0.260 C 
ENDBRANCH  22  29
BRANCH  21  31
ATOM     31  O   LIG    1        4.318  -5.020  -4.157  0.00  0.00    -0.300 OA
ATOM     32  C   LIG    1        5.624  -5.280  -4.675  0.00  0.00    +0.240 C 
ENDBRANCH  21  31
ENDBRANCH   1  24
TORSDOF 5
