REMARK  Name = ZINCqH0000038zEz.0
REMARK                            x       y       z     vdW  Elec       q    Type
REMARK                         _______ _______ _______ _____ _____    ______ ____
ROOT
ATOM      1  C   LIG    1       -0.013   1.086   0.008  0.00  0.00    +0.240 C 
ENDROOT
BRANCH   1   4
ATOM      2  N   LIG    1       -0.242   1.246   2.466  0.00  0.00    -0.730 N 
ATOM      3  H   LIG    1        0.555   0.699   2.544  0.00  0.00    +0.400 HD
ATOM      4  C   LIG    1       -0.718   1.572   1.248  0.00  0.00    +0.510 C 
ATOM      5  O   LIG    1       -1.714   2.256   1.150  0.00  0.00    -0.500 OA
BRANCH   2   6
ATOM      6  C   LIG    1       -0.927   1.718   3.671  0.00  0.00    +0.290 C 
BRANCH   6   7
ATOM      7  C   LIG    1       -0.187   1.212   4.911  0.00  0.00    +0.080 C 
ATOM      8  C   LIG    1        1.206   1.840   4.965  0.00  0.00    +0.050 C 
BRANCH   7  13
ATOM      9  C   LIG    1       -2.691   0.402   9.118  0.00  0.00    +0.160 C 
ATOM     10  C   LIG    1       -2.086   1.261   8.038  0.00  0.00    +0.070 A 
ATOM     11  C   LIG    1       -2.165   2.595   8.045  0.00  0.00    -0.080 A 
ATOM     12  S   LIG    1       -1.326   3.196   6.616  0.00  0.00    +0.130 S 
ATOM     13  C   LIG    1       -0.959   1.593   6.147  0.00  0.00    +0.050 A 
ATOM     14  N   LIG    1       -1.434   0.758   7.009  0.00  0.00    -0.470 NA
ENDBRANCH   7  13
ENDBRANCH   6   7
ENDBRANCH   2   6
ENDBRANCH   1   4
BRANCH   1  15
ATOM     15  O   LIG    1       -0.704   1.559  -1.150  0.00  0.00    -0.270 OA
BRANCH  15  16
ATOM     16  C   LIG    1       -0.195   1.208  -2.357  0.00  0.00    +0.190 A 
ATOM     17  C   LIG    1        0.948   0.430  -2.428  0.00  0.00    -0.090 A 
ATOM     18  C   LIG    1        1.464   0.068  -3.656  0.00  0.00    +0.100 A 
ATOM     19  C   LIG    1        0.850   0.489  -4.824  0.00  0.00    -0.120 A 
ATOM     20  C   LIG    1       -0.288   1.270  -4.775  0.00  0.00    -0.000 A 
ATOM     21  C   LIG    1       -1.130   1.846  -5.887  0.00  0.00    +0.050 C 
ATOM     22  C   LIG    1       -0.289   2.789  -6.751  0.00  0.00    +0.050 C 
ATOM     23  C   LIG    1       -2.265   2.625  -5.207  0.00  0.00    +0.050 C 
ATOM     24  C   LIG    1       -2.027   2.464  -3.725  0.00  0.00    +0.400 C 
ATOM     25  O   LIG    1       -2.710   2.934  -2.840  0.00  0.00    -0.430 OA
ATOM     26  C   LIG    1        1.427   0.091  -6.158  0.00  0.00    +0.100 C 
ATOM     27  C   LIG    1       -0.826   1.640  -3.541  0.00  0.00    -0.220 A 
ENDBRANCH  15  16
ENDBRANCH   1  15
TORSDOF 6
