REMARK  Name = ZINCpk00000y6uhh.0
REMARK                            x       y       z     vdW  Elec       q    Type
REMARK                         _______ _______ _______ _____ _____    ______ ____
ROOT
ATOM      1  N   LIG    1        5.738  -5.470   1.873  0.00  0.00    -0.740 N 
ATOM      2  H   LIG    1        5.590  -6.017   1.086  0.00  0.00    +0.400 HD
ATOM      3  C   LIG    1        4.945  -4.407   2.114  0.00  0.00    +0.720 C 
ATOM      4  N   LIG    1        3.946  -4.104   1.261  0.00  0.00    -0.640 N 
ATOM      5  C   LIG    1        3.611  -4.846   0.037  0.00  0.00    +0.240 C 
ATOM      6  C   LIG    1        2.419  -4.122  -0.625  0.00  0.00    +0.060 C 
ATOM      7  C   LIG    1        2.513  -2.689  -0.037  0.00  0.00    +0.150 C 
ATOM      8  C   LIG    1        3.008  -2.976   1.403  0.00  0.00    +0.270 C 
ATOM      9  O   LIG    1        5.131  -3.721   3.100  0.00  0.00    -0.580 OA
ENDROOT
BRANCH   1  10
ATOM     10  C   LIG    1        6.824  -5.798   2.799  0.00  0.00    +0.370 C 
BRANCH  10  14
ATOM     11  C   LIG    1        8.186 -10.560   2.030  0.00  0.00    +0.360 C 
ATOM     12  N   LIG    1        8.142  -9.097   1.974  0.00  0.00    -0.370 N 
ATOM     13  C   LIG    1        7.261  -8.304   2.620  0.00  0.00    +0.260 A 
ATOM     14  C   LIG    1        7.553  -7.021   2.305  0.00  0.00    -0.270 A 
ATOM     15  C   LIG    1        8.656  -7.030   1.444  0.00  0.00    +0.260 A 
ATOM     16  N   LIG    1        9.009  -8.274   1.245  0.00  0.00    -0.290 NA
ENDBRANCH  10  14
ENDBRANCH   1  10
BRANCH   7  17
ATOM     17  O   LIG    1        1.232  -2.057  -0.021  0.00  0.00    -0.280 OA
BRANCH  17  18
ATOM     18  C   LIG    1        1.214  -0.697  -0.013  0.00  0.00    +0.060 A 
ATOM     19  C   LIG    1        2.399   0.022  -0.021  0.00  0.00    -0.010 A 
ATOM     20  C   LIG    1        2.332   1.410  -0.013  0.00  0.00    -0.020 A 
ATOM     21  C   LIG    1        1.098   2.027   0.003  0.00  0.00    +0.250 A 
ATOM     22  N   LIG    1       -0.016   1.319   0.009  0.00  0.00    -0.490 NA
ATOM     23  C   LIG    1        0.002  -0.004   0.002  0.00  0.00    +0.290 A 
BRANCH  23  24
ATOM     24  N   LIG    1       -1.198  -0.711   0.010  0.00  0.00    -0.480 N 
ATOM     25  C   LIG    1       -1.273  -1.632  -1.132  0.00  0.00    +0.220 C 
ATOM     26  C   LIG    1       -2.347   0.203   0.026  0.00  0.00    +0.220 C 
ENDBRANCH  23  24
ENDBRANCH  17  18
ENDBRANCH   7  17
TORSDOF 5
