REMARK  Name = ZINCbw0000000HcB.0
REMARK                            x       y       z     vdW  Elec       q    Type
REMARK                         _______ _______ _______ _____ _____    ______ ____
ROOT
ATOM      1  C   LIG    1        1.423   1.615  -0.003  0.00  0.00    +0.000 C 
ATOM      2  C   LIG    1        2.135   1.129  -1.266  0.00  0.00    +0.030 C 
ATOM      3  C   LIG    1        3.541   1.734  -1.323  0.00  0.00    +0.020 C 
ATOM      4  C   LIG    1        4.261   1.401  -0.035  0.00  0.00    +0.360 C 
ATOM      5  C   LIG    1        3.569   1.713   1.274  0.00  0.00    +0.020 C 
ATOM      6  O   LIG    1        5.359   0.900  -0.051  0.00  0.00    -0.460 OA
ATOM      7  C   LIG    1        2.161   1.108   1.237  0.00  0.00    +0.010 C 
ATOM      8  C   LIG    1        2.263  -0.418   1.181  0.00  0.00    +0.020 C 
ENDROOT
BRANCH   1  10
ATOM      9  C   LIG    1       -0.753   1.593  -1.232  0.00  0.00    +0.010 C 
ATOM     10  C   LIG    1       -0.013   1.086   0.008  0.00  0.00    -0.020 C 
ATOM     11  C   LIG    1       -0.729   1.579   1.267  0.00  0.00    +0.010 C 
ENDBRANCH   1  10
TORSDOF 1
