REMARK  Name = ZINCvU0000000EGy.0
REMARK                            x       y       z     vdW  Elec       q    Type
REMARK                         _______ _______ _______ _____ _____    ______ ____
ROOT
ATOM      1  S   LIG    1        0.984   0.439  -1.297  0.00  0.00    +0.080 S 
ENDROOT
BRANCH   1   2
ATOM      2  C   LIG    1       -0.143   1.135  -2.459  0.00  0.00    +0.160 A 
ATOM      3  N   LIG    1       -1.320   1.652  -2.188  0.00  0.00    -0.280 NA
ATOM      4  N   LIG    1       -1.879   2.070  -3.267  0.00  0.00    -0.260 NA
ATOM      5  C   LIG    1       -1.094   1.847  -4.298  0.00  0.00    +0.270 A 
ATOM      6  N   LIG    1        0.048   1.244  -3.811  0.00  0.00    -0.410 N 
BRANCH   6   7
ATOM      7  C   LIG    1        1.167   0.829  -4.546  0.00  0.00    +0.090 A 
ATOM      8  C   LIG    1        1.957   1.765  -5.198  0.00  0.00    +0.040 A 
ATOM      9  C   LIG    1        3.062   1.353  -5.918  0.00  0.00    +0.040 A 
ATOM     10  C   LIG    1        3.374   0.008  -5.997  0.00  0.00    +0.050 A 
ATOM     11  C   LIG    1        2.586  -0.927  -5.352  0.00  0.00    +0.040 A 
ATOM     12  C   LIG    1        1.483  -0.520  -4.627  0.00  0.00    +0.040 A 
ENDBRANCH   6   7
BRANCH   5  13
ATOM     13  C   LIG    1       -1.376   2.181  -5.702  0.00  0.00    -0.140 A 
ATOM     14  C   LIG    1       -2.352   3.014  -6.125  0.00  0.00    +0.080 A 
ATOM     15  C   LIG    1       -2.420   3.173  -7.493  0.00  0.00    +0.010 A 
ATOM     16  C   LIG    1       -1.518   2.474  -8.190  0.00  0.00    -0.030 A 
ATOM     17  S   LIG    1       -0.500   1.552  -7.092  0.00  0.00    +0.150 S 
ENDBRANCH   5  13
ENDBRANCH   1   2
BRANCH   1  18
ATOM     18  C   LIG    1        0.041   0.665   0.231  0.00  0.00    -0.020 C 
ATOM     19  C   LIG    1       -0.124   2.160   0.511  0.00  0.00    +0.090 C 
BRANCH  18  20
ATOM     20  C   LIG    1        0.777   0.017   1.376  0.00  0.00    +0.440 C 
ATOM     21  O   LIG    1        1.980  -0.134   1.316  0.00  0.00    -0.430 OA
BRANCH  20  26
ATOM     22  C   LIG    1       -0.458  -1.278   4.521  0.00  0.00    -0.260 A 
ATOM     23  C   LIG    1       -1.617  -0.819   3.912  0.00  0.00    +0.120 A 
ATOM     24  N   LIG    1       -1.298  -0.304   2.717  0.00  0.00    -0.520 N 
ATOM     25  H   LIG    1       -1.925   0.085   2.088  0.00  0.00    +0.420 HD
ATOM     26  C   LIG    1        0.064  -0.414   2.521  0.00  0.00    -0.100 A 
ATOM     27  C   LIG    1       -3.004  -0.888   4.498  0.00  0.00    +0.160 C 
ATOM     28  C   LIG    1        0.609  -1.023   3.630  0.00  0.00    -0.010 A 
ATOM     29  C   LIG    1        2.063  -1.351   3.851  0.00  0.00    +0.140 C 
BRANCH  22  31
ATOM     30  C   LIG    1       -0.049  -1.079   7.056  0.00  0.00    +0.070 C 
ATOM     31  C   LIG    1       -0.359  -1.913   5.839  0.00  0.00    +0.440 C 
ATOM     32  O   LIG    1       -0.526  -3.109   5.950  0.00  0.00    -0.450 OA
ENDBRANCH  22  31
ENDBRANCH  20  26
ENDBRANCH  18  20
ENDBRANCH   1  18
TORSDOF 7
