REMARK  Name = ZINCrD0000074Q3s.0
REMARK                            x       y       z     vdW  Elec       q    Type
REMARK                         _______ _______ _______ _____ _____    ______ ____
ROOT
ATOM      1  C   LIG    1       -2.168   0.079   0.183  0.00  0.00    +0.520 C 
ATOM      2  N   LIG    1       -1.029  -0.625   0.024  0.00  0.00    -0.660 N 
ATOM      3  H   LIG    1       -1.066  -1.588  -0.087  0.00  0.00    +0.430 HD
ATOM      4  O   LIG    1       -2.131   1.291   0.219  0.00  0.00    -0.480 OA
ENDROOT
BRANCH   2   5
ATOM      5  C   LIG    1        0.207   0.035   0.018  0.00  0.00    +0.240 A 
ATOM      6  C   LIG    1        0.346   1.253   0.671  0.00  0.00    +0.040 A 
ATOM      7  C   LIG    1        1.571   1.899   0.662  0.00  0.00    +0.150 A 
ATOM      8  C   LIG    1        2.653   1.331   0.004  0.00  0.00    +0.050 A 
ATOM      9  O   LIG    1        3.855   1.978   0.003  0.00  0.00    -0.310 OA
ATOM     10  C   LIG    1        3.907   3.198  -0.741  0.00  0.00    +0.220 C 
ATOM     11  C   LIG    1        3.408   4.364   0.099  0.00  0.00    +0.000 C 
ATOM     12  C   LIG    1        1.936   4.230   0.458  0.00  0.00    +0.240 C 
ATOM     13  C   LIG    1        2.513   0.117  -0.646  0.00  0.00    +0.140 A 
ATOM     14  O   LIG    1        1.721   3.096   1.300  0.00  0.00    -0.310 OA
ATOM     15  C   LIG    1        1.292  -0.530  -0.639  0.00  0.00    -0.080 A 
BRANCH  15  16
ATOM     16  N   LIG    1        1.140  -1.829  -1.333  0.00  0.00    +0.040 N 
ATOM     17  O   LIG    1        0.043  -2.353  -1.411  0.00  0.00    -0.190 OA
ATOM     18  O   LIG    1        2.111  -2.373  -1.826  0.00  0.00    -0.130 OA
ENDBRANCH  15  16
ENDBRANCH   2   5
BRANCH   1  19
ATOM     19  C   LIG    1       -3.486  -0.640   0.316  0.00  0.00    +0.250 C 
BRANCH  19  20
ATOM     20  O   LIG    1       -4.536   0.316   0.473  0.00  0.00    -0.290 OA
BRANCH  20  26
ATOM     21  C   LIG    1       -9.307   1.152   1.070  0.00  0.00    +0.090 C 
ATOM     22  C   LIG    1       -8.147   0.205   0.900  0.00  0.00    -0.050 A 
ATOM     23  C   LIG    1       -8.367  -1.160   0.880  0.00  0.00    -0.020 A 
ATOM     24  C   LIG    1       -7.304  -2.031   0.725  0.00  0.00    +0.050 A 
ATOM     25  C   LIG    1       -6.021  -1.539   0.582  0.00  0.00    -0.080 A 
ATOM     26  C   LIG    1       -5.798  -0.170   0.607  0.00  0.00    +0.130 A 
ATOM     27  C   LIG    1       -6.865   0.702   0.764  0.00  0.00    -0.110 A 
ATOM     28  C   LIG    1       -6.627   2.190   0.786  0.00  0.00    +0.100 C 
ENDBRANCH  20  26
ENDBRANCH  19  20
ENDBRANCH   1  19
TORSDOF 5
