REMARK  Name = ZINCrg000000mOur.0
REMARK                            x       y       z     vdW  Elec       q    Type
REMARK                         _______ _______ _______ _____ _____    ______ ____
ROOT
ATOM      1  N   LIG    1       -0.032   1.579  -0.112  0.00  0.00    -0.500 NA
ENDROOT
BRANCH   1   2
ATOM      2  C   LIG    1        1.421   1.794  -0.099  0.00  0.00    +0.220 C 
ATOM      3  C   LIG    1        2.069   0.966  -1.210  0.00  0.00    -0.020 C 
ENDBRANCH   1   2
BRANCH   1   4
ATOM      4  C   LIG    1       -0.356   0.160   0.086  0.00  0.00    +0.190 C 
BRANCH   4   5
ATOM      5  C   LIG    1        0.057  -0.261   1.472  0.00  0.00    +0.430 C 
ATOM      6  O   LIG    1        0.570   0.542   2.223  0.00  0.00    -0.450 OA
BRANCH   5  10
ATOM      7  N   LIG    1       -0.209  -3.475   3.143  0.00  0.00    -0.430 N 
ATOM      8  C   LIG    1       -0.763  -3.811   1.942  0.00  0.00    +0.010 A 
ATOM      9  C   LIG    1       -0.772  -2.731   1.143  0.00  0.00    -0.010 A 
ATOM     10  C   LIG    1       -0.162  -1.640   1.915  0.00  0.00    -0.270 A 
ATOM     11  C   LIG    1       -1.287  -5.175   1.573  0.00  0.00    +0.120 C 
ATOM     12  C   LIG    1        0.157  -2.180   3.146  0.00  0.00    +0.110 A 
ATOM     13  C   LIG    1        0.803  -1.447   4.293  0.00  0.00    +0.140 C 
BRANCH   7  14
ATOM     14  C   LIG    1       -0.036  -4.394   4.270  0.00  0.00    +0.320 C 
BRANCH  14  16
ATOM     15  C   LIG    1       -1.907  -5.453   5.428  0.00  0.00    +0.050 C 
ATOM     16  C   LIG    1       -1.260  -4.349   5.148  0.00  0.00    -0.060 C 
ENDBRANCH  14  16
ENDBRANCH   7  14
ENDBRANCH   5  10
ENDBRANCH   4   5
ENDBRANCH   1   4
BRANCH   1  17
ATOM     17  C   LIG    1       -0.628   2.087  -1.355  0.00  0.00    +0.210 C 
BRANCH  17  18
ATOM     18  C   LIG    1       -0.614   3.594  -1.340  0.00  0.00    +0.510 C 
ATOM     19  N   LIG    1       -1.007   4.283  -2.429  0.00  0.00    -0.730 N 
ATOM     20  H   LIG    1       -1.299   3.808  -3.223  0.00  0.00    +0.400 HD
ATOM     21  O   LIG    1       -0.248   4.187  -0.347  0.00  0.00    -0.510 OA
BRANCH  19  22
ATOM     22  C   LIG    1       -0.992   5.748  -2.415  0.00  0.00    +0.270 C 
ATOM     23  C   LIG    1        0.405   6.255  -2.813  0.00  0.00    +0.060 C 
ATOM     24  C   LIG    1        0.262   7.772  -3.096  0.00  0.00    -0.300 C 
ATOM     25  S   LIG    1       -1.303   7.853  -4.047  0.00  0.00    +2.400 S 
ATOM     26  O   LIG    1       -2.085   8.944  -3.581  0.00  0.00    -0.930 OA
ATOM     27  O   LIG    1       -1.018   7.727  -5.433  0.00  0.00    -0.930 OA
ATOM     28  C   LIG    1       -2.019   6.286  -3.431  0.00  0.00    -0.320 C 
ENDBRANCH  19  22
ENDBRANCH  17  18
ENDBRANCH   1  17
TORSDOF 9
