REMARK  Name = ZINCqH00000342dI.0
REMARK                            x       y       z     vdW  Elec       q    Type
REMARK                         _______ _______ _______ _____ _____    ______ ____
ROOT
ATOM      1  N   LIG    1       -4.546   3.093  -4.519  0.00  0.00    -1.060 N 
ATOM      2  H   LIG    1       -5.019   3.765  -5.035  0.00  0.00    +0.430 HD
ENDROOT
BRANCH   1   3
ATOM      3  C   LIG    1       -5.189   1.904  -4.163  0.00  0.00    +0.150 A 
ATOM      4  C   LIG    1       -4.886   0.725  -4.831  0.00  0.00    +0.070 A 
ATOM      5  C   LIG    1       -5.518  -0.451  -4.478  0.00  0.00    +0.050 A 
ATOM      6  C   LIG    1       -6.463  -0.454  -3.462  0.00  0.00    +0.130 A 
ATOM      7  C   LIG    1       -6.771   0.728  -2.796  0.00  0.00    +0.120 A 
ATOM      8  F   LIG    1       -7.691   0.726  -1.806  0.00  0.00    -0.110 F 
ATOM      9  C   LIG    1       -6.135   1.903  -3.146  0.00  0.00    +0.020 A 
BRANCH   6  10
ATOM     10  N   LIG    1       -7.108  -1.649  -3.106  0.00  0.00    -0.340 N 
ATOM     11  C   LIG    1       -6.921  -2.863  -3.659  0.00  0.00    +0.490 A 
ATOM     12  N   LIG    1       -7.707  -3.712  -3.047  0.00  0.00    -0.530 NA
ATOM     13  C   LIG    1       -8.412  -3.081  -2.109  0.00  0.00    +0.440 A 
ATOM     14  N   LIG    1       -8.081  -1.816  -2.107  0.00  0.00    -0.300 NA
ENDBRANCH   6  10
ENDBRANCH   1   3
BRANCH   1  15
ATOM     15  S   LIG    1       -2.977   3.356  -4.059  0.00  0.00    +2.690 S 
ATOM     16  O   LIG    1       -2.249   2.195  -4.437  0.00  0.00    -0.940 OA
ATOM     17  O   LIG    1       -2.642   4.663  -4.503  0.00  0.00    -0.950 OA
BRANCH  15  21
ATOM     18  C   LIG    1       -2.909   3.489   0.466  0.00  0.00    -0.010 A 
ATOM     19  C   LIG    1       -3.223   4.626  -0.255  0.00  0.00    -0.010 A 
ATOM     20  C   LIG    1       -3.240   4.587  -1.637  0.00  0.00    +0.130 A 
ATOM     21  C   LIG    1       -2.952   3.407  -2.298  0.00  0.00    -0.680 A 
ATOM     22  C   LIG    1       -2.643   2.269  -1.577  0.00  0.00    +0.130 A 
ATOM     23  C   LIG    1       -2.622   2.309  -0.196  0.00  0.00    -0.010 A 
BRANCH  18  24
ATOM     24  C   LIG    1       -2.887   3.533   1.972  0.00  0.00    +0.020 C 
ATOM     25  C   LIG    1       -1.849   4.557   2.436  0.00  0.00    +0.040 C 
BRANCH  24  27
ATOM     26  C   LIG    1       -4.281   3.861   4.019  0.00  0.00    +0.020 C 
ATOM     27  C   LIG    1       -4.268   3.937   2.491  0.00  0.00    +0.010 C 
ENDBRANCH  24  27
ENDBRANCH  18  24
ENDBRANCH  15  21
ENDBRANCH   1  15
TORSDOF 6
