REMARK  Name = ZINCtV00000jXicw.0
REMARK                            x       y       z     vdW  Elec       q    Type
REMARK                         _______ _______ _______ _____ _____    ______ ____
ROOT
ATOM      1  O   LIG    1       -3.623   4.688  -0.802  0.00  0.00    -0.490 OA
ATOM      2  C   LIG    1       -3.816   4.318   0.338  0.00  0.00    +0.510 C 
ENDROOT
BRANCH   2   3
ATOM      3  C   LIG    1       -2.955   3.269   0.931  0.00  0.00    -0.070 A 
ATOM      4  C   LIG    1       -1.915   2.692   0.196  0.00  0.00    +0.080 A 
ATOM      5  C   LIG    1       -1.137   1.716   0.789  0.00  0.00    +0.170 A 
ATOM      6  N   LIG    1       -1.367   1.326   2.026  0.00  0.00    -0.410 NA
ATOM      7  C   LIG    1       -2.333   1.848   2.756  0.00  0.00    +0.040 A 
ATOM      8  C   LIG    1       -3.160   2.828   2.243  0.00  0.00    +0.090 A 
BRANCH   7   9
ATOM      9  C   LIG    1       -2.542   1.364   4.168  0.00  0.00    +0.530 C 
ATOM     10  F   LIG    1       -3.070   2.402   4.944  0.00  0.00    -0.170 F 
ATOM     11  F   LIG    1       -1.318   0.954   4.707  0.00  0.00    -0.160 F 
ATOM     12  F   LIG    1       -3.434   0.286   4.164  0.00  0.00    -0.170 F 
ENDBRANCH   7   9
BRANCH   5  13
ATOM     13  C   LIG    1       -0.013   1.086   0.008  0.00  0.00    +0.010 C 
ATOM     14  C   LIG    1        0.460   1.806  -1.256  0.00  0.00    +0.040 C 
ATOM     15  C   LIG    1        1.335   1.811  -0.001  0.00  0.00    +0.050 C 
ENDBRANCH   5  13
ENDBRANCH   2   3
BRANCH   2  16
ATOM     16  O   LIG    1       -4.812   4.861   1.063  0.00  0.00    -0.340 OA
BRANCH  16  17
ATOM     17  C   LIG    1       -5.615   5.884   0.417  0.00  0.00    +0.190 C 
ATOM     18  C   LIG    1       -5.109   7.298   0.794  0.00  0.00    +0.020 C 
ATOM     19  C   LIG    1       -6.337   8.208   0.583  0.00  0.00    +0.020 C 
ATOM     20  C   LIG    1       -7.578   7.306   0.696  0.00  0.00    +0.030 C 
ATOM     21  C   LIG    1       -7.061   5.879   0.973  0.00  0.00    +0.010 C 
BRANCH  21  22
ATOM     22  C   LIG    1       -7.915   4.847   0.234  0.00  0.00    +0.080 C 
BRANCH  22  23
ATOM     23  C   LIG    1       -9.279   4.774   0.872  0.00  0.00    -0.080 A 
ATOM     24  C   LIG    1       -9.513   3.881   1.901  0.00  0.00    +0.030 A 
ATOM     25  C   LIG    1      -10.761   3.817   2.490  0.00  0.00    +0.020 A 
ATOM     26  C   LIG    1      -11.780   4.639   2.042  0.00  0.00    -0.040 A 
ATOM     27  C   LIG    1      -11.547   5.529   1.009  0.00  0.00    +0.020 A 
ATOM     28 CL   LIG    1      -13.351   4.555   2.777  0.00  0.00    -0.070 Cl
ATOM     29  C   LIG    1      -10.296   5.595   0.424  0.00  0.00    +0.030 A 
ENDBRANCH  22  23
ENDBRANCH  21  22
ENDBRANCH  16  17
ENDBRANCH   2  16
TORSDOF 7
