REMARK  Name = ZINCb800000011gV.0
REMARK                            x       y       z     vdW  Elec       q    Type
REMARK                         _______ _______ _______ _____ _____    ______ ____
ROOT
ATOM      1  C   LIG    1       -0.529  -2.487  -1.246  0.00  0.00    +0.340 C 
ATOM      2  N   LIG    1        0.250  -2.943  -0.091  0.00  0.00    -0.400 N 
ATOM      3  C   LIG    1        0.396  -4.232   0.305  0.00  0.00    +0.220 A 
ATOM      4  C   LIG    1        1.178  -4.264   1.411  0.00  0.00    -0.120 A 
ATOM      5  C   LIG    1        1.540  -2.948   1.718  0.00  0.00    +0.020 A 
ATOM      6 CL   LIG    1        1.645  -5.685   2.292  0.00  0.00    -0.040 Cl
ATOM      7  C   LIG    1        0.957  -2.135   0.770  0.00  0.00    -0.040 A 
ENDROOT
BRANCH   7   8
ATOM      8  C   LIG    1        1.065  -0.674   0.696  0.00  0.00    +0.590 C 
ATOM      9  N   LIG    1        1.858  -0.012   1.561  0.00  0.00    -0.570 N 
ATOM     10  H   LIG    1        2.299  -0.492   2.280  0.00  0.00    +0.410 HD
ATOM     11  O   LIG    1        0.438  -0.059  -0.147  0.00  0.00    -0.530 OA
BRANCH   9  12
ATOM     12  N   LIG    1        2.043   1.335   1.425  0.00  0.00    -0.600 NA
ATOM     13  H   LIG    1        2.659   1.689   2.142  0.00  0.00    +0.360 HD
ATOM     14  H   LIG    1        1.160   1.823   1.433  0.00  0.00    +0.350 HD
ENDBRANCH   9  12
ENDBRANCH   7   8
TORSDOF 2
