REMARK  Name = ZINCrH000004u7Y8.0
REMARK                            x       y       z     vdW  Elec       q    Type
REMARK                         _______ _______ _______ _____ _____    ______ ____
ROOT
ATOM      1  O   LIG    1        0.968   6.372   0.026  0.00  0.00    -0.530 OA
ATOM      2  C   LIG    1       -0.076   5.750   0.033  0.00  0.00    +0.560 C 
ATOM      3  N   LIG    1       -1.252   6.408   0.048  0.00  0.00    -0.710 N 
ATOM      4  H   LIG    1       -2.086   5.912   0.054  0.00  0.00    +0.410 HD
ENDROOT
BRANCH   2   5
ATOM      5  C   LIG    1       -0.056   4.272   0.025  0.00  0.00    -0.100 A 
ATOM      6  C   LIG    1        1.160   3.587   0.010  0.00  0.00    +0.090 A 
ATOM      7  C   LIG    1        1.172   2.208   0.003  0.00  0.00    +0.070 A 
ATOM      8  C   LIG    1       -0.018   1.503   0.010  0.00  0.00    -0.160 A 
ATOM      9  C   LIG    1       -1.228   2.175   0.020  0.00  0.00    +0.070 A 
ATOM     10  C   LIG    1       -1.253   3.554   0.033  0.00  0.00    +0.050 A 
BRANCH   8  11
ATOM     11  C   LIG    1        0.002  -0.004   0.002  0.00  0.00    +0.510 C 
ATOM     12  F   LIG    1        1.144  -0.451  -0.671  0.00  0.00    -0.170 F 
ATOM     13  F   LIG    1       -1.140  -0.482  -0.649  0.00  0.00    -0.170 F 
ATOM     14  F   LIG    1        0.021  -0.477   1.318  0.00  0.00    -0.170 F 
ENDBRANCH   8  11
ENDBRANCH   2   5
BRANCH   3  15
ATOM     15  C   LIG    1       -1.272   7.873   0.056  0.00  0.00    +0.300 C 
BRANCH  15  16
ATOM     16  C   LIG    1       -2.699   8.356   0.072  0.00  0.00    +0.510 C 
ATOM     17  N   LIG    1       -2.964   9.677   0.081  0.00  0.00    -0.600 N 
ATOM     18  C   LIG    1       -1.871  10.659   0.075  0.00  0.00    +0.270 C 
ATOM     19  C   LIG    1       -2.089  11.634  -1.087  0.00  0.00    +0.010 C 
ATOM     20  C   LIG    1       -3.486  12.250  -0.976  0.00  0.00    +0.030 C 
ATOM     21  C   LIG    1       -4.540  11.146  -1.061  0.00  0.00    -0.070 C 
ATOM     22  C   LIG    1       -5.939  11.760  -0.992  0.00  0.00    +0.070 C 
ATOM     23  C   LIG    1       -6.973  10.728  -1.338  0.00  0.00    -0.060 C 
ATOM     24  C   LIG    1       -6.711   9.615  -1.944  0.00  0.00    -0.050 C 
ATOM     25  C   LIG    1       -5.337   9.194  -2.376  0.00  0.00    +0.060 C 
ATOM     26  C   LIG    1       -4.396  10.401  -2.393  0.00  0.00    +0.020 C 
ATOM     27  C   LIG    1       -4.350  10.164   0.091  0.00  0.00    +0.290 C 
ATOM     28  O   LIG    1       -3.611   7.555   0.077  0.00  0.00    -0.540 OA
ENDBRANCH  15  16
ENDBRANCH   3  15
TORSDOF 4
