REMARK  Name = ZINCbw0000000Hfn.0
REMARK                            x       y       z     vdW  Elec       q    Type
REMARK                         _______ _______ _______ _____ _____    ______ ____
ROOT
ATOM      1  C   LIG    1       -0.749   3.086   1.275  0.00  0.00    -0.160 A 
ATOM      2  C   LIG    1        0.275   3.807   1.870  0.00  0.00    +0.240 A 
ATOM      3  N   LIG    1        0.225   5.131   1.854  0.00  0.00    -0.510 NA
ATOM      4  C   LIG    1       -0.786   5.762   1.291  0.00  0.00    +0.350 A 
ATOM      5  N   LIG    1       -1.780   5.110   0.721  0.00  0.00    -0.510 NA
ATOM      6  C   LIG    1       -0.807   7.269   1.299  0.00  0.00    +0.190 C 
ATOM      7 CL   LIG    1        1.609   2.986   2.620  0.00  0.00    +0.010 Cl
ATOM      8  C   LIG    1       -1.796   3.786   0.693  0.00  0.00    +0.240 A 
ATOM      9 CL   LIG    1       -3.110   2.937  -0.061  0.00  0.00    +0.010 Cl
ENDROOT
BRANCH   1  11
ATOM     10  C   LIG    1       -0.013   1.086   0.008  0.00  0.00    +0.040 C 
ATOM     11  C   LIG    1       -0.729   1.579   1.267  0.00  0.00    +0.090 C 
ENDBRANCH   1  11
TORSDOF 1
