REMARK  Name = ZINCpe00000gMVxM.1
REMARK                            x       y       z     vdW  Elec       q    Type
REMARK                         _______ _______ _______ _____ _____    ______ ____
ROOT
ATOM      1  C   LIG    1        1.453   7.843   0.093  0.00  0.00    +0.100 C 
ATOM      2  C   LIG    1        0.105   7.170   0.059  0.00  0.00    +0.180 A 
ATOM      3  C   LIG    1       -1.031   7.924   0.042  0.00  0.00    -0.340 A 
ATOM      4  C   LIG    1       -2.280   7.271   0.011  0.00  0.00    +0.500 A 
ATOM      5  N   LIG    1       -2.305   5.921  -0.006  0.00  0.00    -0.610 NA
ATOM      6  C   LIG    1       -1.135   5.223   0.018  0.00  0.00    +0.380 A 
ATOM      7  O   LIG    1       -3.317   7.913  -0.006  0.00  0.00    -0.620 OA
ATOM      8  N   LIG    1        0.026   5.841   0.047  0.00  0.00    -0.610 NA
ENDROOT
BRANCH   6   9
ATOM      9  C   LIG    1       -1.171   3.744   0.005  0.00  0.00    +0.200 A 
ATOM     10  C   LIG    1        0.022   3.023   0.024  0.00  0.00    +0.020 A 
ATOM     11  C   LIG    1       -0.028   1.639   0.013  0.00  0.00    +0.040 A 
ATOM     12  C   LIG    1       -1.270   1.022  -0.018  0.00  0.00    -0.050 A 
ATOM     13  C   LIG    1       -2.415   1.801  -0.040  0.00  0.00    +0.240 A 
ATOM     14  N   LIG    1       -2.340   3.114  -0.023  0.00  0.00    -0.440 NA
ENDBRANCH   6   9
BRANCH   3  15
ATOM     15  C   LIG    1       -0.953   9.429   0.055  0.00  0.00    +0.120 C 
BRANCH  15  16
ATOM     16  C   LIG    1       -1.021   9.948  -1.358  0.00  0.00    +0.520 C 
ATOM     17  N   LIG    1       -0.969  11.274  -1.593  0.00  0.00    -0.750 N 
ATOM     18  H   LIG    1       -0.887  11.895  -0.852  0.00  0.00    +0.400 HD
ATOM     19  O   LIG    1       -1.124   9.172  -2.285  0.00  0.00    -0.510 OA
BRANCH  17  20
ATOM     20  C   LIG    1       -1.036  11.778  -2.966  0.00  0.00    +0.270 C 
BRANCH  20  21
ATOM     21  C   LIG    1       -1.084  13.308  -2.946  0.00  0.00    +0.150 C 
ATOM     22  C   LIG    1       -2.403  13.783  -2.301  0.00  0.00    +0.090 C 
ATOM     23  C   LIG    1       -2.788  15.017  -3.159  0.00  0.00    +0.080 C 
ATOM     24  C   LIG    1       -2.311  14.579  -4.566  0.00  0.00    +0.260 C 
ATOM     25  N   LIG    1       -1.061  13.828  -4.326  0.00  0.00    -0.380 N 
ATOM     26  C   LIG    1       -0.968  12.711  -5.274  0.00  0.00    +0.320 C 
ATOM     27  H   LIG    1       -0.268  14.441  -4.444  0.00  0.00    +0.430 HD
ENDBRANCH  20  21
ENDBRANCH  17  20
ENDBRANCH  15  16
ENDBRANCH   3  15
TORSDOF 5
