REMARK  Name = ZINCpe00000gMVxM.2
REMARK                            x       y       z     vdW  Elec       q    Type
REMARK                         _______ _______ _______ _____ _____    ______ ____
ROOT
ATOM      1  C   LIG    1        3.488   1.336   2.716  0.00  0.00    +0.100 C 
ATOM      2  C   LIG    1        4.044   2.104   1.544  0.00  0.00    +0.190 A 
ATOM      3  C   LIG    1        3.533   1.905   0.296  0.00  0.00    -0.340 A 
ATOM      4  C   LIG    1        4.074   2.631  -0.785  0.00  0.00    +0.500 A 
ATOM      5  N   LIG    1        5.073   3.507  -0.541  0.00  0.00    -0.610 NA
ATOM      6  C   LIG    1        5.541   3.662   0.729  0.00  0.00    +0.380 A 
ATOM      7  O   LIG    1        3.645   2.476  -1.916  0.00  0.00    -0.620 OA
ATOM      8  N   LIG    1        5.034   2.976   1.730  0.00  0.00    -0.610 NA
ENDROOT
BRANCH   6   9
ATOM      9  C   LIG    1        6.640   4.619   0.986  0.00  0.00    +0.200 A 
ATOM     10  C   LIG    1        7.120   4.787   2.284  0.00  0.00    +0.020 A 
ATOM     11  C   LIG    1        8.152   5.684   2.508  0.00  0.00    +0.040 A 
ATOM     12  C   LIG    1        8.662   6.389   1.429  0.00  0.00    -0.050 A 
ATOM     13  C   LIG    1        8.134   6.175   0.167  0.00  0.00    +0.240 A 
ATOM     14  N   LIG    1        7.157   5.314  -0.020  0.00  0.00    -0.440 NA
ENDBRANCH   6   9
BRANCH   3  15
ATOM     15  C   LIG    1        2.414   0.921   0.074  0.00  0.00    +0.120 C 
BRANCH  15  16
ATOM     16  C   LIG    1        1.093   1.647   0.103  0.00  0.00    +0.520 C 
ATOM     17  N   LIG    1       -0.055   0.964  -0.074  0.00  0.00    -0.770 N 
ATOM     18  H   LIG    1       -0.032   0.006  -0.220  0.00  0.00    +0.390 HD
ATOM     19  O   LIG    1        1.064   2.845   0.286  0.00  0.00    -0.500 OA
BRANCH  17  20
ATOM     20  C   LIG    1       -1.338   1.671  -0.052  0.00  0.00    +0.300 C 
BRANCH  20  21
ATOM     21  C   LIG    1       -2.481   0.656  -0.124  0.00  0.00    +0.170 C 
ATOM     22  C   LIG    1       -3.849   1.381  -0.085  0.00  0.00    +0.090 C 
ATOM     23  C   LIG    1       -4.780   0.265   0.459  0.00  0.00    +0.070 C 
ATOM     24  C   LIG    1       -3.874  -0.486   1.458  0.00  0.00    +0.250 C 
ATOM     25  N   LIG    1       -2.476  -0.211   1.074  0.00  0.00    -0.390 N 
ATOM     26  C   LIG    1       -1.787  -1.472   0.768  0.00  0.00    +0.320 C 
ATOM     27  H   LIG    1       -2.003   0.259   1.831  0.00  0.00    +0.430 HD
ENDBRANCH  20  21
ENDBRANCH  17  20
ENDBRANCH  15  16
ENDBRANCH   3  15
TORSDOF 5
