REMARK  Name = ZINCnE000001Su12.0
REMARK                            x       y       z     vdW  Elec       q    Type
REMARK                         _______ _______ _______ _____ _____    ______ ____
ROOT
ATOM      1  O   LIG    1       -1.736   2.268  -1.088  0.00  0.00    -0.520 OA
ATOM      2  C   LIG    1       -0.742   1.585  -1.213  0.00  0.00    +0.550 C 
ATOM      3  N   LIG    1       -0.288   1.272  -2.443  0.00  0.00    -0.610 N 
ATOM      4  C   LIG    1        0.901   0.463  -2.795  0.00  0.00    +0.260 C 
ATOM      5  C   LIG    1        0.445  -0.388  -4.005  0.00  0.00    +0.060 C 
ATOM      6  C   LIG    1       -0.716   0.409  -4.635  0.00  0.00    -0.200 C 
ATOM      7  C   LIG    1       -0.863   1.666  -3.751  0.00  0.00    +0.310 C 
ENDROOT
BRANCH   6   8
ATOM      8  C   LIG    1       -0.373   0.807  -6.072  0.00  0.00    +0.480 C 
ATOM      9  F   LIG    1       -1.394   1.612  -6.589  0.00  0.00    -0.180 F 
ATOM     10  F   LIG    1       -0.244  -0.345  -6.856  0.00  0.00    -0.170 F 
ATOM     11  F   LIG    1        0.832   1.516  -6.084  0.00  0.00    -0.200 F 
ENDBRANCH   6   8
BRANCH   6  12
ATOM     12  C   LIG    1       -1.986  -0.403  -4.606  0.00  0.00    +0.510 C 
ATOM     13  O   LIG    1       -2.695  -0.391  -3.614  0.00  0.00    -0.660 OA
ATOM     14  O   LIG    1       -2.303  -1.073  -5.574  0.00  0.00    -0.670 OA
ENDBRANCH   6  12
BRANCH   2  15
ATOM     15  C   LIG    1       -0.013   1.086   0.008  0.00  0.00    +0.120 C 
BRANCH  15  16
ATOM     16  C   LIG    1       -0.718   1.572   1.248  0.00  0.00    -0.050 A 
ATOM     17  C   LIG    1       -1.568   0.726   1.936  0.00  0.00    +0.060 A 
ATOM     18  C   LIG    1       -2.215   1.171   3.073  0.00  0.00    +0.040 A 
ATOM     19  C   LIG    1       -2.012   2.463   3.524  0.00  0.00    -0.030 A 
ATOM     20  C   LIG    1       -1.161   3.310   2.836  0.00  0.00    +0.040 A 
ATOM     21 CL   LIG    1       -2.825   3.022   4.952  0.00  0.00    -0.060 Cl
ATOM     22  C   LIG    1       -0.510   2.863   1.701  0.00  0.00    -0.010 A 
ATOM     23 CL   LIG    1        0.563   3.922   0.841  0.00  0.00    -0.060 Cl
ENDBRANCH  15  16
ENDBRANCH   2  15
TORSDOF 4
