REMARK  Name = ZINCrg00000SjSLJ.0
REMARK                            x       y       z     vdW  Elec       q    Type
REMARK                         _______ _______ _______ _____ _____    ______ ____
ROOT
ATOM      1  N   LIG    1       -2.632   7.694   1.848  0.00  0.00    -0.520 NA
ATOM      2  C   LIG    1       -3.066   8.178   0.530  0.00  0.00    +0.190 C 
ATOM      3  C   LIG    1       -3.300   6.984  -0.398  0.00  0.00    +0.210 C 
ATOM      4  N   LIG    1       -2.060   6.202  -0.508  0.00  0.00    -0.520 NA
ATOM      5  C   LIG    1       -1.626   5.718   0.810  0.00  0.00    +0.200 C 
ATOM      6  C   LIG    1       -1.392   6.913   1.737  0.00  0.00    +0.200 C 
ENDROOT
BRANCH   1   7
ATOM      7  C   LIG    1       -2.470   8.809   2.791  0.00  0.00    +0.140 C 
ATOM      8  C   LIG    1       -1.936   8.277   4.122  0.00  0.00    +0.080 C 
BRANCH   7  15
ATOM      9  C   LIG    1       -6.394  13.324   4.124  0.00  0.00    +0.300 C 
ATOM     10  N   LIG    1       -5.099  12.676   3.907  0.00  0.00    -0.740 N 
ATOM     11  H   LIG    1       -4.279  13.183   4.012  0.00  0.00    +0.400 HD
ATOM     12  C   LIG    1       -5.046  11.374   3.561  0.00  0.00    +0.690 C 
ATOM     13  N   LIG    1       -3.855  10.777   3.361  0.00  0.00    -0.690 N 
ATOM     14  H   LIG    1       -3.035  11.285   3.466  0.00  0.00    +0.410 HD
ATOM     15  C   LIG    1       -3.802   9.476   3.014  0.00  0.00    +0.520 C 
ATOM     16  O   LIG    1       -4.827   8.842   2.883  0.00  0.00    -0.440 OA
ATOM     17  O   LIG    1       -6.074  10.739   3.429  0.00  0.00    -0.530 OA
ENDBRANCH   7  15
ENDBRANCH   1   7
BRANCH   4  18
ATOM     18  C   LIG    1       -2.223   5.088  -1.451  0.00  0.00    +0.230 C 
BRANCH  18  19
ATOM     19  C   LIG    1       -0.934   4.311  -1.538  0.00  0.00    -0.090 A 
ATOM     20  C   LIG    1        0.254   4.897  -1.142  0.00  0.00    +0.070 A 
ATOM     21  C   LIG    1        1.436   4.185  -1.221  0.00  0.00    +0.010 A 
ATOM     22  C   LIG    1        1.431   2.887  -1.697  0.00  0.00    +0.030 A 
ATOM     23  C   LIG    1        0.244   2.300  -2.093  0.00  0.00    +0.030 A 
ATOM     24  C   LIG    1       -0.939   3.014  -2.020  0.00  0.00    -0.020 A 
ATOM     25 CL   LIG    1       -2.429   2.281  -2.524  0.00  0.00    -0.050 Cl
ENDBRANCH  18  19
BRANCH  18  26
ATOM     26  C   LIG    1       -2.576   5.629  -2.813  0.00  0.00    +0.470 C 
ATOM     27  O   LIG    1       -2.682   6.821  -2.980  0.00  0.00    -0.480 OA
BRANCH  26  28
ATOM     28  O   LIG    1       -2.773   4.787  -3.839  0.00  0.00    -0.340 OA
ATOM     29  C   LIG    1       -3.111   5.378  -5.122  0.00  0.00    +0.260 C 
ENDBRANCH  26  28
ENDBRANCH  18  26
ENDBRANCH   4  18
TORSDOF 6
