REMARK  Name = ZINCrH00000tj11z.0
REMARK                            x       y       z     vdW  Elec       q    Type
REMARK                         _______ _______ _______ _____ _____    ______ ____
ROOT
ATOM      1  N   LIG    1       -5.677   4.376   1.636  0.00  0.00    -0.890 N 
ENDROOT
BRANCH   1   6
ATOM      2  C   LIG    1       -3.433   8.664   2.092  0.00  0.00    +0.160 C 
ATOM      3  C   LIG    1       -4.253   7.490   2.563  0.00  0.00    +0.100 A 
ATOM      4  C   LIG    1       -4.734   7.399   3.803  0.00  0.00    -0.100 A 
ATOM      5  S   LIG    1       -5.633   5.889   3.931  0.00  0.00    +0.150 S 
ATOM      6  C   LIG    1       -5.266   5.520   2.303  0.00  0.00    +0.270 A 
ATOM      7  N   LIG    1       -4.554   6.469   1.780  0.00  0.00    -0.490 NA
ENDBRANCH   1   6
BRANCH   1   8
ATOM      8  S   LIG    1       -5.257   4.146   0.051  0.00  0.00    +2.680 S 
ATOM      9  O   LIG    1       -6.220   3.255  -0.494  0.00  0.00    -0.930 OA
ATOM     10  O   LIG    1       -5.000   5.436  -0.487  0.00  0.00    -0.890 OA
BRANCH   8  11
ATOM     11  C   LIG    1       -3.719   3.286   0.038  0.00  0.00    -0.640 A 
ATOM     12  C   LIG    1       -3.700   1.904   0.030  0.00  0.00    +0.140 A 
ATOM     13  C   LIG    1       -2.494   1.229   0.021  0.00  0.00    +0.090 A 
ATOM     14  C   LIG    1       -1.306   1.936   0.019  0.00  0.00    +0.010 A 
ATOM     15  C   LIG    1       -1.325   3.319   0.032  0.00  0.00    +0.090 A 
ATOM     16  C   LIG    1       -2.531   3.993   0.036  0.00  0.00    +0.160 A 
BRANCH  14  17
ATOM     17  N   LIG    1       -0.014   1.214   0.009  0.00  0.00    +0.020 N 
ATOM     18  O   LIG    1        1.032   1.837   0.002  0.00  0.00    -0.140 OA
ATOM     19  O   LIG    1        0.002  -0.004   0.002  0.00  0.00    -0.140 OA
ENDBRANCH  14  17
ENDBRANCH   8  11
ENDBRANCH   1   8
BRANCH   1  20
ATOM     20  C   LIG    1       -6.482   3.371   2.334  0.00  0.00    +0.320 C 
BRANCH  20  21
ATOM     21  C   LIG    1       -5.559   2.418   3.097  0.00  0.00    +0.060 C 
BRANCH  21  22
ATOM     22  C   LIG    1       -6.388   1.384   3.815  0.00  0.00    -0.090 A 
ATOM     23  C   LIG    1       -6.821   1.620   5.106  0.00  0.00    +0.010 A 
ATOM     24  C   LIG    1       -7.584   0.674   5.763  0.00  0.00    +0.000 A 
ATOM     25  C   LIG    1       -7.907  -0.513   5.132  0.00  0.00    +0.000 A 
ATOM     26  C   LIG    1       -7.469  -0.752   3.843  0.00  0.00    +0.010 A 
ATOM     27  C   LIG    1       -6.709   0.197   3.184  0.00  0.00    +0.010 A 
ENDBRANCH  21  22
ENDBRANCH  20  21
ENDBRANCH   1  20
TORSDOF 7
