REMARK  Name = ZINCrm000000OTFg.0
REMARK                            x       y       z     vdW  Elec       q    Type
REMARK                         _______ _______ _______ _____ _____    ______ ____
ROOT
ATOM      1  C   LIG    1       -1.310   3.228  -1.163  0.00  0.00    +0.510 C 
ATOM      2  N   LIG    1       -0.725   2.014  -1.177  0.00  0.00    -0.700 N 
ATOM      3  H   LIG    1       -0.772   1.462  -1.974  0.00  0.00    +0.410 HD
ATOM      4  O   LIG    1       -1.251   3.918  -0.168  0.00  0.00    -0.510 OA
ENDROOT
BRANCH   2   5
ATOM      5  C   LIG    1       -0.019   1.527   0.010  0.00  0.00    +0.240 C 
ATOM      6  C   LIG    1        1.421   2.049  -0.001  0.00  0.00    +0.040 C 
ATOM      7  C   LIG    1        2.171   1.488   1.210  0.00  0.00    +0.230 C 
ATOM      8  N   LIG    1        2.163   0.021   1.155  0.00  0.00    -0.480 NA
ATOM      9  C   LIG    1        0.793  -0.505   1.212  0.00  0.00    +0.220 C 
ATOM     10  C   LIG    1        0.002  -0.004   0.002  0.00  0.00    +0.060 C 
BRANCH   8  11
ATOM     11  C   LIG    1        2.948  -0.520   2.169  0.00  0.00    +0.240 C 
ATOM     12  C   LIG    1        2.413  -1.432   3.079  0.00  0.00    -0.010 C 
ATOM     13  C   LIG    1        3.225  -1.949   4.065  0.00  0.00    +0.380 C 
ATOM     14  N   LIG    1        4.490  -1.583   4.162  0.00  0.00    -0.470 NA
ATOM     15  C   LIG    1        5.032  -0.719   3.324  0.00  0.00    +0.370 C 
ATOM     16  H   LIG    1        5.037  -1.961   4.868  0.00  0.00    +0.450 HD
ATOM     17  C   LIG    1        4.288  -0.160   2.306  0.00  0.00    +0.020 C 
ENDBRANCH   8  11
ENDBRANCH   2   5
BRANCH   1  18
ATOM     18  C   LIG    1       -2.036   3.728  -2.385  0.00  0.00    +0.180 C 
BRANCH  18  19
ATOM     19  N   LIG    1       -2.963   4.801  -1.998  0.00  0.00    -0.620 N 
ATOM     20  H   LIG    1       -2.445   5.559  -1.581  0.00  0.00    +0.440 HD
ATOM     21  H   LIG    1       -3.631   4.443  -1.332  0.00  0.00    +0.440 HD
ATOM     22  H   LIG    1       -3.450   5.136  -2.816  0.00  0.00    +0.450 HD
ENDBRANCH  18  19
BRANCH  18  23
ATOM     23  C   LIG    1       -1.023   4.270  -3.395  0.00  0.00    +0.190 C 
BRANCH  23  24
ATOM     24  C   LIG    1       -1.736   4.657  -4.665  0.00  0.00    +0.040 A 
ATOM     25  C   LIG    1       -2.358   5.867  -4.912  0.00  0.00    -0.190 A 
ATOM     26  C   LIG    1       -2.547   7.057  -4.177  0.00  0.00    +0.000 A 
ATOM     27  C   LIG    1       -3.228   8.088  -4.737  0.00  0.00    +0.050 A 
ATOM     28  C   LIG    1       -3.752   8.006  -6.029  0.00  0.00    +0.060 A 
ATOM     29  C   LIG    1       -3.607   6.893  -6.791  0.00  0.00    +0.060 A 
ATOM     30  C   LIG    1       -2.910   5.780  -6.273  0.00  0.00    +0.100 A 
ATOM     31  N   LIG    1       -2.599   4.582  -6.734  0.00  0.00    -0.250 NA
ATOM     32  N   LIG    1       -1.875   3.892  -5.756  0.00  0.00    -0.400 N 
ATOM     33  H   LIG    1       -1.527   2.991  -5.852  0.00  0.00    +0.450 HD
ENDBRANCH  23  24
ENDBRANCH  18  23
ENDBRANCH   1  18
TORSDOF 6
