REMARK  Name = ZINCtV000002C5TC.0
REMARK                            x       y       z     vdW  Elec       q    Type
REMARK                         _______ _______ _______ _____ _____    ______ ____
ROOT
ATOM      1  C   LIG    1        2.143   4.516   1.100  0.00  0.00    -0.020 A 
ATOM      2  C   LIG    1        2.212   3.693   0.022  0.00  0.00    -0.060 A 
ATOM      3  C   LIG    1        2.216   4.563  -1.153  0.00  0.00    -0.130 A 
ATOM      4  C   LIG    1        2.261   4.338  -2.531  0.00  0.00    +0.080 A 
ATOM      5  C   LIG    1        2.242   5.400  -3.391  0.00  0.00    +0.010 A 
ATOM      6  C   LIG    1        2.172   6.698  -2.905  0.00  0.00    +0.060 A 
ATOM      7  C   LIG    1        2.120   6.941  -1.549  0.00  0.00    +0.030 A 
ATOM      8  C   LIG    1        2.138   5.877  -0.655  0.00  0.00    +0.080 A 
ATOM      9  O   LIG    1        2.100   5.801   0.690  0.00  0.00    -0.180 OA
ENDROOT
BRANCH   1  12
ATOM     10  N   LIG    1        2.049   4.984   3.493  0.00  0.00    -0.660 N 
ATOM     11  H   LIG    1        2.092   5.931   3.287  0.00  0.00    +0.420 HD
ATOM     12  C   LIG    1        2.119   4.075   2.501  0.00  0.00    +0.600 C 
ATOM     13  O   LIG    1        2.161   2.888   2.766  0.00  0.00    -0.480 OA
BRANCH  10  18
ATOM     14  C   LIG    1        1.063   3.000   6.433  0.00  0.00    -0.070 A 
ATOM     15  C   LIG    1        1.653   3.737   7.453  0.00  0.00    -0.020 A 
ATOM     16  C   LIG    1        2.370   4.880   7.156  0.00  0.00    +0.050 A 
ATOM     17  C   LIG    1        2.507   5.292   5.844  0.00  0.00    -0.020 A 
ATOM     18  C   LIG    1        1.914   4.563   4.820  0.00  0.00    +0.160 A 
ATOM     19  C   LIG    1        1.194   3.415   5.114  0.00  0.00    +0.040 A 
BRANCH  14  21
ATOM     20  C   LIG    1        0.275   1.440   8.619  0.00  0.00    +0.140 C 
ATOM     21  S   LIG    1        0.150   1.542   6.812  0.00  0.00    -0.110 S 
ENDBRANCH  14  21
ENDBRANCH  10  18
ENDBRANCH   1  12
BRANCH   2  22
ATOM     22  C   LIG    1        2.276   2.187   0.035  0.00  0.00    +0.160 C 
BRANCH  22  23
ATOM     23  S   LIG    1        0.594   1.510  -0.013  0.00  0.00    -0.220 S 
BRANCH  23  24
ATOM     24  C   LIG    1        0.875  -0.282   0.008  0.00  0.00    +0.130 C 
BRANCH  24  25
ATOM     25  C   LIG    1       -0.450  -0.999  -0.028  0.00  0.00    -0.080 A 
ATOM     26  C   LIG    1       -1.093  -1.325   1.151  0.00  0.00    +0.030 A 
ATOM     27  C   LIG    1       -2.310  -1.978   1.118  0.00  0.00    +0.000 A 
ATOM     28  C   LIG    1       -2.880  -2.315  -0.095  0.00  0.00    +0.010 A 
ATOM     29  C   LIG    1       -2.235  -1.995  -1.275  0.00  0.00    +0.000 A 
ATOM     30  C   LIG    1       -1.020  -1.337  -1.242  0.00  0.00    +0.020 A 
ENDBRANCH  24  25
ENDBRANCH  23  24
ENDBRANCH  22  23
ENDBRANCH   2  22
TORSDOF 7
