REMARK  Name = ZINCqH0000037Bak.1
REMARK                            x       y       z     vdW  Elec       q    Type
REMARK                         _______ _______ _______ _____ _____    ______ ____
ROOT
ATOM      1  C   LIG    1        0.056   1.216  -0.568  0.00  0.00    +0.600 C 
ATOM      2  N   LIG    1        0.002  -0.004   0.002  0.00  0.00    -0.650 N 
ATOM      3  H   LIG    1        0.811  -0.417   0.342  0.00  0.00    +0.420 HD
ATOM      4  O   LIG    1       -0.937   1.690  -1.086  0.00  0.00    -0.490 OA
ENDROOT
BRANCH   1   7
ATOM      5  C   LIG    1        0.451   4.034  -1.822  0.00  0.00    +0.140 C 
ATOM      6  C   LIG    1        1.490   3.202  -1.116  0.00  0.00    -0.060 A 
ATOM      7  C   LIG    1        1.317   1.971  -0.569  0.00  0.00    -0.050 A 
ATOM      8  O   LIG    1        2.478   1.544  -0.031  0.00  0.00    -0.180 OA
ATOM      9  C   LIG    1        3.450   2.463  -0.193  0.00  0.00    +0.080 A 
ATOM     10  C   LIG    1        4.790   2.507   0.170  0.00  0.00    +0.030 A 
ATOM     11  C   LIG    1        5.550   3.614  -0.142  0.00  0.00    +0.060 A 
ATOM     12  C   LIG    1        4.992   4.690  -0.818  0.00  0.00    -0.010 A 
ATOM     13  C   LIG    1        3.676   4.670  -1.185  0.00  0.00    +0.070 A 
ATOM     14  C   LIG    1        2.889   3.558  -0.879  0.00  0.00    -0.150 A 
ENDBRANCH   1   7
BRANCH   2  15
ATOM     15  C   LIG    1       -1.223  -0.676   0.103  0.00  0.00    +0.170 A 
ATOM     16  C   LIG    1       -2.410   0.041   0.117  0.00  0.00    +0.020 A 
ATOM     17  C   LIG    1       -3.618  -0.625   0.210  0.00  0.00    +0.030 A 
ATOM     18  C   LIG    1       -3.647  -2.004   0.303  0.00  0.00    -0.010 A 
ATOM     19  C   LIG    1       -2.468  -2.727   0.296  0.00  0.00    +0.000 A 
ATOM     20  C   LIG    1       -1.252  -2.068   0.196  0.00  0.00    +0.060 A 
BRANCH  20  21
ATOM     21  N   LIG    1       -0.057  -2.796   0.190  0.00  0.00    -0.510 N 
ATOM     22  C   LIG    1        0.022  -3.667  -0.992  0.00  0.00    +0.190 C 
ATOM     23  C   LIG    1        1.373  -4.385  -1.003  0.00  0.00    +0.180 C 
ATOM     24  N   LIG    1        1.521  -5.165   0.234  0.00  0.00    -0.550 NA
ATOM     25  C   LIG    1        1.442  -4.294   1.415  0.00  0.00    +0.180 C 
ATOM     26  C   LIG    1        2.775  -5.930   0.227  0.00  0.00    +0.190 C 
ATOM     27  C   LIG    1        0.091  -3.576   1.426  0.00  0.00    +0.190 C 
ENDBRANCH  20  21
ENDBRANCH   2  15
TORSDOF 3
