REMARK  Name = ZINCnE000004ReNp.0
REMARK                            x       y       z     vdW  Elec       q    Type
REMARK                         _______ _______ _______ _____ _____    ______ ____
ROOT
ATOM      1  C   LIG    1       -0.435   7.467  -0.033  0.00  0.00    +0.140 C 
ATOM      2  C   LIG    1       -0.861   6.021   0.004  0.00  0.00    -0.270 A 
ATOM      3  C   LIG    1       -2.128   5.574   0.046  0.00  0.00    +0.120 A 
ATOM      4  N   LIG    1       -2.265   4.255   0.068  0.00  0.00    -0.500 NA
ATOM      5  C   LIG    1       -1.177   3.551   0.056  0.00  0.00    +0.280 A 
ATOM      6  S   LIG    1        0.216   4.627  -0.002  0.00  0.00    +0.200 S 
ENDROOT
BRANCH   3   7
ATOM      7  C   LIG    1       -3.293   6.492   0.063  0.00  0.00    -0.010 A 
ATOM      8  C   LIG    1       -4.365   6.248   0.919  0.00  0.00    +0.040 A 
ATOM      9  C   LIG    1       -5.442   7.109   0.932  0.00  0.00    +0.010 A 
ATOM     10  C   LIG    1       -5.470   8.210   0.090  0.00  0.00    -0.100 A 
ATOM     11  C   LIG    1       -6.524   9.282  -0.084  0.00  0.00    +0.070 C 
ATOM     12  C   LIG    1       -6.200   9.953  -1.436  0.00  0.00    +0.030 C 
ATOM     13  C   LIG    1       -4.682   9.706  -1.573  0.00  0.00    +0.070 C 
ATOM     14  C   LIG    1       -4.410   8.454  -0.767  0.00  0.00    -0.100 A 
ATOM     15  C   LIG    1       -3.324   7.599  -0.782  0.00  0.00    +0.030 A 
ENDBRANCH   3   7
BRANCH   5  16
ATOM     16  N   LIG    1       -1.119   2.162   0.078  0.00  0.00    -0.630 N 
ATOM     17  H   LIG    1       -1.938   1.643   0.109  0.00  0.00    +0.430 HD
ATOM     18  C   LIG    1        0.075   1.537   0.056  0.00  0.00    +0.510 C 
ATOM     19  O   LIG    1        1.098   2.186   0.011  0.00  0.00    -0.500 OA
BRANCH  18  20
ATOM     20  C   LIG    1        0.138   0.032   0.080  0.00  0.00    +0.100 C 
BRANCH  20  21
ATOM     21  C   LIG    1        1.599  -0.418   0.040  0.00  0.00    -0.030 C 
BRANCH  21  22
ATOM     22  C   LIG    1        1.662  -1.924   0.064  0.00  0.00    +0.490 C 
ATOM     23  O   LIG    1        2.742  -2.490   0.039  0.00  0.00    -0.700 OA
ATOM     24  O   LIG    1        0.633  -2.576   0.109  0.00  0.00    -0.700 OA
ENDBRANCH  21  22
ENDBRANCH  20  21
ENDBRANCH  18  20
ENDBRANCH   5  16
TORSDOF 5
