REMARK  Name = ZINCqH0000007GOG.0
REMARK                            x       y       z     vdW  Elec       q    Type
REMARK                         _______ _______ _______ _____ _____    ______ ____
ROOT
ATOM      1  N   LIG    1        4.609   1.075  -0.112  0.00  0.00    -0.600 N 
ATOM      2  C   LIG    1        3.771   0.073   0.221  0.00  0.00    +0.600 C 
ATOM      3  O   LIG    1        4.164  -1.079   0.207  0.00  0.00    -0.520 OA
ATOM      4  C   LIG    1        4.137   2.462  -0.092  0.00  0.00    +0.300 C 
ENDROOT
BRANCH   2   5
ATOM      5  C   LIG    1        2.387   0.370   0.600  0.00  0.00    -0.280 A 
ATOM      6  C   LIG    1        1.404  -0.553   0.795  0.00  0.00    +0.110 A 
ATOM      7  C   LIG    1        0.183  -0.004   1.147  0.00  0.00    -0.120 A 
ATOM      8  C   LIG    1        0.188   1.331   1.237  0.00  0.00    -0.210 A 
ATOM      9  C   LIG    1       -1.027   2.171   1.621  0.00  0.00    +0.100 C 
ATOM     10  C   LIG    1       -2.061   2.031   0.500  0.00  0.00    +0.020 C 
ATOM     11  C   LIG    1       -2.841   0.745   0.636  0.00  0.00    +0.000 C 
ATOM     12  C   LIG    1       -2.084  -0.521   0.312  0.00  0.00    +0.010 C 
ATOM     13  C   LIG    1       -1.063  -0.858   1.400  0.00  0.00    +0.090 C 
ATOM     14  S   LIG    1        1.727   1.976   0.875  0.00  0.00    +0.210 S 
ENDBRANCH   2   5
BRANCH   1  15
ATOM     15  C   LIG    1        5.992   0.777  -0.493  0.00  0.00    +0.340 C 
BRANCH  15  18
ATOM     16  N   LIG    1        7.248   0.269  -2.563  0.00  0.00    -0.670 N 
ATOM     17  H   LIG    1        8.060   0.268  -2.034  0.00  0.00    +0.410 HD
ATOM     18  C   LIG    1        6.066   0.558  -1.982  0.00  0.00    +0.490 C 
ATOM     19  O   LIG    1        5.063   0.643  -2.659  0.00  0.00    -0.500 OA
BRANCH  16  24
ATOM     20  C   LIG    1        6.507   0.318  -6.168  0.00  0.00    +0.140 A 
ATOM     21  C   LIG    1        7.413  -0.625  -6.632  0.00  0.00    -0.090 A 
ATOM     22  C   LIG    1        8.260  -1.267  -5.748  0.00  0.00    +0.070 A 
ATOM     23  C   LIG    1        8.211  -0.968  -4.400  0.00  0.00    -0.050 A 
ATOM     24  C   LIG    1        7.301  -0.029  -3.929  0.00  0.00    +0.180 A 
ATOM     25  C   LIG    1        6.451   0.616  -4.815  0.00  0.00    -0.010 A 
BRANCH  20  27
ATOM     26  C   LIG    1        5.788   0.591  -8.417  0.00  0.00    +0.250 C 
ATOM     27  O   LIG    1        5.676   0.948  -7.038  0.00  0.00    -0.310 OA
ENDBRANCH  20  27
ENDBRANCH  16  24
ENDBRANCH  15  18
ENDBRANCH   1  15
TORSDOF 5
