REMARK  Name = ZINCrD000000BtXo.1
REMARK                            x       y       z     vdW  Elec       q    Type
REMARK                         _______ _______ _______ _____ _____    ______ ____
ROOT
ATOM      1  C   LIG    1        0.407   3.856  -0.251  0.00  0.00    -0.190 A 
ATOM      2  C   LIG    1        0.668   2.487  -0.167  0.00  0.00    +0.170 A 
ATOM      3  C   LIG    1       -0.377   1.589  -0.135  0.00  0.00    -0.700 A 
ATOM      4  C   LIG    1       -1.686   2.038  -0.191  0.00  0.00    +0.180 A 
ATOM      5  C   LIG    1       -1.958   3.389  -0.268  0.00  0.00    -0.020 A 
ATOM      6  C   LIG    1       -0.919   4.307  -0.301  0.00  0.00    +0.230 A 
ENDROOT
BRANCH   1   8
ATOM      7  O   LIG    1        1.290   6.015  -0.359  0.00  0.00    -0.510 OA
ATOM      8  C   LIG    1        1.521   4.823  -0.286  0.00  0.00    +0.560 C 
ATOM      9  N   LIG    1        2.795   4.386  -0.237  0.00  0.00    -0.730 N 
ATOM     10  H   LIG    1        2.979   3.435  -0.178  0.00  0.00    +0.400 HD
BRANCH   9  11
ATOM     11  C   LIG    1        3.901   5.346  -0.271  0.00  0.00    +0.400 C 
BRANCH  11  12
ATOM     12  C   LIG    1        5.212   4.605  -0.204  0.00  0.00    -0.050 A 
ATOM     13  C   LIG    1        5.913   4.151  -1.257  0.00  0.00    -0.030 A 
ATOM     14  C   LIG    1        7.070   3.524  -0.740  0.00  0.00    -0.070 A 
ATOM     15  C   LIG    1        7.002   3.626   0.600  0.00  0.00    +0.190 A 
ATOM     16  O   LIG    1        5.874   4.281   0.919  0.00  0.00    -0.170 OA
ENDBRANCH  11  12
ENDBRANCH   9  11
ENDBRANCH   1   8
BRANCH   3  17
ATOM     17  S   LIG    1       -0.046  -0.139  -0.029  0.00  0.00    +2.690 S 
ATOM     18  O   LIG    1        1.214  -0.345  -0.653  0.00  0.00    -0.950 OA
ATOM     19  O   LIG    1       -1.234  -0.801  -0.440  0.00  0.00    -0.940 OA
BRANCH  17  20
ATOM     20  N   LIG    1        0.162  -0.501   1.574  0.00  0.00    -1.060 N 
ATOM     21  H   LIG    1        1.017  -0.830   1.890  0.00  0.00    +0.430 HD
BRANCH  20  22
ATOM     22  C   LIG    1       -0.896  -0.332   2.471  0.00  0.00    +0.120 A 
ATOM     23  C   LIG    1       -0.886   0.729   3.367  0.00  0.00    +0.040 A 
ATOM     24  C   LIG    1       -1.935   0.897   4.249  0.00  0.00    +0.040 A 
ATOM     25  C   LIG    1       -2.992   0.004   4.247  0.00  0.00    -0.030 A 
ATOM     26  C   LIG    1       -3.002  -1.057   3.359  0.00  0.00    +0.040 A 
ATOM     27 CL   LIG    1       -4.306   0.214   5.362  0.00  0.00    -0.060 Cl
ATOM     28  C   LIG    1       -1.958  -1.227   2.472  0.00  0.00    +0.060 A 
ENDBRANCH  20  22
ENDBRANCH  17  20
ENDBRANCH   3  17
BRANCH   6  29
ATOM     29  O   LIG    1       -1.185   5.635  -0.384  0.00  0.00    -0.470 OA
ATOM     30  H   LIG    1       -1.246   5.968  -1.289  0.00  0.00    +0.410 HD
ENDBRANCH   6  29
TORSDOF 7
