REMARK  Name = ZINCvU0000000HQL.0
REMARK                            x       y       z     vdW  Elec       q    Type
REMARK                         _______ _______ _______ _____ _____    ______ ____
ROOT
ATOM      1  C   LIG    1        3.154  -5.919  -0.061  0.00  0.00    +0.100 A 
ATOM      2  C   LIG    1        2.337  -4.806  -0.047  0.00  0.00    +0.040 A 
ATOM      3  C   LIG    1        2.902  -3.527  -0.045  0.00  0.00    -0.140 A 
ATOM      4  C   LIG    1        4.291  -3.381  -0.064  0.00  0.00    +0.060 A 
ATOM      5  C   LIG    1        5.101  -4.497  -0.073  0.00  0.00    -0.030 A 
ATOM      6  C   LIG    1        4.540  -5.766  -0.074  0.00  0.00    +0.140 A 
ENDROOT
BRANCH   3   7
ATOM      7  C   LIG    1        2.034  -2.335  -0.030  0.00  0.00    +0.570 C 
ATOM      8  N   LIG    1        2.580  -1.103  -0.029  0.00  0.00    -0.620 N 
ATOM      9  H   LIG    1        3.545  -1.000  -0.038  0.00  0.00    +0.420 HD
ATOM     10  O   LIG    1        0.825  -2.463  -0.019  0.00  0.00    -0.500 OA
BRANCH   8  11
ATOM     11  C   LIG    1        1.763   0.019  -0.015  0.00  0.00    +0.280 A 
ATOM     12  N   LIG    1        2.177   1.248  -0.012  0.00  0.00    -0.500 NA
ATOM     13  C   LIG    1        1.250   2.196   0.002  0.00  0.00    +0.130 A 
ATOM     14  C   LIG    1       -0.022   1.758   0.012  0.00  0.00    -0.110 A 
ATOM     15  S   LIG    1        0.002  -0.004   0.002  0.00  0.00    +0.210 S 
BRANCH  13  16
ATOM     16  C   LIG    1        1.592   3.639   0.006  0.00  0.00    -0.030 A 
ATOM     17  C   LIG    1        0.580   4.597   0.015  0.00  0.00    +0.030 A 
ATOM     18  C   LIG    1        0.903   5.939   0.024  0.00  0.00    +0.010 A 
ATOM     19  C   LIG    1        2.229   6.333   0.013  0.00  0.00    -0.080 A 
ATOM     20  C   LIG    1        3.238   5.386  -0.001  0.00  0.00    +0.000 A 
ATOM     21  C   LIG    1        2.576   7.800   0.018  0.00  0.00    +0.090 C 
ATOM     22  C   LIG    1        2.926   4.042  -0.005  0.00  0.00    +0.050 A 
ENDBRANCH  13  16
ENDBRANCH   8  11
ENDBRANCH   3   7
BRANCH   1  24
ATOM     23  C   LIG    1        1.181  -7.246  -0.048  0.00  0.00    +0.250 C 
ATOM     24  O   LIG    1        2.607  -7.164  -0.062  0.00  0.00    -0.300 OA
ENDBRANCH   1  24
BRANCH   6  25
ATOM     25  O   LIG    1        5.343  -6.862  -0.088  0.00  0.00    -0.290 OA
BRANCH  25  26
ATOM     26  C   LIG    1        6.753  -6.633  -0.100  0.00  0.00    +0.260 C 
BRANCH  26  27
ATOM     27  C   LIG    1        7.476  -7.954  -0.115  0.00  0.00    -0.100 A 
ATOM     28  C   LIG    1        7.825  -8.565   1.076  0.00  0.00    +0.030 A 
ATOM     29  C   LIG    1        8.484  -9.779   1.063  0.00  0.00    +0.010 A 
ATOM     30  C   LIG    1        8.804 -10.379  -0.141  0.00  0.00    +0.020 A 
ATOM     31  C   LIG    1        8.460  -9.767  -1.332  0.00  0.00    +0.010 A 
ATOM     32  C   LIG    1        7.796  -8.554  -1.318  0.00  0.00    +0.030 A 
ENDBRANCH  26  27
ENDBRANCH  25  26
ENDBRANCH   6  25
TORSDOF 7
