REMARK  Name = ZINCvU00000005Kz.0
REMARK                            x       y       z     vdW  Elec       q    Type
REMARK                         _______ _______ _______ _____ _____    ______ ____
ROOT
ATOM      1  O   LIG    1        6.218   2.817  -0.028  0.00  0.00    -0.520 OA
ATOM      2  C   LIG    1        6.245   1.605  -0.026  0.00  0.00    +0.520 C 
ATOM      3  N   LIG    1        7.426   0.956  -0.043  0.00  0.00    -0.670 N 
ATOM      4  H   LIG    1        7.449  -0.011   0.026  0.00  0.00    +0.410 HD
ENDROOT
BRANCH   3   5
ATOM      5  C   LIG    1        8.619   1.678  -0.162  0.00  0.00    +0.160 A 
ATOM      6  C   LIG    1        8.738   2.927   0.435  0.00  0.00    +0.010 A 
ATOM      7  C   LIG    1        9.915   3.640   0.318  0.00  0.00    +0.050 A 
ATOM      8  C   LIG    1       10.978   3.115  -0.391  0.00  0.00    -0.020 A 
ATOM      9  C   LIG    1       10.865   1.866  -0.990  0.00  0.00    +0.160 A 
ATOM     10  C   LIG    1        9.686   1.144  -0.870  0.00  0.00    -0.010 A 
BRANCH   9  11
ATOM     11  N   LIG    1       11.941   1.334  -1.708  0.00  0.00    -0.660 N 
ATOM     12  H   LIG    1       12.850   1.504  -1.416  0.00  0.00    +0.420 HD
ATOM     13  C   LIG    1       11.714   0.585  -2.805  0.00  0.00    +0.610 C 
ATOM     14  O   LIG    1       10.575   0.301  -3.124  0.00  0.00    -0.500 OA
BRANCH  13  15
ATOM     15  C   LIG    1       12.841   0.113  -3.615  0.00  0.00    -0.090 A 
ATOM     16  C   LIG    1       12.754  -0.654  -4.742  0.00  0.00    +0.050 A 
ATOM     17  C   LIG    1       14.067  -0.865  -5.190  0.00  0.00    -0.070 A 
ATOM     18  C   LIG    1       14.889  -0.234  -4.322  0.00  0.00    +0.210 A 
ATOM     19  O   LIG    1       14.147   0.354  -3.375  0.00  0.00    -0.170 OA
ENDBRANCH  13  15
ENDBRANCH   9  11
ENDBRANCH   3   5
BRANCH   2  20
ATOM     20  C   LIG    1        4.956   0.824  -0.004  0.00  0.00    +0.090 C 
BRANCH  20  21
ATOM     21  C   LIG    1        3.772   1.793   0.013  0.00  0.00    +0.070 C 
BRANCH  21  22
ATOM     22  C   LIG    1        2.484   1.012   0.035  0.00  0.00    +0.400 C 
ATOM     23  O   LIG    1        2.510  -0.201   0.037  0.00  0.00    -0.450 OA
BRANCH  22  24
ATOM     24  C   LIG    1        1.194   1.720   0.054  0.00  0.00    -0.180 A 
ATOM     25  C   LIG    1        1.157   3.118   0.051  0.00  0.00    +0.060 A 
ATOM     26  C   LIG    1       -0.057   3.765   0.072  0.00  0.00    +0.000 A 
ATOM     27  C   LIG    1       -1.248   3.046   0.096  0.00  0.00    -0.040 A 
ATOM     28  C   LIG    1       -2.535   3.828   0.133  0.00  0.00    +0.070 C 
ATOM     29  C   LIG    1       -3.710   2.946  -0.296  0.00  0.00    +0.020 C 
ATOM     30  C   LIG    1       -3.672   1.661   0.539  0.00  0.00    +0.020 C 
ATOM     31  C   LIG    1       -2.472   0.830   0.090  0.00  0.00    +0.080 C 
ATOM     32  C   LIG    1       -1.219   1.667   0.087  0.00  0.00    -0.090 A 
ATOM     33  C   LIG    1       -0.003   1.003   0.075  0.00  0.00    +0.070 A 
ENDBRANCH  22  24
ENDBRANCH  21  22
ENDBRANCH  20  21
ENDBRANCH   2  20
TORSDOF 7
