REMARK  Name = ZINCrH00000tj1d9.1
REMARK                            x       y       z     vdW  Elec       q    Type
REMARK                         _______ _______ _______ _____ _____    ______ ____
ROOT
ATOM      1  C   LIG    1        3.839   1.569   2.322  0.00  0.00    +0.360 C 
ATOM      2  C   LIG    1        3.422   1.081   0.962  0.00  0.00    -0.180 A 
ATOM      3  C   LIG    1        2.478   1.073  -0.015  0.00  0.00    +0.110 A 
ATOM      4  N   LIG    1        2.958   0.277  -1.016  0.00  0.00    -0.380 N 
ATOM      5  H   LIG    1        2.495   0.089  -1.847  0.00  0.00    +0.450 HD
ATOM      6  N   LIG    1        4.113  -0.185  -0.693  0.00  0.00    -0.200 NA
ATOM      7  C   LIG    1        4.470   0.253   0.498  0.00  0.00    -0.040 A 
ATOM      8  C   LIG    1        5.519   0.228   1.533  0.00  0.00    +0.610 C 
ATOM      9  O   LIG    1        6.562  -0.389   1.448  0.00  0.00    -0.510 OA
ATOM     10  N   LIG    1        5.159   0.984   2.584  0.00  0.00    -0.600 N 
ENDROOT
BRANCH   1  15
ATOM     11  C   LIG    1        2.998   5.211   2.876  0.00  0.00    +0.140 A 
ATOM     12  C   LIG    1        4.104   5.836   2.318  0.00  0.00    -0.080 A 
ATOM     13  C   LIG    1        5.118   5.078   1.765  0.00  0.00    +0.040 A 
ATOM     14  C   LIG    1        5.034   3.698   1.772  0.00  0.00    +0.000 A 
ATOM     15  C   LIG    1        3.930   3.073   2.322  0.00  0.00    -0.040 A 
ATOM     16  C   LIG    1        2.913   3.826   2.876  0.00  0.00    +0.000 A 
BRANCH  11  17
ATOM     17  O   LIG    1        1.999   5.954   3.421  0.00  0.00    -0.320 OA
BRANCH  17  19
ATOM     18  C   LIG    1        0.939   8.036   4.040  0.00  0.00    +0.070 C 
ATOM     19  C   LIG    1        2.154   7.375   3.385  0.00  0.00    +0.180 C 
ENDBRANCH  17  19
ENDBRANCH  11  17
ENDBRANCH   1  15
BRANCH   3  20
ATOM     20  C   LIG    1        1.185   1.790   0.000  0.00  0.00    -0.070 A 
ATOM     21  C   LIG    1       -0.013   1.076   0.008  0.00  0.00    +0.050 A 
ATOM     22  C   LIG    1       -1.217   1.750   0.017  0.00  0.00    +0.000 A 
ATOM     23  C   LIG    1       -1.240   3.134   0.030  0.00  0.00    +0.040 A 
ATOM     24  C   LIG    1       -0.059   3.853   0.022  0.00  0.00    -0.010 A 
ATOM     25  C   LIG    1        1.157   3.190   0.008  0.00  0.00    +0.150 A 
BRANCH  25  26
ATOM     26  O   LIG    1        2.318   3.895  -0.000  0.00  0.00    -0.480 OA
ATOM     27  H   LIG    1        2.645   4.104  -0.886  0.00  0.00    +0.390 HD
ENDBRANCH  25  26
ENDBRANCH   3  20
BRANCH  10  28
ATOM     28  C   LIG    1        5.956   1.191   3.796  0.00  0.00    +0.320 C 
ATOM     29  C   LIG    1        6.862   2.409   3.609  0.00  0.00    +0.020 C 
ENDBRANCH  10  28
TORSDOF 6
