REMARK  Name = ZINCrH00000tj1d9.0
REMARK                            x       y       z     vdW  Elec       q    Type
REMARK                         _______ _______ _______ _____ _____    ______ ____
ROOT
ATOM      1  C   LIG    1        2.176   0.688   0.005  0.00  0.00    +0.360 C 
ATOM      2  C   LIG    1        1.542  -0.658  -0.210  0.00  0.00    -0.170 A 
ATOM      3  C   LIG    1        0.180  -0.485  -0.059  0.00  0.00    -0.060 A 
ATOM      4  C   LIG    1       -0.080   0.926   0.247  0.00  0.00    +0.600 C 
ATOM      5  O   LIG    1       -1.183   1.405   0.433  0.00  0.00    -0.520 OA
ATOM      6  N   LIG    1       -0.383  -1.714  -0.257  0.00  0.00    -0.330 N 
ATOM      7  H   LIG    1       -1.333  -1.905  -0.214  0.00  0.00    +0.450 HD
ATOM      8  N   LIG    1        0.533  -2.579  -0.510  0.00  0.00    -0.230 NA
ATOM      9  C   LIG    1        1.724  -2.015  -0.498  0.00  0.00    +0.120 A 
ATOM     10  N   LIG    1        1.073   1.617   0.287  0.00  0.00    -0.590 N 
ENDROOT
BRANCH   1  15
ATOM     11  C   LIG    1        5.351   0.695   2.054  0.00  0.00    +0.140 A 
ATOM     12  C   LIG    1        4.850   0.537   3.338  0.00  0.00    -0.070 A 
ATOM     13  C   LIG    1        3.487   0.429   3.538  0.00  0.00    +0.050 A 
ATOM     14  C   LIG    1        2.623   0.483   2.460  0.00  0.00    -0.010 A 
ATOM     15  C   LIG    1        3.121   0.635   1.179  0.00  0.00    -0.060 A 
ATOM     16  C   LIG    1        4.482   0.744   0.974  0.00  0.00    -0.010 A 
BRANCH  11  17
ATOM     17  O   LIG    1        6.692   0.801   1.855  0.00  0.00    -0.310 OA
BRANCH  17  19
ATOM     18  C   LIG    1        8.991   0.878   2.594  0.00  0.00    +0.070 C 
ATOM     19  C   LIG    1        7.526   0.742   3.013  0.00  0.00    +0.170 C 
ENDBRANCH  17  19
ENDBRANCH  11  17
ENDBRANCH   1  15
BRANCH   9  20
ATOM     20  C   LIG    1        3.020  -2.695  -0.746  0.00  0.00    -0.040 A 
ATOM     21  C   LIG    1        4.194  -1.951  -0.831  0.00  0.00    +0.050 A 
ATOM     22  C   LIG    1        5.398  -2.588  -1.057  0.00  0.00    +0.000 A 
ATOM     23  C   LIG    1        5.441  -3.962  -1.210  0.00  0.00    +0.040 A 
ATOM     24  C   LIG    1        4.281  -4.709  -1.131  0.00  0.00    -0.020 A 
ATOM     25  C   LIG    1        3.067  -4.083  -0.900  0.00  0.00    +0.130 A 
BRANCH  25  26
ATOM     26  O   LIG    1        1.926  -4.816  -0.824  0.00  0.00    -0.480 OA
ATOM     27  H   LIG    1        1.478  -4.936  -1.673  0.00  0.00    +0.390 HD
ENDBRANCH  25  26
ENDBRANCH   9  20
BRANCH  10  28
ATOM     28  C   LIG    1        1.207   3.050   0.562  0.00  0.00    +0.320 C 
ATOM     29  C   LIG    1        1.374   3.266   2.067  0.00  0.00    +0.020 C 
ENDBRANCH  10  28
TORSDOF 6
