REMARK  Name = ZINC650000002LA4.0
REMARK                            x       y       z     vdW  Elec       q    Type
REMARK                         _______ _______ _______ _____ _____    ______ ____
ROOT
ATOM      1  O   LIG    1        2.484  -0.917  -0.557  0.00  0.00    -0.930 OA
ATOM      2  S   LIG    1        1.516   0.025  -0.998  0.00  0.00    +2.410 S 
ATOM      3  C   LIG    1        0.002  -0.004   0.002  0.00  0.00    -0.340 C 
ATOM      4  C   LIG    1       -0.019   1.526   0.010  0.00  0.00    +0.110 C 
ATOM      5  O   LIG    1        1.260   0.267  -2.374  0.00  0.00    -0.910 OA
ATOM      6  C   LIG    1        1.512   1.543  -0.004  0.00  0.00    -0.340 C 
ENDROOT
TORSDOF 0
