REMARK  Name = ZINCtV00000L6kIC.0
REMARK                            x       y       z     vdW  Elec       q    Type
REMARK                         _______ _______ _______ _____ _____    ______ ____
ROOT
ATOM      1  C   LIG    1       -0.377   7.689  -0.367  0.00  0.00    +0.000 C 
ATOM      2  C   LIG    1       -1.651   7.718   0.482  0.00  0.00    +0.040 C 
ATOM      3  C   LIG    1       -2.573   6.568   0.062  0.00  0.00    +0.140 C 
ATOM      4  C   LIG    1       -1.768   5.288   0.046  0.00  0.00    +0.040 A 
ATOM      5  C   LIG    1       -0.425   5.256   0.032  0.00  0.00    -0.180 A 
ATOM      6  C   LIG    1       -0.037   3.847   0.022  0.00  0.00    -0.100 A 
ATOM      7  C   LIG    1        1.179   3.166   0.007  0.00  0.00    +0.050 A 
ATOM      8  C   LIG    1        1.188   1.782   0.000  0.00  0.00    +0.130 A 
ATOM      9  C   LIG    1       -0.013   1.076   0.008  0.00  0.00    +0.040 A 
ATOM     10  C   LIG    1       -1.218   1.742   0.017  0.00  0.00    +0.060 A 
ATOM     11  C   LIG    1       -1.247   3.131   0.031  0.00  0.00    +0.050 A 
ATOM     12  O   LIG    1       -2.251   4.035   0.045  0.00  0.00    -0.190 OA
ATOM     13  C   LIG    1        0.467   6.470   0.027  0.00  0.00    +0.110 C 
ENDROOT
BRANCH   1  14
ATOM     14  C   LIG    1        0.428   8.967  -0.122  0.00  0.00    -0.060 C 
ATOM     15  C   LIG    1        1.701   8.938  -0.971  0.00  0.00    +0.020 C 
ATOM     16  C   LIG    1        0.804   9.058   1.358  0.00  0.00    +0.030 C 
BRANCH  14  18
ATOM     17  C   LIG    1        0.390  11.461  -0.266  0.00  0.00    +0.010 C 
ATOM     18  C   LIG    1       -0.415  10.183  -0.510  0.00  0.00    +0.010 C 
ENDBRANCH  14  18
ENDBRANCH   1  14
BRANCH   8  19
ATOM     19  N   LIG    1        2.405   1.092  -0.015  0.00  0.00    -1.050 N 
ATOM     20  H   LIG    1        3.125   1.366   0.574  0.00  0.00    +0.430 HD
BRANCH  19  21
ATOM     21  S   LIG    1        2.615  -0.193  -1.038  0.00  0.00    +2.690 S 
ATOM     22  O   LIG    1        1.476  -1.027  -0.874  0.00  0.00    -0.950 OA
ATOM     23  O   LIG    1        3.946  -0.649  -0.841  0.00  0.00    -0.950 OA
BRANCH  21  24
ATOM     24  C   LIG    1        2.541   0.432  -2.683  0.00  0.00    -0.680 A 
ATOM     25  C   LIG    1        1.329   0.491  -3.346  0.00  0.00    +0.130 A 
ATOM     26  C   LIG    1        1.270   0.986  -4.636  0.00  0.00    -0.010 A 
ATOM     27  C   LIG    1        2.425   1.414  -5.266  0.00  0.00    -0.020 A 
ATOM     28  C   LIG    1        3.637   1.349  -4.604  0.00  0.00    -0.010 A 
ATOM     29  C   LIG    1        2.361   1.950  -6.673  0.00  0.00    +0.090 C 
ATOM     30  C   LIG    1        3.695   0.859  -3.313  0.00  0.00    +0.130 A 
ENDBRANCH  21  24
ENDBRANCH  19  21
ENDBRANCH   8  19
TORSDOF 5
