REMARK  Name = ZINCqH0000006ieI.0
REMARK                            x       y       z     vdW  Elec       q    Type
REMARK                         _______ _______ _______ _____ _____    ______ ____
ROOT
ATOM      1  C   LIG    1        7.003  -1.077  -1.007  0.00  0.00    +0.450 A 
ATOM      2  C   LIG    1        5.723  -1.254  -0.451  0.00  0.00    -0.290 A 
ATOM      3  C   LIG    1        5.130  -2.223   0.387  0.00  0.00    +0.330 A 
ATOM      4  N   LIG    1        3.890  -1.883   0.599  0.00  0.00    -0.240 NA
ATOM      5  N   LIG    1        3.602  -0.695  -0.084  0.00  0.00    -0.330 N 
ATOM      6  C   LIG    1        4.732  -0.293  -0.737  0.00  0.00    +0.370 A 
ATOM      7  N   LIG    1        5.045   0.738  -1.518  0.00  0.00    -0.550 NA
ATOM      8  C   LIG    1        6.256   0.860  -2.015  0.00  0.00    +0.600 A 
ATOM      9  N   LIG    1        7.216  -0.015  -1.774  0.00  0.00    -0.590 NA
ENDROOT
BRANCH   5  10
ATOM     10  C   LIG    1        2.369  -0.031  -0.092  0.00  0.00    +0.150 A 
ATOM     11  C   LIG    1        1.186  -0.759  -0.066  0.00  0.00    +0.020 A 
ATOM     12  C   LIG    1       -0.028  -0.101  -0.074  0.00  0.00    +0.030 A 
ATOM     13  C   LIG    1       -0.067   1.281  -0.107  0.00  0.00    +0.010 A 
ATOM     14  C   LIG    1        1.108   2.009  -0.134  0.00  0.00    +0.030 A 
ATOM     15  C   LIG    1        2.326   1.357  -0.126  0.00  0.00    +0.020 A 
ENDBRANCH   5  10
BRANCH   1  16
ATOM     16  O   LIG    1        7.992  -1.968  -0.767  0.00  0.00    -0.230 OA
BRANCH  16  20
ATOM     17  C   LIG    1       11.586  -1.451  -2.725  0.00  0.00    -0.070 A 
ATOM     18  C   LIG    1       11.269  -0.651  -1.643  0.00  0.00    +0.030 A 
ATOM     19  C   LIG    1       10.066  -0.823  -0.985  0.00  0.00    +0.030 A 
ATOM     20  C   LIG    1        9.176  -1.798  -1.412  0.00  0.00    +0.080 A 
ATOM     21  C   LIG    1        9.499  -2.601  -2.496  0.00  0.00    +0.020 A 
ATOM     22  C   LIG    1       10.700  -2.423  -3.153  0.00  0.00    +0.030 A 
BRANCH  17  23
ATOM     23  C   LIG    1       12.899  -1.262  -3.441  0.00  0.00    +0.080 C 
BRANCH  23  24
ATOM     24  C   LIG    1       13.963  -2.152  -2.797  0.00  0.00    +0.170 C 
BRANCH  24  26
ATOM     25  C   LIG    1       16.276  -2.763  -2.950  0.00  0.00    +0.200 C 
ATOM     26  O   LIG    1       15.208  -1.972  -3.476  0.00  0.00    -0.390 OA
ENDBRANCH  24  26
ENDBRANCH  23  24
ENDBRANCH  17  23
ENDBRANCH  16  20
ENDBRANCH   1  16
TORSDOF 6
