REMARK  Name = ZINCkj000005iJwL.0
REMARK                            x       y       z     vdW  Elec       q    Type
REMARK                         _______ _______ _______ _____ _____    ______ ____
ROOT
ATOM      1  N   LIG    1        0.289   0.658  -3.155  0.00  0.00    -0.690 N 
ATOM      2  H   LIG    1       -0.079  -0.202  -2.900  0.00  0.00    +0.410 HD
ATOM      3  C   LIG    1        0.028   1.751  -2.411  0.00  0.00    +0.510 C 
ATOM      4  O   LIG    1        0.489   2.826  -2.730  0.00  0.00    -0.520 OA
ENDROOT
BRANCH   3   5
ATOM      5  C   LIG    1       -0.837   1.636  -1.182  0.00  0.00    +0.180 C 
ATOM      6  C   LIG    1       -0.013   1.086   0.008  0.00  0.00    +0.120 C 
ATOM      7  C   LIG    1       -0.815   1.624   1.222  0.00  0.00    +0.210 C 
ATOM      8  C   LIG    1       -1.304   3.004   0.731  0.00  0.00    +0.230 C 
ATOM      9  N   LIG    1       -1.287   2.974  -0.743  0.00  0.00    -0.500 N 
ATOM     10  H   LIG    1       -2.216   3.153  -1.097  0.00  0.00    +0.440 HD
ATOM     11  H   LIG    1       -0.652   3.677  -1.090  0.00  0.00    +0.440 HD
BRANCH   7  12
ATOM     12  O   LIG    1        0.030   1.764   2.365  0.00  0.00    -0.540 OA
ATOM     13  H   LIG    1       -0.423   2.097   3.151  0.00  0.00    +0.400 HD
ENDBRANCH   7  12
ENDBRANCH   3   5
BRANCH   1  14
ATOM     14  C   LIG    1        1.130   0.769  -4.350  0.00  0.00    +0.300 C 
ATOM     15  C   LIG    1        2.603   0.668  -3.948  0.00  0.00    +0.060 C 
BRANCH  14  19
ATOM     16  C   LIG    1        0.174  -2.390  -7.065  0.00  0.00    +0.170 A 
ATOM     17  C   LIG    1        0.230  -2.638  -5.701  0.00  0.00    -0.060 A 
ATOM     18  C   LIG    1        0.544  -1.616  -4.826  0.00  0.00    +0.070 A 
ATOM     19  C   LIG    1        0.793  -0.344  -5.307  0.00  0.00    -0.140 A 
ATOM     20  C   LIG    1        0.738  -0.093  -6.666  0.00  0.00    +0.110 A 
ATOM     21  C   LIG    1        0.429  -1.113  -7.546  0.00  0.00    -0.120 A 
ATOM     22 BR   LIG    1        0.354  -0.770  -9.404  0.00  0.00    -0.020 Br
BRANCH  16  24
ATOM     23  C   LIG    1       -0.380  -4.683  -7.362  0.00  0.00    +0.250 C 
ATOM     24  O   LIG    1       -0.130  -3.395  -7.928  0.00  0.00    -0.300 OA
ENDBRANCH  16  24
ENDBRANCH  14  19
ENDBRANCH   1  14
TORSDOF 5
