REMARK  Name = ZINCvU0000000Eww.0
REMARK                            x       y       z     vdW  Elec       q    Type
REMARK                         _______ _______ _______ _____ _____    ______ ____
ROOT
ATOM      1  C   LIG    1       -2.072   2.502  -3.459  0.00  0.00    +0.150 A 
ATOM      2  C   LIG    1       -1.050   3.261  -2.904  0.00  0.00    +0.020 A 
ATOM      3  C   LIG    1       -0.378   2.802  -1.789  0.00  0.00    +0.040 A 
ATOM      4  C   LIG    1       -0.722   1.587  -1.224  0.00  0.00    -0.100 A 
ATOM      5  C   LIG    1       -1.735   0.826  -1.777  0.00  0.00    +0.050 A 
ATOM      6  C   LIG    1       -2.415   1.282  -2.889  0.00  0.00    -0.010 A 
ENDROOT
BRANCH   1   8
ATOM      7  C   LIG    1       -2.987   4.283  -4.744  0.00  0.00    +0.520 C 
ATOM      8  N   LIG    1       -2.755   2.964  -4.589  0.00  0.00    -0.670 N 
ATOM      9  H   LIG    1       -3.062   2.336  -5.261  0.00  0.00    +0.410 HD
ATOM     10  O   LIG    1       -2.531   5.076  -3.947  0.00  0.00    -0.500 OA
BRANCH   7  11
ATOM     11  C   LIG    1       -3.812   4.772  -5.906  0.00  0.00    +0.040 C 
ATOM     12  C   LIG    1       -5.211   4.157  -5.832  0.00  0.00    +0.050 C 
BRANCH  11  17
ATOM     13  C   LIG    1       -4.227  10.531  -5.688  0.00  0.00    +0.090 C 
ATOM     14  C   LIG    1       -4.118   9.030  -5.745  0.00  0.00    -0.080 A 
ATOM     15  C   LIG    1       -3.542   8.419  -6.843  0.00  0.00    +0.000 A 
ATOM     16  C   LIG    1       -3.443   7.041  -6.895  0.00  0.00    +0.010 A 
ATOM     17  C   LIG    1       -3.920   6.274  -5.849  0.00  0.00    -0.080 A 
ATOM     18  C   LIG    1       -4.501   6.884  -4.753  0.00  0.00    +0.040 A 
ATOM     19  C   LIG    1       -4.595   8.262  -4.698  0.00  0.00    +0.000 A 
ENDBRANCH  11  17
ENDBRANCH   7  11
ENDBRANCH   1   8
BRANCH   4  20
ATOM     20  C   LIG    1        0.015   1.089  -0.007  0.00  0.00    +0.210 C 
BRANCH  20  21
ATOM     21  C   LIG    1       -0.681   1.578   1.237  0.00  0.00    +0.060 A 
ATOM     22  N   LIG    1       -1.625   0.948   1.847  0.00  0.00    -0.450 NA
ATOM     23  C   LIG    1       -2.128   1.517   2.932  0.00  0.00    +0.140 A 
ATOM     24  C   LIG    1       -1.571   2.706   3.239  0.00  0.00    -0.050 A 
ATOM     25  S   LIG    1       -0.335   3.051   2.032  0.00  0.00    +0.140 S 
BRANCH  23  26
ATOM     26  C   LIG    1       -3.213   0.903   3.737  0.00  0.00    +0.140 A 
ATOM     27  N   LIG    1       -3.756   1.413   4.822  0.00  0.00    -0.280 NA
ATOM     28  N   LIG    1       -4.742   0.526   5.273  0.00  0.00    -0.370 N 
ATOM     29  C   LIG    1       -4.771  -0.532   4.436  0.00  0.00    +0.080 A 
ATOM     30  C   LIG    1       -5.681  -1.728   4.550  0.00  0.00    +0.150 C 
ATOM     31  C   LIG    1       -5.592   0.713   6.452  0.00  0.00    +0.360 C 
ATOM     32  C   LIG    1       -3.841  -0.331   3.477  0.00  0.00    -0.090 A 
ENDBRANCH  23  26
ENDBRANCH  20  21
ENDBRANCH   4  20
TORSDOF 6
