REMARK  Name = ZINCrD00000hQ680.0
REMARK                            x       y       z     vdW  Elec       q    Type
REMARK                         _______ _______ _______ _____ _____    ______ ____
ROOT
ATOM      1  C   LIG    1        3.672   2.182  -0.021  0.00  0.00    +0.220 C 
ATOM      2  C   LIG    1        4.033   2.560  -1.460  0.00  0.00    +0.200 C 
ATOM      3  N   LIG    1        5.335   3.244  -1.470  0.00  0.00    -0.470 N 
ATOM      4  C   LIG    1        6.380   2.383  -0.897  0.00  0.00    +0.140 C 
ATOM      5  C   LIG    1        5.995   2.007   0.536  0.00  0.00    +0.240 C 
ATOM      6  C   LIG    1        6.515   1.113  -1.740  0.00  0.00    +0.030 C 
ATOM      7  O   LIG    1        4.714   1.372   0.529  0.00  0.00    -0.370 OA
ENDROOT
BRANCH   1  14
ATOM      8  C   LIG    1        1.150   3.592   0.010  0.00  0.00    +0.090 C 
ATOM      9  C   LIG    1        1.171   2.086   0.002  0.00  0.00    -0.070 A 
ATOM     10  C   LIG    1       -0.017   1.378   0.010  0.00  0.00    +0.000 A 
ATOM     11  C   LIG    1        0.002  -0.004   0.002  0.00  0.00    +0.010 A 
ATOM     12  C   LIG    1        1.208  -0.679  -0.014  0.00  0.00    -0.010 A 
ATOM     13  C   LIG    1        2.396   0.029  -0.022  0.00  0.00    +0.040 A 
ATOM     14  C   LIG    1        2.377   1.411  -0.014  0.00  0.00    -0.090 A 
ENDBRANCH   1  14
BRANCH   3  15
ATOM     15  C   LIG    1        5.672   3.650  -2.749  0.00  0.00    +0.530 A 
ATOM     16  N   LIG    1        5.936   4.929  -2.972  0.00  0.00    -0.530 NA
ATOM     17  C   LIG    1        6.269   5.354  -4.183  0.00  0.00    +0.360 A 
ATOM     18  C   LIG    1        6.328   4.450  -5.224  0.00  0.00    -0.160 A 
ATOM     19  C   LIG    1        6.039   3.109  -4.960  0.00  0.00    +0.450 A 
ATOM     20  N   LIG    1        5.718   2.751  -3.721  0.00  0.00    -0.590 NA
BRANCH  19  21
ATOM     21  N   LIG    1        6.085   2.167  -5.974  0.00  0.00    -0.710 N 
ATOM     22  H   LIG    1        5.883   1.238  -5.783  0.00  0.00    +0.410 HD
BRANCH  21  23
ATOM     23  C   LIG    1        6.441   2.574  -7.336  0.00  0.00    +0.210 C 
ATOM     24  C   LIG    1        7.021   1.375  -8.093  0.00  0.00    +0.020 C 
ATOM     25  C   LIG    1        7.316   1.792  -9.537  0.00  0.00    +0.010 C 
ATOM     26  C   LIG    1        6.030   2.318 -10.181  0.00  0.00    +0.200 C 
ATOM     27  O   LIG    1        5.526   3.411  -9.410  0.00  0.00    -0.370 OA
ATOM     28  C   LIG    1        5.189   3.070  -8.065  0.00  0.00    +0.210 C 
ENDBRANCH  21  23
ENDBRANCH  19  21
ENDBRANCH   3  15
TORSDOF 4
