REMARK  Name = ZINCpe00000bl8aN.0
REMARK                            x       y       z     vdW  Elec       q    Type
REMARK                         _______ _______ _______ _____ _____    ______ ____
ROOT
ATOM      1  C   LIG    1       -0.609   5.798  -1.480  0.00  0.00    +0.250 C 
ATOM      2  C   LIG    1        0.392   5.869  -2.635  0.00  0.00    +0.000 C 
ATOM      3  C   LIG    1       -0.285   5.389  -3.923  0.00  0.00    +0.290 C 
ATOM      4  N   LIG    1       -1.508   6.175  -4.135  0.00  0.00    -0.590 N 
ATOM      5  C   LIG    1       -2.498   6.248  -3.051  0.00  0.00    +0.240 C 
ATOM      6  C   LIG    1       -3.598   7.242  -3.427  0.00  0.00    +0.060 C 
ATOM      7  C   LIG    1       -1.719   6.817  -5.301  0.00  0.00    +0.600 C 
ATOM      8  O   LIG    1       -2.772   7.390  -5.497  0.00  0.00    -0.490 OA
ATOM      9  C   LIG    1       -1.796   6.718  -1.773  0.00  0.00    +0.030 C 
ENDROOT
BRANCH   7  10
ATOM     10  C   LIG    1       -0.664   6.823  -6.346  0.00  0.00    +0.270 A 
ATOM     11  N   LIG    1       -0.041   5.692  -6.640  0.00  0.00    -0.460 NA
ATOM     12  C   LIG    1        0.899   5.659  -7.567  0.00  0.00    +0.310 A 
ATOM     13  C   LIG    1        1.238   6.835  -8.229  0.00  0.00    +0.020 A 
ATOM     14  C   LIG    1        0.565   8.004  -7.889  0.00  0.00    +0.320 A 
ATOM     15  F   LIG    1        2.198   6.840  -9.180  0.00  0.00    -0.110 F 
ATOM     16  N   LIG    1       -0.367   7.961  -6.956  0.00  0.00    -0.450 NA
ENDBRANCH   7  10
BRANCH   1  18
ATOM     17  C   LIG    1        0.753   5.338   0.488  0.00  0.00    +0.520 C 
ATOM     18  N   LIG    1        0.045   6.224  -0.241  0.00  0.00    -0.720 N 
ATOM     19  H   LIG    1       -0.031   7.145   0.056  0.00  0.00    +0.400 HD
ATOM     20  O   LIG    1        0.848   4.188   0.117  0.00  0.00    -0.510 OA
BRANCH  17  25
ATOM     21  C   LIG    1        4.889   7.000   2.911  0.00  0.00    +0.180 C 
ATOM     22  C   LIG    1        3.645   6.248   2.512  0.00  0.00    +0.090 C 
ATOM     23  N   LIG    1        3.259   5.133   2.999  0.00  0.00    -0.280 NA
ATOM     24  O   LIG    1        2.056   4.662   2.425  0.00  0.00    -0.170 OA
ATOM     25  C   LIG    1        1.426   5.777   1.763  0.00  0.00    +0.130 C 
ATOM     26  C   LIG    1        2.641   6.688   1.464  0.00  0.00    +0.080 C 
ENDBRANCH  17  25
ENDBRANCH   1  18
TORSDOF 3
