REMARK  Name = ZINCbw0000000Hgc.0
REMARK                            x       y       z     vdW  Elec       q    Type
REMARK                         _______ _______ _______ _____ _____    ______ ____
ROOT
ATOM      1  C   LIG    1       -0.017   1.389   0.010  0.00  0.00    +0.040 A 
ATOM      2  C   LIG    1        0.002  -0.004   0.002  0.00  0.00    +0.220 A 
ATOM      3  C   LIG    1        1.215  -0.678  -0.013  0.00  0.00    -0.030 A 
ATOM      4  C   LIG    1        2.401   0.033  -0.021  0.00  0.00    +0.020 A 
ATOM      5  C   LIG    1        2.381   1.417  -0.013  0.00  0.00    +0.020 A 
ATOM      6 CL   LIG    1        3.917  -0.811  -0.039  0.00  0.00    -0.050 Cl
ATOM      7  C   LIG    1        1.175   2.095   0.002  0.00  0.00    -0.050 A 
ATOM      8 BR   LIG    1        1.154   3.986   0.012  0.00  0.00    -0.020 Br
ENDROOT
BRANCH   2   9
ATOM      9  N   LIG    1       -1.199  -0.722   0.010  0.00  0.00    -0.860 N 
ATOM     10  H   LIG    1       -1.185  -1.692   0.005  0.00  0.00    +0.410 HD
ATOM     11  H   LIG    1       -2.046  -0.250   0.021  0.00  0.00    +0.410 HD
ENDBRANCH   2   9
BRANCH   1  13
ATOM     12  C   LIG    1       -1.763   2.365   1.296  0.00  0.00    +0.230 C 
ATOM     13  O   LIG    1       -1.203   2.054   0.019  0.00  0.00    -0.320 OA
ENDBRANCH   1  13
TORSDOF 2
