REMARK  Name = ZINCrD00000F5Lrz.0
REMARK                            x       y       z     vdW  Elec       q    Type
REMARK                         _______ _______ _______ _____ _____    ______ ____
ROOT
ATOM      1  C   LIG    1       -1.141  -2.109   0.002  0.00  0.00    +0.410 C 
ATOM      2  O   LIG    1       -0.081  -2.701  -0.012  0.00  0.00    -0.430 OA
ENDROOT
BRANCH   1   4
ATOM      3  C   LIG    1        0.002  -0.004   0.002  0.00  0.00    +0.160 C 
ATOM      4  C   LIG    1       -1.160  -0.696   0.009  0.00  0.00    -0.110 C 
BRANCH   3   8
ATOM      5  C   LIG    1       -0.056   4.241   0.024  0.00  0.00    -0.120 A 
ATOM      6  C   LIG    1        1.164   3.560   0.010  0.00  0.00    +0.080 A 
ATOM      7  C   LIG    1        1.184   2.184   0.003  0.00  0.00    +0.050 A 
ATOM      8  C   LIG    1       -0.018   1.467   0.010  0.00  0.00    -0.070 A 
ATOM      9  C   LIG    1       -1.239   2.151   0.020  0.00  0.00    +0.040 A 
ATOM     10  C   LIG    1       -1.256   3.527   0.032  0.00  0.00    +0.040 A 
BRANCH   5  14
ATOM     11  C   LIG    1       -1.272   7.843   0.053  0.00  0.00    +0.290 C 
ATOM     12  N   LIG    1       -1.252   6.378   0.046  0.00  0.00    -0.730 N 
ATOM     13  H   LIG    1       -2.085   5.882   0.051  0.00  0.00    +0.400 HD
ATOM     14  C   LIG    1       -0.076   5.720   0.032  0.00  0.00    +0.550 C 
ATOM     15  O   LIG    1        0.969   6.342   0.025  0.00  0.00    -0.530 OA
ENDBRANCH   5  14
ENDBRANCH   3   8
ENDBRANCH   1   4
BRANCH   1  16
ATOM     16  C   LIG    1       -2.435  -2.880   0.010  0.00  0.00    +0.190 C 
BRANCH  16  17
ATOM     17  C   LIG    1       -2.214  -4.240  -0.600  0.00  0.00    +0.160 A 
ATOM     18  C   LIG    1       -1.738  -5.272   0.186  0.00  0.00    +0.010 A 
ATOM     19  C   LIG    1       -1.542  -6.521  -0.384  0.00  0.00    +0.140 A 
ATOM     20  C   LIG    1       -1.824  -6.683  -1.731  0.00  0.00    -0.230 A 
ATOM     21  C   LIG    1       -2.292  -5.603  -2.456  0.00  0.00    +0.340 A 
ATOM     22  N   LIG    1       -2.471  -4.430  -1.879  0.00  0.00    -0.460 NA
BRANCH  20  23
ATOM     23  C   LIG    1       -1.621  -8.019  -2.398  0.00  0.00    +0.520 C 
ATOM     24  F   LIG    1       -2.425  -8.978  -1.773  0.00  0.00    -0.170 F 
ATOM     25  F   LIG    1       -0.278  -8.395  -2.291  0.00  0.00    -0.170 F 
ATOM     26  F   LIG    1       -1.973  -7.924  -3.749  0.00  0.00    -0.170 F 
ENDBRANCH  20  23
ENDBRANCH  16  17
BRANCH  16  27
ATOM     27  C   LIG    1       -2.906  -3.034   1.396  0.00  0.00    +0.210 C 
ATOM     28  N   LIG    1       -3.268  -3.154   2.466  0.00  0.00    -0.380 NA
ENDBRANCH  16  27
ENDBRANCH   1  16
TORSDOF 7
