REMARK  Name = ZINCnE000001TzLl.0
REMARK                            x       y       z     vdW  Elec       q    Type
REMARK                         _______ _______ _______ _____ _____    ______ ____
ROOT
ATOM      1  C   LIG    1        0.179   3.766  -0.252  0.00  0.00    +0.070 C 
ATOM      2  C   LIG    1        0.741   2.921   0.903  0.00  0.00    +0.300 C 
ATOM      3  N   LIG    1       -0.383   2.730   1.825  0.00  0.00    -0.550 N 
ATOM      4  C   LIG    1       -1.524   3.370   1.325  0.00  0.00    +0.140 A 
ATOM      5  C   LIG    1       -2.806   3.445   1.870  0.00  0.00    +0.000 A 
ATOM      6  C   LIG    1       -3.803   4.134   1.212  0.00  0.00    +0.010 A 
ATOM      7  C   LIG    1       -3.539   4.755   0.005  0.00  0.00    -0.020 A 
ATOM      8  C   LIG    1       -2.271   4.686  -0.541  0.00  0.00    +0.040 A 
ATOM      9  C   LIG    1       -0.325   2.040   2.981  0.00  0.00    +0.530 C 
ATOM     10  O   LIG    1       -1.332   1.869   3.635  0.00  0.00    -0.530 OA
ATOM     11  C   LIG    1       -1.269   3.997   0.115  0.00  0.00    -0.120 A 
ENDROOT
BRANCH   9  12
ATOM     12  C   LIG    1        0.990   1.482   3.461  0.00  0.00    -0.010 C 
ATOM     13  C   LIG    1        1.125   0.029   2.999  0.00  0.00    +0.060 C 
ATOM     14  C   LIG    1        2.460  -0.538   3.486  0.00  0.00    +0.030 C 
ATOM     15  C   LIG    1        2.511  -0.482   5.014  0.00  0.00    +0.290 C 
ATOM     16  C   LIG    1        2.375   0.971   5.476  0.00  0.00    +0.030 C 
ATOM     17  F   LIG    1        1.461  -1.240   5.544  0.00  0.00    -0.200 F 
ATOM     18  F   LIG    1        3.732  -1.000   5.460  0.00  0.00    -0.200 F 
ATOM     19  C   LIG    1        1.040   1.538   4.989  0.00  0.00    +0.070 C 
ENDBRANCH   9  12
BRANCH   1  20
ATOM     20  C   LIG    1        0.925   5.099  -0.349  0.00  0.00    -0.040 C 
BRANCH  20  22
ATOM     21  O   LIG    1        2.734   3.713  -0.982  0.00  0.00    -0.700 OA
ATOM     22  C   LIG    1        2.363   4.844  -0.720  0.00  0.00    +0.490 C 
ATOM     23  O   LIG    1        3.155   5.770  -0.759  0.00  0.00    -0.700 OA
ENDBRANCH  20  22
ENDBRANCH   1  20
TORSDOF 3
