REMARK  Name = ZINCpe00000RhfCR.0
REMARK                            x       y       z     vdW  Elec       q    Type
REMARK                         _______ _______ _______ _____ _____    ______ ____
ROOT
ATOM      1  C   LIG    1       -6.881  -3.922  -0.207  0.00  0.00    +0.010 C 
ATOM      2  C   LIG    1       -7.606  -2.950   0.727  0.00  0.00    +0.040 C 
ATOM      3  C   LIG    1       -7.667  -1.570   0.067  0.00  0.00    +0.050 C 
ATOM      4  C   LIG    1       -6.246  -1.097  -0.248  0.00  0.00    +0.190 C 
ATOM      5  N   LIG    1       -5.596  -2.060  -1.145  0.00  0.00    -0.500 N 
ATOM      6  C   LIG    1       -5.483  -3.381  -0.514  0.00  0.00    +0.240 C 
ENDROOT
BRANCH   5   7
ATOM      7  C   LIG    1       -4.359  -1.599  -1.553  0.00  0.00    +0.450 A 
ATOM      8  C   LIG    1       -3.375  -1.245  -0.611  0.00  0.00    -0.310 A 
ATOM      9  C   LIG    1       -3.308  -1.233   0.799  0.00  0.00    +0.300 A 
ATOM     10  N   LIG    1       -2.129  -0.807   1.153  0.00  0.00    -0.230 NA
ATOM     11  N   LIG    1       -1.372  -0.511   0.012  0.00  0.00    -0.380 N 
ATOM     12  C   LIG    1       -2.132  -0.782  -1.086  0.00  0.00    +0.350 A 
ATOM     13  N   LIG    1       -1.939  -0.698  -2.402  0.00  0.00    -0.540 NA
ATOM     14  C   LIG    1       -2.889  -1.041  -3.243  0.00  0.00    +0.570 A 
ATOM     15  N   LIG    1       -4.070  -1.480  -2.844  0.00  0.00    -0.530 NA
BRANCH  11  16
ATOM     16  C   LIG    1        0.002  -0.004   0.002  0.00  0.00    +0.360 C 
BRANCH  16  17
ATOM     17  C   LIG    1       -0.019   1.526   0.010  0.00  0.00    +0.160 C 
BRANCH  17  18
ATOM     18  O   LIG    1        1.322   2.020   0.000  0.00  0.00    -0.570 OA
ATOM     19  H   LIG    1        1.385   2.985   0.005  0.00  0.00    +0.390 HD
ENDBRANCH  17  18
ENDBRANCH  16  17
ENDBRANCH  11  16
ENDBRANCH   5   7
BRANCH   1  22
ATOM     20  N   LIG    1       -7.877  -5.938   0.826  0.00  0.00    -0.730 N 
ATOM     21  H   LIG    1       -8.751  -5.552   0.660  0.00  0.00    +0.400 HD
ATOM     22  C   LIG    1       -6.765  -5.269   0.459  0.00  0.00    +0.520 C 
ATOM     23  O   LIG    1       -5.672  -5.751   0.666  0.00  0.00    -0.540 OA
BRANCH  20  24
ATOM     24  C   LIG    1       -7.764  -7.247   1.474  0.00  0.00    +0.260 C 
BRANCH  24  26
ATOM     25  C   LIG    1       -9.911  -8.044   0.474  0.00  0.00    +0.020 C 
ATOM     26  C   LIG    1       -9.162  -7.784   1.784  0.00  0.00    -0.030 C 
ATOM     27  C   LIG    1       -9.044  -9.091   2.571  0.00  0.00    +0.030 C 
ENDBRANCH  24  26
ENDBRANCH  20  24
ENDBRANCH   1  22
TORSDOF 7
