REMARK  Name = ZINCnE000001UaVT.0
REMARK                            x       y       z     vdW  Elec       q    Type
REMARK                         _______ _______ _______ _____ _____    ______ ____
ROOT
ATOM      1  C   LIG    1        1.221  -0.681  -0.013  0.00  0.00    +0.300 A 
ATOM      2  C   LIG    1        2.409   0.036  -0.021  0.00  0.00    -0.120 A 
ATOM      3  C   LIG    1        2.381   1.419  -0.013  0.00  0.00    +0.030 A 
ATOM      4  C   LIG    1        1.171   2.090   0.002  0.00  0.00    -0.070 A 
ATOM      5  C   LIG    1       -0.017   1.382   0.010  0.00  0.00    +0.060 A 
ATOM      6 CL   LIG    1        3.868   2.315  -0.022  0.00  0.00    -0.090 Cl
ATOM      7  C   LIG    1        0.002  -0.004   0.002  0.00  0.00    +0.060 A 
ENDROOT
BRANCH   7   8
ATOM      8  N   LIG    1       -1.202  -0.724   0.010  0.00  0.00    -0.280 N 
ATOM      9  C   LIG    1       -2.448  -0.213   0.031  0.00  0.00    +0.420 A 
ATOM     10  N   LIG    1       -3.296  -1.211   0.028  0.00  0.00    -0.550 NA
ATOM     11  C   LIG    1       -2.633  -2.366   0.016  0.00  0.00    +0.350 A 
ATOM     12  N   LIG    1       -1.349  -2.121   0.005  0.00  0.00    -0.230 NA
ENDBRANCH   7   8
BRANCH   1  13
ATOM     13  N   LIG    1        1.247  -2.079  -0.021  0.00  0.00    -1.030 NA
BRANCH  13  15
ATOM     14  O   LIG    1        3.299  -2.591  -1.294  0.00  0.00    -1.020 OA
ATOM     15  S   LIG    1        2.696  -2.881  -0.040  0.00  0.00    +2.600 S 
ATOM     16  O   LIG    1        3.322  -2.606   1.206  0.00  0.00    -1.020 OA
BRANCH  15  17
ATOM     17  C   LIG    1        2.337  -4.606  -0.046  0.00  0.00    -0.610 A 
ATOM     18  C   LIG    1        2.213  -5.290   1.148  0.00  0.00    +0.130 A 
ATOM     19  C   LIG    1        1.927  -6.643   1.144  0.00  0.00    +0.000 A 
ATOM     20  C   LIG    1        1.775  -7.313  -0.055  0.00  0.00    +0.080 A 
ATOM     21  C   LIG    1        1.904  -6.630  -1.251  0.00  0.00    -0.110 A 
ATOM     22 BR   LIG    1        1.696  -7.546  -2.892  0.00  0.00    -0.050 Br
ATOM     23  C   LIG    1        2.185  -5.275  -1.246  0.00  0.00    +0.160 A 
ENDBRANCH  15  17
ENDBRANCH  13  15
ENDBRANCH   1  13
TORSDOF 4
