REMARK  Name = ZINCqH0000035WVY.0
REMARK                            x       y       z     vdW  Elec       q    Type
REMARK                         _______ _______ _______ _____ _____    ______ ____
ROOT
ATOM      1  C   LIG    1        4.184   0.095  -1.462  0.00  0.00    +0.320 C 
ENDROOT
BRANCH   1   2
ATOM      2  C   LIG    1        3.933  -1.388  -1.357  0.00  0.00    +0.230 A 
ATOM      3  N   LIG    1        3.006  -2.049  -2.000  0.00  0.00    -0.280 NA
ATOM      4  N   LIG    1        3.126  -3.394  -1.615  0.00  0.00    -0.490 N 
ATOM      5  H   LIG    1        2.582  -4.137  -1.920  0.00  0.00    +0.440 HD
ATOM      6  C   LIG    1        4.141  -3.447  -0.735  0.00  0.00    +0.480 A 
ATOM      7  N   LIG    1        4.615  -2.236  -0.589  0.00  0.00    -0.540 NA
ENDBRANCH   1   2
BRANCH   1   8
ATOM      8  C   LIG    1        4.873   0.396  -2.767  0.00  0.00    -0.100 A 
ATOM      9  C   LIG    1        4.139   0.467  -3.936  0.00  0.00    +0.090 A 
ATOM     10  C   LIG    1        4.771   0.749  -5.133  0.00  0.00    +0.020 A 
ATOM     11  C   LIG    1        6.138   0.949  -5.163  0.00  0.00    +0.080 A 
ATOM     12  C   LIG    1        6.873   0.872  -3.994  0.00  0.00    -0.190 A 
ATOM     13  C   LIG    1        6.241   0.596  -2.797  0.00  0.00    +0.090 A 
BRANCH  12  14
ATOM     14  C   LIG    1        8.364   1.090  -4.027  0.00  0.00    +0.510 C 
ATOM     15  F   LIG    1        8.782   1.634  -2.808  0.00  0.00    -0.180 F 
ATOM     16  F   LIG    1        8.684   1.971  -5.065  0.00  0.00    -0.180 F 
ATOM     17  F   LIG    1        9.009  -0.134  -4.237  0.00  0.00    -0.180 F 
ENDBRANCH  12  14
ENDBRANCH   1   8
BRANCH   1  18
ATOM     18  N   LIG    1        2.904   0.813  -1.406  0.00  0.00    -0.670 NA
ATOM     19  H   LIG    1        2.954   1.681  -1.919  0.00  0.00    +0.350 HD
BRANCH  18  20
ATOM     20  C   LIG    1        2.490   1.045  -0.016  0.00  0.00    +0.240 C 
BRANCH  20  24
ATOM     21  C   LIG    1       -1.237   3.137   0.031  0.00  0.00    +0.130 A 
ATOM     22  C   LIG    1       -1.218   1.750   0.017  0.00  0.00    -0.080 A 
ATOM     23  C   LIG    1       -0.013   1.076   0.008  0.00  0.00    +0.070 A 
ATOM     24  C   LIG    1        1.176   1.783   0.000  0.00  0.00    -0.120 A 
ATOM     25  C   LIG    1        1.160   3.165   0.008  0.00  0.00    +0.060 A 
ATOM     26  C   LIG    1       -0.043   3.844   0.024  0.00  0.00    -0.020 A 
BRANCH  21  28
ATOM     27  C   LIG    1       -3.611   3.009   0.052  0.00  0.00    +0.250 C 
ATOM     28  O   LIG    1       -2.422   3.802   0.045  0.00  0.00    -0.320 OA
ENDBRANCH  21  28
ENDBRANCH  20  24
ENDBRANCH  18  20
ENDBRANCH   1  18
TORSDOF 7
