REMARK  Name = ZINCqH0000035WVY.1
REMARK                            x       y       z     vdW  Elec       q    Type
REMARK                         _______ _______ _______ _____ _____    ______ ____
ROOT
ATOM      1  C   LIG    1       -4.188  -0.035   1.445  0.00  0.00    +0.330 C 
ENDROOT
BRANCH   1   2
ATOM      2  C   LIG    1       -3.896  -1.509   1.325  0.00  0.00    +0.140 A 
ATOM      3  N   LIG    1       -3.238  -2.240   2.183  0.00  0.00    -0.270 NA
ATOM      4  N   LIG    1       -3.181  -3.454   1.763  0.00  0.00    -0.290 NA
ATOM      5  C   LIG    1       -3.792  -3.551   0.614  0.00  0.00    +0.380 A 
ATOM      6  N   LIG    1       -4.263  -2.320   0.303  0.00  0.00    -0.580 N 
ATOM      7  H   LIG    1       -4.762  -2.069  -0.490  0.00  0.00    +0.430 HD
ENDBRANCH   1   2
BRANCH   1   8
ATOM      8  C   LIG    1       -4.891   0.232   2.750  0.00  0.00    -0.070 A 
ATOM      9  C   LIG    1       -4.164   0.316   3.923  0.00  0.00    +0.100 A 
ATOM     10  C   LIG    1       -4.810   0.562   5.120  0.00  0.00    +0.020 A 
ATOM     11  C   LIG    1       -6.182   0.725   5.145  0.00  0.00    +0.070 A 
ATOM     12  C   LIG    1       -6.909   0.642   3.972  0.00  0.00    -0.190 A 
ATOM     13  C   LIG    1       -6.263   0.401   2.774  0.00  0.00    +0.070 A 
BRANCH  12  14
ATOM     14  C   LIG    1       -8.405   0.821   3.999  0.00  0.00    +0.510 C 
ATOM     15  F   LIG    1       -9.022  -0.338   3.514  0.00  0.00    -0.180 F 
ATOM     16  F   LIG    1       -8.760   1.909   3.194  0.00  0.00    -0.180 F 
ATOM     17  F   LIG    1       -8.823   1.057   5.313  0.00  0.00    -0.180 F 
ENDBRANCH  12  14
ENDBRANCH   1   8
BRANCH   1  18
ATOM     18  N   LIG    1       -2.927   0.718   1.404  0.00  0.00    -0.660 NA
ATOM     19  H   LIG    1       -2.202   0.237   1.914  0.00  0.00    +0.360 HD
BRANCH  18  20
ATOM     20  C   LIG    1       -2.513   0.977   0.019  0.00  0.00    +0.230 C 
BRANCH  20  24
ATOM     21  C   LIG    1        1.155   3.169   0.008  0.00  0.00    +0.130 A 
ATOM     22  C   LIG    1        1.175   1.782   0.000  0.00  0.00    -0.020 A 
ATOM     23  C   LIG    1       -0.013   1.076   0.008  0.00  0.00    +0.050 A 
ATOM     24  C   LIG    1       -1.220   1.750   0.017  0.00  0.00    -0.130 A 
ATOM     25  C   LIG    1       -1.242   3.133   0.031  0.00  0.00    +0.080 A 
ATOM     26  C   LIG    1       -0.057   3.844   0.023  0.00  0.00    -0.080 A 
BRANCH  21  28
ATOM     27  C   LIG    1        2.225   5.292   0.009  0.00  0.00    +0.250 C 
ATOM     28  O   LIG    1        2.322   3.866   0.000  0.00  0.00    -0.320 OA
ENDBRANCH  21  28
ENDBRANCH  20  24
ENDBRANCH  18  20
ENDBRANCH   1  18
TORSDOF 7
