REMARK  Name = ZINCqH0000035GDX.0
REMARK                            x       y       z     vdW  Elec       q    Type
REMARK                         _______ _______ _______ _____ _____    ______ ____
ROOT
ATOM      1  N   LIG    1       -3.731  -2.209  -2.118  0.00  0.00    -0.730 N 
ATOM      2  H   LIG    1       -3.422  -2.014  -3.016  0.00  0.00    +0.400 HD
ATOM      3  C   LIG    1       -3.015  -1.794  -1.054  0.00  0.00    +0.520 C 
ATOM      4  O   LIG    1       -3.402  -2.038   0.070  0.00  0.00    -0.510 OA
ENDROOT
BRANCH   1   5
ATOM      5  C   LIG    1       -4.976  -2.955  -1.917  0.00  0.00    +0.320 C 
BRANCH   5   8
ATOM      6  C   LIG    1       -5.788  -4.804  -5.111  0.00  0.00    +0.150 A 
ATOM      7  C   LIG    1       -5.237  -4.484  -3.880  0.00  0.00    -0.070 A 
ATOM      8  C   LIG    1       -5.577  -3.298  -3.256  0.00  0.00    -0.040 A 
ATOM      9  C   LIG    1       -6.470  -2.429  -3.854  0.00  0.00    -0.070 A 
ATOM     10  C   LIG    1       -7.021  -2.739  -5.088  0.00  0.00    +0.150 A 
ATOM     11  C   LIG    1       -6.682  -3.930  -5.719  0.00  0.00    +0.040 A 
BRANCH   6  13
ATOM     12  C   LIG    1       -4.530  -6.821  -5.042  0.00  0.00    +0.240 C 
ATOM     13  O   LIG    1       -5.454  -5.971  -5.724  0.00  0.00    -0.300 OA
ENDBRANCH   6  13
BRANCH  10  14
ATOM     14  O   LIG    1       -7.895  -1.881  -5.678  0.00  0.00    -0.300 OA
ATOM     15  C   LIG    1       -8.197  -0.675  -4.973  0.00  0.00    +0.240 C 
ENDBRANCH  10  14
BRANCH  11  16
ATOM     16  O   LIG    1       -7.226  -4.241  -6.927  0.00  0.00    -0.310 OA
ATOM     17  C   LIG    1       -8.453  -4.973  -6.918  0.00  0.00    +0.230 C 
ENDBRANCH  11  16
ENDBRANCH   5   8
ENDBRANCH   1   5
BRANCH   3  18
ATOM     18  C   LIG    1       -1.735  -1.027  -1.260  0.00  0.00    +0.230 C 
BRANCH  18  19
ATOM     19  O   LIG    1       -1.165  -0.701   0.010  0.00  0.00    -0.290 OA
BRANCH  19  20
ATOM     20  C   LIG    1        0.002  -0.004   0.002  0.00  0.00    +0.110 A 
ATOM     21  C   LIG    1       -0.017   1.384   0.010  0.00  0.00    -0.040 A 
ATOM     22  C   LIG    1        1.172   2.090   0.002  0.00  0.00    +0.060 A 
ATOM     23  C   LIG    1        2.378   1.415  -0.013  0.00  0.00    +0.060 A 
ATOM     24  C   LIG    1        2.400   0.033  -0.021  0.00  0.00    +0.060 A 
ATOM     25 CL   LIG    1       -1.531   2.232   0.021  0.00  0.00    -0.040 Cl
ATOM     26  C   LIG    1        1.215  -0.679  -0.013  0.00  0.00    -0.040 A 
ATOM     27 CL   LIG    1        1.243  -2.415  -0.022  0.00  0.00    -0.040 Cl
ENDBRANCH  19  20
ENDBRANCH  18  19
ENDBRANCH   3  18
TORSDOF 8
