REMARK  Name = ZINCqH0000036jmE.0
REMARK                            x       y       z     vdW  Elec       q    Type
REMARK                         _______ _______ _______ _____ _____    ______ ____
ROOT
ATOM      1  C   LIG    1        1.163  -2.254   0.089  0.00  0.00    +0.340 C 
ENDROOT
BRANCH   1   6
ATOM      2  C   LIG    1        2.058   1.406   0.378  0.00  0.00    +0.130 A 
ATOM      3  C   LIG    1        0.803   1.986   0.500  0.00  0.00    -0.070 A 
ATOM      4  C   LIG    1       -0.328   1.193   0.489  0.00  0.00    +0.060 A 
ATOM      5  C   LIG    1       -0.210  -0.178   0.356  0.00  0.00    -0.030 A 
ATOM      6  C   LIG    1        1.039  -0.759   0.234  0.00  0.00    -0.050 A 
ATOM      7  C   LIG    1        2.172   0.030   0.245  0.00  0.00    -0.010 A 
BRANCH   2   9
ATOM      8  C   LIG    1        2.978   3.593   0.530  0.00  0.00    +0.250 C 
ATOM      9  O   LIG    1        3.172   2.184   0.390  0.00  0.00    -0.320 OA
ENDBRANCH   2   9
ENDBRANCH   1   6
BRANCH   1  10
ATOM     10  C   LIG    1        1.035  -2.902   1.443  0.00  0.00    -0.090 A 
ATOM     11  C   LIG    1       -0.214  -3.090   2.005  0.00  0.00    +0.020 A 
ATOM     12  C   LIG    1       -0.331  -3.688   3.245  0.00  0.00    +0.000 A 
ATOM     13  C   LIG    1        0.801  -4.092   3.928  0.00  0.00    +0.000 A 
ATOM     14  C   LIG    1        2.051  -3.899   3.369  0.00  0.00    +0.000 A 
ATOM     15  C   LIG    1        2.168  -3.304   2.126  0.00  0.00    +0.020 A 
ENDBRANCH   1  10
BRANCH   1  16
ATOM     16  N   LIG    1        0.102  -2.749  -0.792  0.00  0.00    -0.720 N 
ATOM     17  H   LIG    1       -0.723  -2.248  -0.886  0.00  0.00    +0.400 HD
ATOM     18  C   LIG    1        0.272  -3.901  -1.470  0.00  0.00    +0.550 C 
ATOM     19  O   LIG    1        1.303  -4.528  -1.352  0.00  0.00    -0.530 OA
BRANCH  18  20
ATOM     20  C   LIG    1       -0.820  -4.410  -2.376  0.00  0.00    -0.070 C 
ATOM     21  C   LIG    1       -0.586  -5.748  -3.082  0.00  0.00    +0.090 C 
ATOM     22  C   LIG    1       -0.534  -4.444  -3.876  0.00  0.00    -0.090 C 
ATOM     23  C   LIG    1        0.836  -3.950  -4.354  0.00  0.00    +0.040 C 
ATOM     24  C   LIG    1        0.710  -2.474  -4.750  0.00  0.00    +0.210 C 
ATOM     25  O   LIG    1       -0.348  -2.328  -5.699  0.00  0.00    -0.380 OA
ATOM     26  C   LIG    1       -1.645  -2.651  -5.195  0.00  0.00    +0.210 C 
ATOM     27  C   LIG    1       -1.692  -4.140  -4.832  0.00  0.00    +0.040 C 
ENDBRANCH  18  20
ENDBRANCH   1  16
TORSDOF 5
