REMARK  Name = ZINCkj000018RAV0.0
REMARK                            x       y       z     vdW  Elec       q    Type
REMARK                         _______ _______ _______ _____ _____    ______ ____
ROOT
ATOM      1  N   LIG    1       -2.482   5.695   1.427  0.00  0.00    -0.270 N 
ATOM      2  C   LIG    1       -1.591   6.559   1.967  0.00  0.00    +0.140 A 
ATOM      3  C   LIG    1       -1.964   6.727   3.257  0.00  0.00    -0.030 A 
ATOM      4  N   LIG    1       -3.045   5.962   3.443  0.00  0.00    -0.260 NA
ATOM      5  N   LIG    1       -3.326   5.363   2.340  0.00  0.00    -0.050 NA
ENDROOT
BRANCH   3   6
ATOM      6  C   LIG    1       -1.289   7.600   4.284  0.00  0.00    +0.100 C 
ATOM      7  C   LIG    1       -0.664   8.844   3.610  0.00  0.00    +0.060 C 
ATOM      8  C   LIG    1        0.865   8.710   3.889  0.00  0.00    +0.200 C 
ATOM      9  C   LIG    1        1.036   7.152   3.845  0.00  0.00    +0.070 C 
ATOM     10  N   LIG    1        1.009   8.995   5.350  0.00  0.00    -0.520 N 
ATOM     11  H   LIG    1        0.521   9.846   5.586  0.00  0.00    +0.430 HD
ATOM     12  H   LIG    1        1.986   9.078   5.591  0.00  0.00    +0.430 HD
ATOM     13  C   LIG    1        0.405   7.846   6.065  0.00  0.00    +0.270 C 
ATOM     14  C   LIG    1       -0.075   6.856   4.922  0.00  0.00    +0.060 C 
ENDBRANCH   3   6
BRANCH   1  15
ATOM     15  C   LIG    1       -2.481   5.215   0.043  0.00  0.00    +0.390 C 
BRANCH  15  20
ATOM     16  C   LIG    1       -1.230   1.648   0.017  0.00  0.00    +0.210 A 
ATOM     17  C   LIG    1       -2.424   0.939   0.019  0.00  0.00    -0.050 A 
ATOM     18  C   LIG    1       -3.628   1.616   0.029  0.00  0.00    +0.060 A 
ATOM     19  C   LIG    1       -3.645   2.998   0.036  0.00  0.00    -0.010 A 
ATOM     20  C   LIG    1       -2.458   3.708   0.034  0.00  0.00    -0.080 A 
ATOM     21  C   LIG    1       -1.251   3.037   0.030  0.00  0.00    -0.060 A 
BRANCH  16  22
ATOM     22  N   LIG    1       -0.011   0.966   0.007  0.00  0.00    -0.880 N 
ATOM     23  H   LIG    1        0.822   1.462   0.002  0.00  0.00    +0.400 HD
ATOM     24  H   LIG    1        0.002  -0.004   0.002  0.00  0.00    +0.400 HD
ENDBRANCH  16  22
ENDBRANCH  15  20
ENDBRANCH   1  15
TORSDOF 4
