REMARK  Name = ZINCrD0000074i4c.0
REMARK                            x       y       z     vdW  Elec       q    Type
REMARK                         _______ _______ _______ _____ _____    ______ ____
ROOT
ATOM      1  N   LIG    1       -4.442  -0.202   2.919  0.00  0.00    -0.730 N 
ATOM      2  H   LIG    1       -3.898   0.117   3.656  0.00  0.00    +0.400 HD
ATOM      3  C   LIG    1       -4.062   0.036   1.648  0.00  0.00    +0.710 C 
ATOM      4  N   LIG    1       -2.926   0.717   1.400  0.00  0.00    -0.740 N 
ATOM      5  H   LIG    1       -2.382   1.037   2.137  0.00  0.00    +0.400 HD
ATOM      6  O   LIG    1       -4.745  -0.364   0.725  0.00  0.00    -0.580 OA
ENDROOT
BRANCH   1  17
ATOM      7  C   LIG    1       -4.714  -0.783   5.524  0.00  0.00    +0.050 C 
ATOM      8  C   LIG    1       -5.649  -1.568   4.603  0.00  0.00    +0.200 C 
ATOM      9  O   LIG    1       -7.016  -1.440   5.034  0.00  0.00    -0.290 OA
ATOM     10  C   LIG    1       -7.583  -0.369   4.414  0.00  0.00    +0.140 A 
ATOM     11  C   LIG    1       -8.729   0.349   4.744  0.00  0.00    -0.040 A 
ATOM     12  C   LIG    1       -9.141   1.404   3.952  0.00  0.00    +0.140 A 
ATOM     13  C   LIG    1       -8.418   1.755   2.824  0.00  0.00    -0.040 A 
ATOM     14  C   LIG    1       -7.276   1.047   2.493  0.00  0.00    +0.110 A 
ATOM     15  F   LIG    1      -10.255   2.095   4.279  0.00  0.00    -0.130 F 
ATOM     16  C   LIG    1       -6.863  -0.002   3.284  0.00  0.00    -0.200 A 
ATOM     17  C   LIG    1       -5.677  -0.943   3.188  0.00  0.00    +0.310 C 
ENDBRANCH   1  17
BRANCH   4  18
ATOM     18  C   LIG    1       -2.513   0.976   0.019  0.00  0.00    +0.340 C 
BRANCH  18  19
ATOM     19  C   LIG    1       -1.220   1.749   0.017  0.00  0.00    -0.080 A 
ATOM     20  C   LIG    1       -0.013   1.076   0.008  0.00  0.00    +0.020 A 
ATOM     21  C   LIG    1        1.176   1.782   0.000  0.00  0.00    +0.050 A 
ATOM     22  C   LIG    1        1.161   3.163   0.007  0.00  0.00    +0.010 A 
ATOM     23  C   LIG    1       -0.050   3.842   0.023  0.00  0.00    +0.140 A 
ATOM     24  C   LIG    1       -1.242   3.131   0.031  0.00  0.00    +0.020 A 
BRANCH  23  25
ATOM     25  N   LIG    1       -0.069   5.244   0.029  0.00  0.00    -0.410 N 
ATOM     26  C   LIG    1        1.022   6.074   0.023  0.00  0.00    +0.130 A 
ATOM     27  C   LIG    1        0.552   7.336   0.033  0.00  0.00    +0.160 A 
ATOM     28  N   LIG    1       -0.788   7.284   0.046  0.00  0.00    -0.480 NA
ATOM     29  C   LIG    1       -1.172   6.037   0.038  0.00  0.00    +0.400 A 
ENDBRANCH  23  25
ENDBRANCH  18  19
ENDBRANCH   4  18
TORSDOF 4
