REMARK  Name = ZINCqH0000004Wod.0
REMARK                            x       y       z     vdW  Elec       q    Type
REMARK                         _______ _______ _______ _____ _____    ______ ____
ROOT
ATOM      1  N   LIG    1        2.336   3.946   0.035  0.00  0.00    -0.650 N 
ATOM      2  H   LIG    1        2.293   4.864   0.343  0.00  0.00    +0.420 HD
ATOM      3  C   LIG    1        3.513   3.422  -0.361  0.00  0.00    +0.570 C 
ATOM      4  O   LIG    1        3.552   2.303  -0.834  0.00  0.00    -0.500 OA
ENDROOT
BRANCH   1   8
ATOM      5  C   LIG    1       -1.119   1.615  -0.072  0.00  0.00    +0.130 A 
ATOM      6  C   LIG    1        0.105   1.029   0.223  0.00  0.00    +0.040 A 
ATOM      7  C   LIG    1        1.249   1.800   0.257  0.00  0.00    +0.030 A 
ATOM      8  C   LIG    1        1.175   3.164   0.001  0.00  0.00    +0.140 A 
ATOM      9  C   LIG    1       -0.050   3.751  -0.288  0.00  0.00    +0.000 A 
ATOM     10  C   LIG    1       -1.194   2.979  -0.322  0.00  0.00    +0.030 A 
BRANCH   5  12
ATOM     11  C   LIG    1       -3.398   1.132   0.786  0.00  0.00    +0.300 C 
ATOM     12  N   LIG    1       -2.280   0.832  -0.112  0.00  0.00    -0.570 N 
ATOM     13  C   LIG    1       -2.367  -0.199  -0.976  0.00  0.00    +0.540 C 
ATOM     14  O   LIG    1       -1.478  -0.397  -1.776  0.00  0.00    -0.520 OA
BRANCH  13  15
ATOM     15  C   LIG    1       -3.571  -1.105  -0.948  0.00  0.00    -0.070 C 
ATOM     16  C   LIG    1       -3.360  -2.544  -0.472  0.00  0.00    +0.060 C 
ATOM     17  C   LIG    1       -3.611  -2.257  -1.954  0.00  0.00    +0.070 C 
ENDBRANCH  13  15
ENDBRANCH   5  12
ENDBRANCH   1   8
BRANCH   3  18
ATOM     18  C   LIG    1        4.759   4.211  -0.220  0.00  0.00    +0.080 A 
ATOM     19  C   LIG    1        5.973   3.664  -0.631  0.00  0.00    +0.110 A 
ATOM     20  C   LIG    1        7.130   4.414  -0.493  0.00  0.00    -0.140 A 
ATOM     21  C   LIG    1        7.033   5.685   0.051  0.00  0.00    +0.060 A 
ATOM     22  C   LIG    1        5.793   6.165   0.439  0.00  0.00    +0.290 A 
ATOM     23  N   LIG    1        4.709   5.434   0.292  0.00  0.00    -0.440 NA
BRANCH  20  24
ATOM     24  C   LIG    1        8.463   3.860  -0.925  0.00  0.00    +0.510 C 
ATOM     25  F   LIG    1        8.458   2.469  -0.783  0.00  0.00    -0.170 F 
ATOM     26  F   LIG    1        9.475   4.407  -0.129  0.00  0.00    -0.170 F 
ATOM     27  F   LIG    1        8.694   4.191  -2.264  0.00  0.00    -0.170 F 
ENDBRANCH  20  24
ENDBRANCH   3  18
TORSDOF 5
