REMARK  Name = ZINCtV000002AMBa.0
REMARK                            x       y       z     vdW  Elec       q    Type
REMARK                         _______ _______ _______ _____ _____    ______ ____
ROOT
ATOM      1  C   LIG    1       -0.614  -4.935   0.798  0.00  0.00    -0.070 A 
ATOM      2  C   LIG    1       -1.321  -4.345   1.836  0.00  0.00    +0.020 A 
ATOM      3  C   LIG    1       -1.962  -5.158   2.783  0.00  0.00    +0.190 A 
ATOM      4  N   LIG    1       -1.914  -6.472   2.729  0.00  0.00    -0.440 NA
ATOM      5  C   LIG    1       -1.254  -7.123   1.769  0.00  0.00    +0.130 A 
ATOM      6  C   LIG    1       -1.219  -8.530   1.737  0.00  0.00    +0.050 A 
ATOM      7  C   LIG    1       -0.537  -9.165   0.746  0.00  0.00    +0.030 A 
ATOM      8  C   LIG    1        0.131  -8.447  -0.243  0.00  0.00    +0.020 A 
ATOM      9  C   LIG    1        0.118  -7.083  -0.244  0.00  0.00    +0.060 A 
ATOM     10  C   LIG    1       -0.573  -6.397   0.759  0.00  0.00    -0.060 A 
ENDROOT
BRANCH   3  11
ATOM     11  C   LIG    1       -2.718  -4.514   3.884  0.00  0.00    -0.040 A 
ATOM     12  C   LIG    1       -2.781  -3.124   3.970  0.00  0.00    +0.050 A 
ATOM     13  C   LIG    1       -3.490  -2.531   4.994  0.00  0.00    +0.050 A 
ATOM     14  C   LIG    1       -4.128  -3.312   5.941  0.00  0.00    -0.080 A 
ATOM     15  C   LIG    1       -4.064  -4.693   5.864  0.00  0.00    +0.050 A 
ATOM     16 BR   LIG    1       -5.091  -2.491   7.347  0.00  0.00    -0.040 Br
ATOM     17  C   LIG    1       -3.362  -5.297   4.841  0.00  0.00    +0.080 A 
ENDBRANCH   3  11
BRANCH   1  20
ATOM     18  N   LIG    1        0.114  -2.778  -0.103  0.00  0.00    -0.650 N 
ATOM     19  H   LIG    1       -0.239  -2.353   0.694  0.00  0.00    +0.410 HD
ATOM     20  C   LIG    1        0.076  -4.119  -0.224  0.00  0.00    +0.570 C 
ATOM     21  O   LIG    1        0.609  -4.659  -1.175  0.00  0.00    -0.500 OA
BRANCH  18  28
ATOM     22  C   LIG    1        1.176  -0.732  -0.843  0.00  0.00    +0.100 A 
ATOM     23  C   LIG    1        1.724   0.033  -1.860  0.00  0.00    -0.050 A 
ATOM     24  C   LIG    1        1.757  -0.456  -3.153  0.00  0.00    +0.040 A 
ATOM     25  C   LIG    1        1.245  -1.708  -3.436  0.00  0.00    -0.100 A 
ATOM     26  C   LIG    1        0.696  -2.478  -2.427  0.00  0.00    +0.060 A 
ATOM     27  C   LIG    1        1.284  -2.236  -4.847  0.00  0.00    +0.100 C 
ATOM     28  C   LIG    1        0.664  -1.997  -1.127  0.00  0.00    +0.120 A 
BRANCH  22  30
ATOM     29  C   LIG    1        1.690   1.049   0.646  0.00  0.00    +0.250 C 
ATOM     30  O   LIG    1        1.142  -0.253   0.428  0.00  0.00    -0.320 OA
ENDBRANCH  22  30
ENDBRANCH  18  28
ENDBRANCH   1  20
TORSDOF 4
