REMARK  Name = ZINCnE000001TD6r.0
REMARK                            x       y       z     vdW  Elec       q    Type
REMARK                         _______ _______ _______ _____ _____    ______ ____
ROOT
ATOM      1  N   LIG    1       -0.016   1.344   0.009  0.00  0.00    -0.660 N 
ATOM      2  H   LIG    1        0.858   1.742  -0.123  0.00  0.00    +0.410 HD
ATOM      3  C   LIG    1       -0.131   0.011   0.179  0.00  0.00    +0.550 C 
ATOM      4  O   LIG    1       -1.214  -0.477   0.438  0.00  0.00    -0.510 OA
ENDROOT
BRANCH   1   8
ATOM      5  C   LIG    1       -3.412   3.745   0.036  0.00  0.00    -0.140 A 
ATOM      6  C   LIG    1       -2.202   4.235   0.540  0.00  0.00    +0.060 A 
ATOM      7  C   LIG    1       -1.085   3.440   0.530  0.00  0.00    -0.040 A 
ATOM      8  C   LIG    1       -1.153   2.147   0.019  0.00  0.00    +0.120 A 
ATOM      9  C   LIG    1       -2.353   1.658  -0.489  0.00  0.00    +0.000 A 
ATOM     10  C   LIG    1       -3.476   2.445  -0.477  0.00  0.00    +0.060 A 
BRANCH   5  12
ATOM     11  O   LIG    1       -4.555   5.732   0.493  0.00  0.00    -0.690 OA
ATOM     12  C   LIG    1       -4.614   4.596   0.045  0.00  0.00    +0.520 C 
ATOM     13  O   LIG    1       -5.670   4.165  -0.397  0.00  0.00    -0.690 OA
ENDBRANCH   5  12
ENDBRANCH   1   8
BRANCH   3  14
ATOM     14  C   LIG    1        1.059  -0.856   0.050  0.00  0.00    -0.100 A 
ATOM     15  C   LIG    1        2.302  -0.298  -0.253  0.00  0.00    +0.030 A 
ATOM     16  C   LIG    1        3.413  -1.109  -0.368  0.00  0.00    +0.050 A 
ATOM     17  C   LIG    1        3.296  -2.476  -0.194  0.00  0.00    +0.020 A 
ATOM     18  C   LIG    1        2.062  -3.041   0.102  0.00  0.00    +0.130 A 
ATOM     19  C   LIG    1        0.942  -2.235   0.225  0.00  0.00    +0.070 A 
BRANCH  18  20
ATOM     20  N   LIG    1        1.950  -4.428   0.277  0.00  0.00    -0.400 N 
ATOM     21  C   LIG    1        0.801  -5.103   0.576  0.00  0.00    +0.160 A 
ATOM     22  C   LIG    1        1.094  -6.416   0.660  0.00  0.00    -0.050 A 
ATOM     23  C   LIG    1        2.474  -6.559   0.414  0.00  0.00    -0.050 A 
ATOM     24  C   LIG    1        2.973  -5.328   0.183  0.00  0.00    +0.140 A 
ENDBRANCH  18  20
ENDBRANCH   3  14
TORSDOF 4
