REMARK  Name = ZINCrD00000F5Lxa.0
REMARK                            x       y       z     vdW  Elec       q    Type
REMARK                         _______ _______ _______ _____ _____    ______ ____
ROOT
ATOM      1  C   LIG    1        4.949   4.048  -0.237  0.00  0.00    -0.140 A 
ATOM      2  C   LIG    1        6.134   3.310  -0.253  0.00  0.00    +0.050 A 
ATOM      3  C   LIG    1        7.346   3.959  -0.366  0.00  0.00    +0.010 A 
ATOM      4  C   LIG    1        7.389   5.338  -0.463  0.00  0.00    +0.050 A 
ATOM      5  C   LIG    1        6.218   6.076  -0.448  0.00  0.00    -0.090 A 
ATOM      6  C   LIG    1        4.999   5.439  -0.342  0.00  0.00    +0.100 A 
ENDROOT
BRANCH   5   7
ATOM      7  C   LIG    1        6.274   7.578  -0.554  0.00  0.00    +0.270 C 
ATOM      8  C   LIG    1        6.626   8.188   0.820  0.00  0.00    +0.050 C 
ATOM      9  C   LIG    1        7.568   9.363   0.447  0.00  0.00    +0.040 C 
ATOM     10  C   LIG    1        8.336   8.775  -0.763  0.00  0.00    +0.250 C 
ATOM     11  N   LIG    1        7.335   7.974  -1.491  0.00  0.00    -0.610 N 
ATOM     12  C   LIG    1        7.386   7.656  -2.800  0.00  0.00    +0.560 C 
ATOM     13  O   LIG    1        6.501   6.986  -3.298  0.00  0.00    -0.530 OA
BRANCH  12  14
ATOM     14  C   LIG    1        8.510   8.120  -3.627  0.00  0.00    -0.090 C 
ATOM     15  C   LIG    1        8.560   7.806  -4.919  0.00  0.00    +0.140 C 
ENDBRANCH  12  14
ENDBRANCH   5   7
BRANCH   1  18
ATOM     16  N   LIG    1        3.602   2.015  -0.022  0.00  0.00    -0.660 N 
ATOM     17  H   LIG    1        4.424   1.506   0.049  0.00  0.00    +0.420 HD
ATOM     18  C   LIG    1        3.647   3.359  -0.117  0.00  0.00    +0.570 C 
ATOM     19  O   LIG    1        2.617   4.004  -0.103  0.00  0.00    -0.510 OA
BRANCH  16  26
ATOM     20  C   LIG    1        2.238   0.092   0.565  0.00  0.00    +0.190 A 
ATOM     21  N   LIG    1        1.067  -0.534   0.561  0.00  0.00    -0.420 NA
ATOM     22  C   LIG    1       -0.002   0.003   0.008  0.00  0.00    +0.240 A 
ATOM     23  C   LIG    1        0.055   1.250  -0.594  0.00  0.00    +0.090 A 
ATOM     24  C   LIG    1        1.257   1.943  -0.615  0.00  0.00    +0.040 A 
ATOM     25  F   LIG    1       -1.050   1.783  -1.161  0.00  0.00    -0.120 F 
ATOM     26  C   LIG    1        2.371   1.356  -0.025  0.00  0.00    +0.160 A 
BRANCH  20  28
ATOM     27  C   LIG    1        4.304  -1.039   1.680  0.00  0.00    +0.100 C 
ATOM     28  C   LIG    1        3.374  -0.529   1.178  0.00  0.00    -0.160 C 
ENDBRANCH  20  28
ENDBRANCH  16  26
ENDBRANCH   1  18
TORSDOF 5
