REMARK  Name = ZINCqH0000007zT2.0
REMARK                            x       y       z     vdW  Elec       q    Type
REMARK                         _______ _______ _______ _____ _____    ______ ____
ROOT
ATOM      1  N   LIG    1       -4.142   6.197   1.455  0.00  0.00    -0.720 N 
ATOM      2  H   LIG    1       -3.590   5.877   2.185  0.00  0.00    +0.400 HD
ATOM      3  C   LIG    1       -5.287   6.860   1.715  0.00  0.00    +0.560 C 
ATOM      4  O   LIG    1       -5.979   7.261   0.799  0.00  0.00    -0.510 OA
ENDROOT
BRANCH   3   5
ATOM      5  C   LIG    1       -5.699   7.099   3.111  0.00  0.00    -0.120 A 
ATOM      6  C   LIG    1       -4.907   6.640   4.167  0.00  0.00    +0.020 A 
ATOM      7  C   LIG    1       -5.295   6.865   5.469  0.00  0.00    +0.050 A 
ATOM      8  C   LIG    1       -6.470   7.546   5.741  0.00  0.00    -0.030 A 
ATOM      9  C   LIG    1       -7.266   8.008   4.706  0.00  0.00    +0.100 A 
ATOM     10  C   LIG    1       -6.885   7.792   3.386  0.00  0.00    +0.130 A 
BRANCH   9  11
ATOM     11  O   LIG    1       -8.419   8.676   4.981  0.00  0.00    -0.300 OA
ATOM     12  C   LIG    1       -8.746   8.866   6.359  0.00  0.00    +0.240 C 
ENDBRANCH   9  11
BRANCH  10  13
ATOM     13  O   LIG    1       -7.660   8.248   2.369  0.00  0.00    -0.310 OA
ATOM     14  C   LIG    1       -8.673   7.367   1.880  0.00  0.00    +0.230 C 
ENDBRANCH  10  13
ENDBRANCH   3   5
BRANCH   1  15
ATOM     15  C   LIG    1       -3.732   5.960   0.069  0.00  0.00    +0.320 C 
BRANCH  15  21
ATOM     16  C   LIG    1        1.195   1.782   0.000  0.00  0.00    +0.130 A 
ATOM     17  C   LIG    1        1.208   3.147   0.008  0.00  0.00    -0.020 A 
ATOM     18  C   LIG    1       -0.006   3.853   0.023  0.00  0.00    -0.010 A 
ATOM     19  C   LIG    1       -0.032   5.258   0.031  0.00  0.00    +0.020 A 
ATOM     20  C   LIG    1       -1.227   5.910   0.045  0.00  0.00    +0.040 A 
ATOM     21  C   LIG    1       -2.428   5.205   0.053  0.00  0.00    -0.120 A 
ATOM     22  C   LIG    1       -2.442   3.843   0.045  0.00  0.00    +0.060 A 
ATOM     23  C   LIG    1       -1.229   3.136   0.031  0.00  0.00    -0.090 A 
ATOM     24  C   LIG    1       -1.205   1.730   0.017  0.00  0.00    +0.070 A 
ATOM     25  C   LIG    1       -0.013   1.076   0.008  0.00  0.00    -0.060 A 
BRANCH  16  27
ATOM     26  C   LIG    1        2.292  -0.327  -0.022  0.00  0.00    +0.250 C 
ATOM     27  O   LIG    1        2.370   1.100  -0.015  0.00  0.00    -0.320 OA
ENDBRANCH  16  27
ENDBRANCH  15  21
ENDBRANCH   1  15
TORSDOF 6
