REMARK  Name = ZINCrH000004sQcU.0
REMARK                            x       y       z     vdW  Elec       q    Type
REMARK                         _______ _______ _______ _____ _____    ______ ____
ROOT
ATOM      1  C   LIG    1        3.614   5.519  -2.986  0.00  0.00    +0.560 C 
ATOM      2  N   LIG    1        3.037   5.049  -1.862  0.00  0.00    -0.720 N 
ATOM      3  H   LIG    1        3.204   5.485  -1.012  0.00  0.00    +0.410 HD
ATOM      4  O   LIG    1        3.405   4.972  -4.051  0.00  0.00    -0.510 OA
ENDROOT
BRANCH   1  13
ATOM      5  C   LIG    1        5.694   4.615  -5.245  0.00  0.00    +0.200 C 
ATOM      6  C   LIG    1        6.218   5.952  -4.789  0.00  0.00    +0.160 A 
ATOM      7  N   LIG    1        7.275   6.558  -5.239  0.00  0.00    -0.270 NA
ATOM      8  O   LIG    1        7.442   7.789  -4.565  0.00  0.00    -0.080 OA
ATOM      9  C   LIG    1        6.449   7.946  -3.666  0.00  0.00    +0.300 A 
ATOM     10  N   LIG    1        6.156   8.905  -2.801  0.00  0.00    -0.460 NA
ATOM     11  C   LIG    1        5.108   8.833  -2.009  0.00  0.00    +0.240 A 
ATOM     12  C   LIG    1        4.246   7.748  -2.039  0.00  0.00    -0.020 A 
ATOM     13  C   LIG    1        4.503   6.700  -2.923  0.00  0.00    +0.000 A 
ATOM     14  C   LIG    1        5.632   6.807  -3.758  0.00  0.00    -0.210 A 
BRANCH  11  15
ATOM     15  C   LIG    1        4.834   9.962  -1.048  0.00  0.00    +0.010 C 
ATOM     16  C   LIG    1        3.438  10.037  -0.426  0.00  0.00    +0.040 C 
ATOM     17  C   LIG    1        3.856  11.049  -1.497  0.00  0.00    +0.060 C 
ENDBRANCH  11  15
ENDBRANCH   1  13
BRANCH   2  18
ATOM     18  C   LIG    1        2.157   3.879  -1.924  0.00  0.00    +0.290 C 
BRANCH  18  19
ATOM     19  C   LIG    1        1.638   3.556  -0.521  0.00  0.00    +0.150 C 
BRANCH  19  20
ATOM     20  C   LIG    1        0.733   2.353  -0.585  0.00  0.00    +0.040 A 
ATOM     21  N   LIG    1        1.120   1.133  -0.455  0.00  0.00    -0.460 NA
ATOM     22  C   LIG    1        0.203   0.180  -0.536  0.00  0.00    +0.070 A 
ATOM     23  C   LIG    1       -1.038   0.656  -0.750  0.00  0.00    -0.220 A 
ATOM     24  C   LIG    1       -2.283  -0.187  -0.887  0.00  0.00    +0.120 C 
ATOM     25  C   LIG    1       -1.864  -1.639  -1.146  0.00  0.00    +0.030 C 
ATOM     26  C   LIG    1       -0.810  -2.045  -0.112  0.00  0.00    +0.030 C 
ATOM     27  C   LIG    1        0.499  -1.306  -0.402  0.00  0.00    +0.120 C 
ATOM     28  S   LIG    1       -0.956   2.411  -0.842  0.00  0.00    +0.120 S 
ENDBRANCH  19  20
ENDBRANCH  18  19
ENDBRANCH   2  18
TORSDOF 5
