REMARK  Name = ZINCvU00000007Kz.0
REMARK                            x       y       z     vdW  Elec       q    Type
REMARK                         _______ _______ _______ _____ _____    ______ ____
ROOT
ATOM      1  C   LIG    1       -3.599   7.129  -0.011  0.00  0.00    +0.310 C 
ATOM      2  N   LIG    1       -3.330   8.569  -0.016  0.00  0.00    -0.580 N 
ATOM      3  C   LIG    1       -2.102   9.026   0.297  0.00  0.00    +0.600 C 
ATOM      4  O   LIG    1       -1.891  10.223   0.340  0.00  0.00    -0.530 OA
ENDROOT
BRANCH   3   5
ATOM      5  C   LIG    1       -1.014   8.076   0.588  0.00  0.00    +0.020 A 
ATOM      6  C   LIG    1        0.265   8.472   0.774  0.00  0.00    -0.020 A 
ATOM      7  S   LIG    1        1.236   7.101   1.088  0.00  0.00    +0.200 S 
ATOM      8  C   LIG    1       -0.169   6.051   0.947  0.00  0.00    +0.080 A 
ATOM      9  N   LIG    1       -1.218   6.769   0.682  0.00  0.00    -0.430 NA
BRANCH   8  10
ATOM     10  C   LIG    1       -0.157   4.580   1.101  0.00  0.00    -0.020 A 
ATOM     11  C   LIG    1        1.037   3.915   1.381  0.00  0.00    +0.050 A 
ATOM     12  C   LIG    1        1.043   2.543   1.523  0.00  0.00    +0.030 A 
ATOM     13  C   LIG    1       -0.133   1.825   1.387  0.00  0.00    -0.020 A 
ATOM     14  C   LIG    1       -1.321   2.479   1.103  0.00  0.00    +0.030 A 
ATOM     15 CL   LIG    1       -0.118   0.099   1.566  0.00  0.00    -0.060 Cl
ATOM     16  C   LIG    1       -1.339   3.852   0.966  0.00  0.00    +0.090 A 
ENDBRANCH   8  10
ENDBRANCH   3   5
BRANCH   2  17
ATOM     17  C   LIG    1       -4.396   9.512  -0.362  0.00  0.00    +0.340 C 
BRANCH  17  18
ATOM     18  C   LIG    1       -4.385   9.760  -1.849  0.00  0.00    +0.500 C 
ATOM     19  N   LIG    1       -5.284  10.600  -2.399  0.00  0.00    -0.670 N 
ATOM     20  H   LIG    1       -5.980  10.994  -1.849  0.00  0.00    +0.410 HD
ATOM     21  O   LIG    1       -3.567   9.204  -2.550  0.00  0.00    -0.510 OA
BRANCH  19  22
ATOM     22  C   LIG    1       -5.214  10.905  -3.764  0.00  0.00    +0.130 A 
ATOM     23  C   LIG    1       -5.553  12.175  -4.211  0.00  0.00    +0.040 A 
ATOM     24  C   LIG    1       -5.478  12.476  -5.556  0.00  0.00    -0.030 A 
ATOM     25  C   LIG    1       -5.075  11.507  -6.463  0.00  0.00    +0.090 A 
ATOM     26  C   LIG    1       -4.742  10.236  -6.019  0.00  0.00    +0.040 A 
ATOM     27  C   LIG    1       -4.811   9.935  -4.673  0.00  0.00    +0.070 A 
BRANCH  25  28
ATOM     28  O   LIG    1       -5.007  11.803  -7.789  0.00  0.00    -0.310 OA
BRANCH  28  29
ATOM     29  C   LIG    1       -5.365  13.131  -8.176  0.00  0.00    +0.600 C 
ATOM     30  F   LIG    1       -6.688  13.386  -7.801  0.00  0.00    -0.170 F 
ATOM     31  F   LIG    1       -5.239  13.261  -9.563  0.00  0.00    -0.130 F 
ATOM     32  F   LIG    1       -4.516  14.046  -7.543  0.00  0.00    -0.160 F 
ENDBRANCH  28  29
ENDBRANCH  25  28
ENDBRANCH  19  22
ENDBRANCH  17  18
ENDBRANCH   2  17
TORSDOF 7
