REMARK  Name = ZINCtV00000tRTwe.0
REMARK                            x       y       z     vdW  Elec       q    Type
REMARK                         _______ _______ _______ _____ _____    ______ ____
ROOT
ATOM      1  C   LIG    1       -0.315  -4.674   1.874  0.00  0.00    +0.300 C 
ATOM      2  C   LIG    1       -0.944  -3.776   2.940  0.00  0.00    +0.020 C 
ATOM      3  C   LIG    1       -1.666  -2.614   2.246  0.00  0.00    +0.240 C 
ATOM      4  N   LIG    1       -0.658  -1.823   1.528  0.00  0.00    -0.610 N 
ATOM      5  C   LIG    1        0.314  -2.490   0.771  0.00  0.00    +0.210 A 
ATOM      6  C   LIG    1        1.095  -1.766  -0.120  0.00  0.00    -0.140 A 
ATOM      7  C   LIG    1        2.063  -2.405  -0.868  0.00  0.00    +0.060 A 
ATOM      8  C   LIG    1        2.258  -3.766  -0.726  0.00  0.00    -0.020 A 
ATOM      9  C   LIG    1        1.486  -4.489   0.163  0.00  0.00    +0.060 A 
ATOM     10  C   LIG    1        0.881  -0.282  -0.274  0.00  0.00    +0.080 C 
ATOM     11  C   LIG    1       -0.670  -0.477   1.593  0.00  0.00    +0.620 C 
ATOM     12  O   LIG    1       -1.633   0.142   1.182  0.00  0.00    -0.470 OA
ATOM     13  C   LIG    1       -2.364  -1.740   3.291  0.00  0.00    +0.040 C 
ATOM     14  C   LIG    1        0.512  -3.856   0.917  0.00  0.00    -0.150 A 
ENDROOT
BRANCH  11  15
ATOM     15  C   LIG    1        0.486   0.247   2.163  0.00  0.00    -0.120 A 
ATOM     16  C   LIG    1        0.533   1.641   2.114  0.00  0.00    +0.060 A 
ATOM     17  C   LIG    1        1.615   2.312   2.647  0.00  0.00    +0.040 A 
ATOM     18  C   LIG    1        2.653   1.606   3.228  0.00  0.00    +0.010 A 
ATOM     19  C   LIG    1        2.613   0.222   3.281  0.00  0.00    +0.100 A 
ATOM     20  F   LIG    1        3.630  -0.461   3.850  0.00  0.00    -0.130 F 
ATOM     21  C   LIG    1        1.535  -0.461   2.751  0.00  0.00    +0.030 A 
ENDBRANCH  11  15
BRANCH   1  22
ATOM     22  N   LIG    1       -1.376  -5.360   1.132  0.00  0.00    -0.740 N 
ATOM     23  H   LIG    1       -1.729  -4.969   0.318  0.00  0.00    +0.400 HD
BRANCH  22  30
ATOM     24  C   LIG    1       -3.246  -6.751  -0.499  0.00  0.00    +0.090 C 
ATOM     25  C   LIG    1       -2.794  -7.290   0.834  0.00  0.00    -0.160 A 
ATOM     26  C   LIG    1       -3.290  -8.492   1.298  0.00  0.00    +0.050 A 
ATOM     27  C   LIG    1       -2.876  -8.987   2.521  0.00  0.00    -0.050 A 
ATOM     28  C   LIG    1       -1.966  -8.280   3.284  0.00  0.00    +0.040 A 
ATOM     29  C   LIG    1       -1.462  -7.079   2.824  0.00  0.00    -0.080 A 
ATOM     30  C   LIG    1       -1.879  -6.576   1.598  0.00  0.00    +0.220 A 
ENDBRANCH  22  30
ENDBRANCH   1  22
TORSDOF 3
