REMARK  Name = ZINCrD000000Crsw.0
REMARK                            x       y       z     vdW  Elec       q    Type
REMARK                         _______ _______ _______ _____ _____    ______ ____
ROOT
ATOM      1  O   LIG    1        3.643   4.572  -1.997  0.00  0.00    -0.480 OA
ATOM      2  C   LIG    1        3.302   3.770  -1.160  0.00  0.00    +0.480 C 
ENDROOT
BRANCH   2   3
ATOM      3  C   LIG    1        2.447   4.210   0.000  0.00  0.00    -0.010 C 
ATOM      4  C   LIG    1        3.203   3.989   1.327  0.00  0.00    +0.050 C 
ATOM      5  C   LIG    1        3.845   5.367   1.631  0.00  0.00    +0.020 C 
ATOM      6  C   LIG    1        2.751   6.363   1.173  0.00  0.00    +0.020 C 
ATOM      7  C   LIG    1        2.160   5.718  -0.098  0.00  0.00    +0.060 C 
BRANCH   3   8
ATOM      8  C   LIG    1        1.153   3.438   0.009  0.00  0.00    -0.050 A 
ATOM      9  C   LIG    1        0.227   3.629  -1.000  0.00  0.00    +0.000 A 
ATOM     10  C   LIG    1       -0.960   2.921  -0.993  0.00  0.00    +0.050 A 
ATOM     11  C   LIG    1       -1.221   2.018   0.019  0.00  0.00    -0.010 A 
ATOM     12  C   LIG    1       -0.297   1.829   1.033  0.00  0.00    +0.110 A 
ATOM     13  F   LIG    1       -0.552   0.948   2.025  0.00  0.00    -0.140 F 
ATOM     14  C   LIG    1        0.892   2.538   1.025  0.00  0.00    +0.010 A 
ENDBRANCH   3   8
ENDBRANCH   2   3
BRANCH   2  15
ATOM     15  O   LIG    1        3.685   2.488  -1.264  0.00  0.00    -0.340 OA
BRANCH  15  16
ATOM     16  C   LIG    1        4.507   2.136  -2.408  0.00  0.00    +0.370 C 
BRANCH  16  17
ATOM     17  C   LIG    1        4.836   0.666  -2.357  0.00  0.00    +0.240 A 
ATOM     18  N   LIG    1        5.875   0.124  -1.777  0.00  0.00    -0.300 NA
ATOM     19  N   LIG    1        5.855  -1.153  -1.915  0.00  0.00    -0.030 NA
ATOM     20  N   LIG    1        4.819  -1.512  -2.593  0.00  0.00    -0.060 NA
ATOM     21  N   LIG    1        4.115  -0.335  -2.906  0.00  0.00    -0.310 N 
BRANCH  21  22
ATOM     22  C   LIG    1        2.921  -0.225  -3.633  0.00  0.00    +0.110 A 
ATOM     23  C   LIG    1        1.985   0.742  -3.291  0.00  0.00    +0.030 A 
ATOM     24  C   LIG    1        0.812   0.851  -4.012  0.00  0.00    +0.040 A 
ATOM     25  C   LIG    1        0.564  -0.009  -5.066  0.00  0.00    +0.040 A 
ATOM     26  C   LIG    1        1.491  -0.977  -5.404  0.00  0.00    +0.040 A 
ATOM     27  C   LIG    1        2.668  -1.088  -4.691  0.00  0.00    +0.050 A 
ENDBRANCH  21  22
ENDBRANCH  16  17
ENDBRANCH  15  16
ENDBRANCH   2  15
TORSDOF 6
