REMARK  Name = ZINCtV000002PR8A.0
REMARK                            x       y       z     vdW  Elec       q    Type
REMARK                         _______ _______ _______ _____ _____    ______ ____
ROOT
ATOM      1  N   LIG    1        3.678  -0.481  -0.035  0.00  0.00    -0.690 N 
ATOM      2  H   LIG    1        3.752  -1.448  -0.041  0.00  0.00    +0.410 HD
ENDROOT
BRANCH   1   3
ATOM      3  C   LIG    1        2.434   0.115  -0.021  0.00  0.00    +0.490 A 
ATOM      4  N   LIG    1        2.313   1.433  -0.012  0.00  0.00    -0.580 NA
ATOM      5  C   LIG    1        1.116   2.021   0.002  0.00  0.00    +0.440 A 
ATOM      6  N   LIG    1       -0.016   1.336   0.009  0.00  0.00    -0.540 NA
ATOM      7  C   LIG    1        0.002  -0.004   0.002  0.00  0.00    +0.200 A 
ATOM      8  C   LIG    1       -1.178  -0.761   0.010  0.00  0.00    +0.030 A 
ATOM      9  C   LIG    1       -1.105  -2.122   0.002  0.00  0.00    +0.060 A 
ATOM     10  C   LIG    1        0.125  -2.774  -0.013  0.00  0.00    +0.000 A 
ATOM     11  C   LIG    1        1.292  -2.068  -0.021  0.00  0.00    +0.050 A 
ATOM     12  C   LIG    1        1.253  -0.670  -0.013  0.00  0.00    -0.200 A 
BRANCH   5  13
ATOM     13  C   LIG    1        1.051   3.494   0.011  0.00  0.00    -0.150 A 
ATOM     14  C   LIG    1       -0.084   4.224   0.020  0.00  0.00    +0.070 A 
ATOM     15  C   LIG    1        0.108   5.588   0.030  0.00  0.00    +0.000 A 
ATOM     16  C   LIG    1        1.388   5.980   0.020  0.00  0.00    -0.040 A 
ATOM     17  S   LIG    1        2.441   4.572   0.003  0.00  0.00    +0.180 S 
ENDBRANCH   5  13
ENDBRANCH   1   3
BRANCH   1  18
ATOM     18  C   LIG    1        4.886   0.347  -0.042  0.00  0.00    +0.350 C 
BRANCH  18  22
ATOM     19  C   LIG    1        8.139  -1.868   1.619  0.00  0.00    +0.000 A 
ATOM     20  C   LIG    1        7.991  -0.527   1.919  0.00  0.00    +0.020 A 
ATOM     21  C   LIG    1        6.939   0.190   1.382  0.00  0.00    +0.030 A 
ATOM     22  C   LIG    1        6.034  -0.434   0.543  0.00  0.00    -0.090 A 
ATOM     23  C   LIG    1        6.179  -1.776   0.247  0.00  0.00    +0.010 A 
ATOM     24  C   LIG    1        7.234  -2.492   0.780  0.00  0.00    +0.020 A 
ENDBRANCH  18  22
BRANCH  18  25
ATOM     25  C   LIG    1        5.217   0.741  -1.459  0.00  0.00    -0.090 A 
ATOM     26  C   LIG    1        5.076  -0.178  -2.482  0.00  0.00    +0.010 A 
ATOM     27  C   LIG    1        5.375   0.184  -3.782  0.00  0.00    +0.000 A 
ATOM     28  C   LIG    1        5.826   1.462  -4.058  0.00  0.00    +0.000 A 
ATOM     29  C   LIG    1        5.972   2.379  -3.034  0.00  0.00    +0.000 A 
ATOM     30  C   LIG    1        5.668   2.018  -1.734  0.00  0.00    +0.020 A 
ENDBRANCH  18  25
ENDBRANCH   1  18
TORSDOF 5
