REMARK  Name = ZINCrH00000tj1ls.0
REMARK                            x       y       z     vdW  Elec       q    Type
REMARK                         _______ _______ _______ _____ _____    ______ ____
ROOT
ATOM      1  C   LIG    1       -4.621   3.208   6.451  0.00  0.00    +0.150 C 
ATOM      2  C   LIG    1       -4.224   3.430   5.014  0.00  0.00    -0.240 A 
ATOM      3  C   LIG    1       -4.752   4.347   4.183  0.00  0.00    +0.110 A 
ATOM      4  N   LIG    1       -4.242   4.365   2.959  0.00  0.00    -0.490 NA
ATOM      5  C   LIG    1       -3.310   3.503   2.697  0.00  0.00    +0.270 A 
ATOM      6  S   LIG    1       -2.989   2.534   4.133  0.00  0.00    +0.220 S 
ENDROOT
BRANCH   3   7
ATOM      7  C   LIG    1       -5.826   5.277   4.608  0.00  0.00    +0.010 A 
ATOM      8  C   LIG    1       -5.756   5.904   5.850  0.00  0.00    +0.070 A 
ATOM      9  C   LIG    1       -6.757   6.770   6.242  0.00  0.00    +0.030 A 
ATOM     10  C   LIG    1       -7.831   7.017   5.404  0.00  0.00    +0.070 A 
ATOM     11  C   LIG    1       -7.906   6.395   4.165  0.00  0.00    +0.070 A 
ATOM     12  F   LIG    1       -8.955   6.638   3.350  0.00  0.00    -0.130 F 
ATOM     13  F   LIG    1       -8.808   7.865   5.792  0.00  0.00    -0.130 F 
ATOM     14  C   LIG    1       -6.905   5.531   3.763  0.00  0.00    +0.050 A 
ENDBRANCH   3   7
BRANCH   5  15
ATOM     15  N   LIG    1       -2.661   3.368   1.476  0.00  0.00    -0.620 N 
ATOM     16  H   LIG    1       -2.899   3.945   0.734  0.00  0.00    +0.430 HD
ATOM     17  C   LIG    1       -1.700   2.435   1.323  0.00  0.00    +0.500 C 
ATOM     18  O   LIG    1       -1.402   1.714   2.251  0.00  0.00    -0.470 OA
BRANCH  17  19
ATOM     19  C   LIG    1       -0.996   2.289  -0.002  0.00  0.00    +0.280 C 
ATOM     20  C   LIG    1       -0.382   3.652  -0.389  0.00  0.00    +0.170 C 
ATOM     21  S   LIG    1        1.261   3.146  -1.054  0.00  0.00    -0.230 S 
ATOM     22  C   LIG    1        1.390   1.706   0.077  0.00  0.00    +0.170 C 
ATOM     23  C   LIG    1        2.200   0.578  -0.580  0.00  0.00    +0.090 C 
ATOM     24  C   LIG    1        1.417  -0.663  -0.084  0.00  0.00    +0.090 C 
ATOM     25  C   LIG    1        0.017  -0.148   0.159  0.00  0.00    +0.550 C 
ATOM     26  O   LIG    1       -0.950  -0.848   0.368  0.00  0.00    -0.500 OA
ATOM     27  C   LIG    1        1.919   2.078   1.464  0.00  0.00    +0.080 C 
ATOM     28  N   LIG    1       -0.006   1.209   0.109  0.00  0.00    -0.610 N 
ENDBRANCH  17  19
ENDBRANCH   5  15
TORSDOF 3
