REMARK  Name = ZINCzw0000000a9G.0
REMARK                            x       y       z     vdW  Elec       q    Type
REMARK                         _______ _______ _______ _____ _____    ______ ____
ROOT
ATOM      1  C   LIG    1       -4.903   1.056  -6.154  0.00  0.00    +0.240 C 
ENDROOT
BRANCH   1   2
ATOM      2  C   LIG    1       -6.255   0.392  -6.108  0.00  0.00    -0.030 A 
ATOM      3  C   LIG    1       -7.368   1.123  -5.722  0.00  0.00    -0.100 A 
ATOM      4  C   LIG    1       -8.615   0.530  -5.680  0.00  0.00    +0.200 A 
ATOM      5  C   LIG    1       -8.752  -0.823  -6.021  0.00  0.00    +0.030 A 
ATOM      6  N   LIG    1       -9.810  -1.672  -6.074  0.00  0.00    -0.480 NA
ATOM      7  C   LIG    1       -9.408  -2.848  -6.456  0.00  0.00    +0.480 A 
ATOM      8  N   LIG    1       -8.065  -2.834  -6.675  0.00  0.00    -0.600 N 
ATOM      9  H   LIG    1       -7.522  -3.583  -6.966  0.00  0.00    +0.430 HD
ATOM     10  C   LIG    1       -7.618  -1.556  -6.405  0.00  0.00    +0.080 A 
ATOM     11  C   LIG    1       -6.374  -0.939  -6.446  0.00  0.00    +0.020 A 
BRANCH   4  12
ATOM     12  O   LIG    1       -9.703   1.253  -5.306  0.00  0.00    -0.300 OA
ATOM     13  C   LIG    1       -9.486   2.626  -4.974  0.00  0.00    +0.250 C 
ENDBRANCH   4  12
ENDBRANCH   1   2
BRANCH   1  14
ATOM     14  N   LIG    1       -4.197   0.818  -4.888  0.00  0.00    -0.500 NA
ATOM     15  C   LIG    1       -2.845   1.390  -4.923  0.00  0.00    +0.210 C 
ATOM     16  C   LIG    1       -2.091   0.999  -3.651  0.00  0.00    +0.050 C 
ATOM     17  C   LIG    1       -2.854   1.521  -2.430  0.00  0.00    +0.160 C 
ATOM     18  C   LIG    1       -4.275   0.950  -2.442  0.00  0.00    +0.050 C 
ATOM     19  C   LIG    1       -4.965   1.341  -3.751  0.00  0.00    +0.210 C 
BRANCH  17  20
ATOM     20  N   LIG    1       -2.166   1.099  -1.203  0.00  0.00    -0.380 N 
ATOM     21  C   LIG    1       -0.803   1.645  -1.195  0.00  0.00    +0.260 C 
ATOM     22  C   LIG    1       -0.055   1.141   0.041  0.00  0.00    +0.090 C 
ATOM     23  C   LIG    1       -0.796   1.597   1.301  0.00  0.00    +0.040 C 
ATOM     24  C   LIG    1       -2.239   1.084   1.246  0.00  0.00    +0.080 C 
ATOM     25  C   LIG    1       -2.906   1.590  -0.035  0.00  0.00    +0.260 C 
ATOM     26  H   LIG    1       -2.123   0.091  -1.174  0.00  0.00    +0.420 HD
BRANCH  23  27
ATOM     27  C   LIG    1       -0.107   1.040   2.520  0.00  0.00    +0.460 C 
ATOM     28  O   LIG    1        0.876   0.348   2.395  0.00  0.00    -0.490 OA
BRANCH  27  29
ATOM     29  O   LIG    1       -0.585   1.311   3.744  0.00  0.00    -0.360 OA
ATOM     30  C   LIG    1        0.129   0.741   4.873  0.00  0.00    +0.280 C 
ENDBRANCH  27  29
ENDBRANCH  23  27
ENDBRANCH  17  20
ENDBRANCH   1  14
BRANCH   1  33
ATOM     31  N   LIG    1       -5.704   2.997  -7.463  0.00  0.00    -0.710 N 
ATOM     32  H   LIG    1       -6.041   2.372  -8.124  0.00  0.00    +0.410 HD
ATOM     33  C   LIG    1       -5.079   2.539  -6.360  0.00  0.00    +0.490 C 
ATOM     34  O   LIG    1       -4.658   3.320  -5.534  0.00  0.00    -0.540 OA
BRANCH  31  35
ATOM     35  C   LIG    1       -5.875   4.438  -7.663  0.00  0.00    +0.310 C 
BRANCH  35  37
ATOM     36  C   LIG    1       -7.899   4.844  -8.967  0.00  0.00    +0.050 C 
ATOM     37  C   LIG    1       -6.599   4.682  -8.962  0.00  0.00    -0.160 C 
ATOM     38  C   LIG    1       -5.827   4.740 -10.255  0.00  0.00    +0.080 C 
ENDBRANCH  35  37
ENDBRANCH  31  35
ENDBRANCH   1  33
TORSDOF 9
