REMARK  Name = ZINCpe000000YB2o.0
REMARK                            x       y       z     vdW  Elec       q    Type
REMARK                         _______ _______ _______ _____ _____    ______ ____
ROOT
ATOM      1  C   LIG    1        0.230   1.221   2.470  0.00  0.00    +0.520 C 
ATOM      2  N   LIG    1        0.008   1.575   1.189  0.00  0.00    -0.730 N 
ATOM      3  H   LIG    1       -0.719   2.179   0.972  0.00  0.00    +0.410 HD
ATOM      4  O   LIG    1        1.139   0.466   2.742  0.00  0.00    -0.540 OA
ENDROOT
BRANCH   1   5
ATOM      5  C   LIG    1       -0.652   1.764   3.565  0.00  0.00    +0.060 C 
BRANCH   5   6
ATOM      6  C   LIG    1       -0.189   1.210   4.915  0.00  0.00    +0.340 C 
BRANCH   6  11
ATOM      7  N   LIG    1       -1.824  -2.080   4.990  0.00  0.00    -0.870 N 
ATOM      8  H   LIG    1       -2.720  -2.449   4.932  0.00  0.00    +0.410 HD
ATOM      9  H   LIG    1       -1.067  -2.668   5.140  0.00  0.00    +0.400 HD
ATOM     10  C   LIG    1       -1.632  -0.753   4.861  0.00  0.00    +0.710 C 
ATOM     11  N   LIG    1       -0.388  -0.241   4.941  0.00  0.00    -0.730 N 
ATOM     12  H   LIG    1        0.377  -0.834   5.015  0.00  0.00    +0.400 HD
ATOM     13  O   LIG    1       -2.581  -0.016   4.672  0.00  0.00    -0.580 OA
ENDBRANCH   6  11
BRANCH   6  14
ATOM     14  C   LIG    1       -0.991   1.847   6.020  0.00  0.00    -0.080 A 
ATOM     15  C   LIG    1       -1.558   3.094   5.833  0.00  0.00    +0.010 A 
ATOM     16  C   LIG    1       -2.297   3.676   6.846  0.00  0.00    +0.000 A 
ATOM     17  C   LIG    1       -2.462   3.015   8.049  0.00  0.00    +0.000 A 
ATOM     18  C   LIG    1       -1.890   1.771   8.238  0.00  0.00    +0.000 A 
ATOM     19  C   LIG    1       -1.155   1.187   7.224  0.00  0.00    +0.020 A 
ENDBRANCH   6  14
ENDBRANCH   5   6
ENDBRANCH   1   5
BRANCH   2  20
ATOM     20  C   LIG    1        0.866   1.048   0.125  0.00  0.00    +0.370 C 
BRANCH  20  21
ATOM     21  C   LIG    1        0.410   1.593  -1.204  0.00  0.00    -0.170 A 
ATOM     22  C   LIG    1        0.845   2.725  -1.761  0.00  0.00    +0.020 A 
ATOM     23  C   LIG    1        0.284   3.023  -2.991  0.00  0.00    +0.170 A 
ATOM     24  C   LIG    1       -0.613   2.138  -3.429  0.00  0.00    -0.800 A 
ATOM     25  S   LIG    1       -0.782   0.839  -2.255  0.00  0.00    +0.250 S 
BRANCH  24  26
ATOM     26  S   LIG    1       -1.494   2.253  -4.950  0.00  0.00    +2.730 S 
ATOM     27  O   LIG    1       -1.503   3.628  -5.306  0.00  0.00    -0.950 OA
ATOM     28  O   LIG    1       -2.678   1.484  -4.787  0.00  0.00    -0.960 OA
BRANCH  26  29
ATOM     29  N   LIG    1       -0.589   1.478  -6.101  0.00  0.00    -1.250 NA
ATOM     30  H   LIG    1       -0.905   1.431  -7.016  0.00  0.00    +0.420 HD
ATOM     31  H   LIG    1        0.259   1.073  -5.859  0.00  0.00    +0.420 HD
ENDBRANCH  26  29
ENDBRANCH  24  26
ENDBRANCH  20  21
ENDBRANCH   2  20
TORSDOF 8
