REMARK  Name = ZINCrg00000cg3oR.1
REMARK                            x       y       z     vdW  Elec       q    Type
REMARK                         _______ _______ _______ _____ _____    ______ ____
ROOT
ATOM      1  C   LIG    1       -2.423   1.096   0.285  0.00  0.00    +0.470 C 
ENDROOT
BRANCH   1  10
ATOM      2  O   LIG    1        0.002  -0.004   0.002  0.00  0.00    -0.540 OA
ATOM      3  C   LIG    1       -0.014   1.211   0.009  0.00  0.00    +0.710 C 
ATOM      4  N   LIG    1        1.149   1.882   0.001  0.00  0.00    -0.730 N 
ATOM      5  H   LIG    1        1.982   1.395  -0.093  0.00  0.00    +0.430 HD
ATOM      6  C   LIG    1        1.177   3.340   0.133  0.00  0.00    +0.300 C 
ATOM      7  C   LIG    1       -0.030   3.943  -0.590  0.00  0.00    +0.000 C 
ATOM      8  C   LIG    1       -1.270   3.174  -0.209  0.00  0.00    +0.520 C 
ATOM      9  O   LIG    1       -2.334   3.748  -0.113  0.00  0.00    -0.460 OA
ATOM     10  N   LIG    1       -1.196   1.851   0.018  0.00  0.00    -0.570 N 
BRANCH   7  11
ATOM     11  C   LIG    1       -0.191   5.408  -0.181  0.00  0.00    +0.000 C 
ATOM     12  C   LIG    1       -1.360   6.071  -0.950  0.00  0.00    +0.030 C 
ATOM     13  C   LIG    1       -0.829   7.472  -1.311  0.00  0.00    +0.190 C 
ATOM     14  O   LIG    1        0.488   7.587  -0.748  0.00  0.00    -0.370 OA
ATOM     15  C   LIG    1        1.024   6.250  -0.648  0.00  0.00    +0.220 C 
ENDBRANCH   7  11
ENDBRANCH   1  10
BRANCH   1  16
ATOM     16  C   LIG    1       -2.696   1.090   1.767  0.00  0.00    +0.210 A 
ATOM     17  N   LIG    1       -2.268   0.192   2.615  0.00  0.00    -0.280 NA
ATOM     18  N   LIG    1       -2.746   0.568   3.881  0.00  0.00    -0.460 N 
ATOM     19  H   LIG    1       -2.596   0.105   4.720  0.00  0.00    +0.450 HD
ATOM     20  C   LIG    1       -3.456   1.694   3.698  0.00  0.00    +0.280 A 
ATOM     21  N   LIG    1       -3.418   1.996   2.425  0.00  0.00    -0.510 NA
BRANCH  20  22
ATOM     22  C   LIG    1       -4.172   2.473   4.771  0.00  0.00    +0.350 C 
BRANCH  22  23
ATOM     23  O   LIG    1       -3.984   1.830   6.033  0.00  0.00    -0.320 OA
BRANCH  23  24
ATOM     24  C   LIG    1       -4.569   2.409   7.114  0.00  0.00    +0.130 A 
ATOM     25  C   LIG    1       -5.305   3.575   6.965  0.00  0.00    -0.080 A 
ATOM     26  C   LIG    1       -5.904   4.158   8.064  0.00  0.00    +0.050 A 
ATOM     27  C   LIG    1       -5.761   3.587   9.315  0.00  0.00    -0.020 A 
ATOM     28  C   LIG    1       -5.023   2.427   9.468  0.00  0.00    +0.050 A 
ATOM     29  C   LIG    1       -4.427   1.837   8.370  0.00  0.00    -0.020 A 
ENDBRANCH  23  24
ENDBRANCH  22  23
ENDBRANCH  20  22
ENDBRANCH   1  16
TORSDOF 6
