REMARK  Name = ZINCrg00000cg3oR.2
REMARK                            x       y       z     vdW  Elec       q    Type
REMARK                         _______ _______ _______ _____ _____    ______ ____
ROOT
ATOM      1  C   LIG    1        0.658  10.468   0.052  0.00  0.00    +0.460 C 
ENDROOT
BRANCH   1  10
ATOM      2  O   LIG    1       -0.657  12.505  -1.083  0.00  0.00    -0.530 OA
ATOM      3  C   LIG    1        0.072  11.883  -1.830  0.00  0.00    +0.710 C 
ATOM      4  N   LIG    1        0.064  12.169  -3.142  0.00  0.00    -0.730 N 
ATOM      5  H   LIG    1       -0.459  12.919  -3.465  0.00  0.00    +0.430 HD
ATOM      6  C   LIG    1        0.833  11.363  -4.092  0.00  0.00    +0.300 C 
ATOM      7  C   LIG    1        2.143  10.916  -3.441  0.00  0.00    +0.010 C 
ATOM      8  C   LIG    1        1.857  10.387  -2.058  0.00  0.00    +0.520 C 
ATOM      9  O   LIG    1        2.516   9.473  -1.611  0.00  0.00    -0.490 OA
ATOM     10  N   LIG    1        0.867  10.926  -1.323  0.00  0.00    -0.570 N 
BRANCH   7  11
ATOM     11  C   LIG    1        2.787   9.817  -4.288  0.00  0.00    -0.010 C 
ATOM     12  C   LIG    1        4.153   9.392  -3.696  0.00  0.00    +0.030 C 
ATOM     13  C   LIG    1        5.061   9.219  -4.929  0.00  0.00    +0.190 C 
ATOM     14  O   LIG    1        4.256   9.474  -6.092  0.00  0.00    -0.370 OA
ATOM     15  C   LIG    1        3.191  10.359  -5.683  0.00  0.00    +0.220 C 
ENDBRANCH   7  11
ENDBRANCH   1  10
BRANCH   1  16
ATOM     16  C   LIG    1       -0.313   9.315   0.056  0.00  0.00    +0.150 A 
ATOM     17  N   LIG    1       -1.615   9.400   0.068  0.00  0.00    -0.250 NA
ATOM     18  N   LIG    1       -2.126   8.220   0.061  0.00  0.00    -0.280 NA
ATOM     19  C   LIG    1       -1.173   7.329   0.053  0.00  0.00    +0.180 A 
ATOM     20  N   LIG    1        0.005   7.998   0.045  0.00  0.00    -0.550 N 
ATOM     21  H   LIG    1        0.895   7.612   0.035  0.00  0.00    +0.440 HD
BRANCH  19  22
ATOM     22  C   LIG    1       -1.350   5.832   0.047  0.00  0.00    +0.350 C 
BRANCH  22  23
ATOM     23  O   LIG    1       -0.069   5.201   0.031  0.00  0.00    -0.320 OA
BRANCH  23  24
ATOM     24  C   LIG    1       -0.050   3.842   0.024  0.00  0.00    +0.130 A 
ATOM     25  C   LIG    1        1.160   3.163   0.008  0.00  0.00    -0.020 A 
ATOM     26  C   LIG    1        1.176   1.782   0.000  0.00  0.00    +0.050 A 
ATOM     27  C   LIG    1       -0.013   1.076   0.008  0.00  0.00    -0.020 A 
ATOM     28  C   LIG    1       -1.220   1.750   0.017  0.00  0.00    +0.050 A 
ATOM     29  C   LIG    1       -1.241   3.131   0.031  0.00  0.00    -0.080 A 
ENDBRANCH  23  24
ENDBRANCH  22  23
ENDBRANCH  19  22
ENDBRANCH   1  16
TORSDOF 6
