REMARK  Name = ZINCrg00000cg3oR.0
REMARK                            x       y       z     vdW  Elec       q    Type
REMARK                         _______ _______ _______ _____ _____    ______ ____
ROOT
ATOM      1  C   LIG    1       -0.779  10.513   1.733  0.00  0.00    +0.450 C 
ENDROOT
BRANCH   1  10
ATOM      2  O   LIG    1       -2.288  12.226   0.333  0.00  0.00    -0.560 OA
ATOM      3  C   LIG    1       -2.727  11.928   1.427  0.00  0.00    +0.710 C 
ATOM      4  N   LIG    1       -3.824  12.552   1.882  0.00  0.00    -0.720 N 
ATOM      5  H   LIG    1       -4.299  13.169   1.304  0.00  0.00    +0.430 HD
ATOM      6  C   LIG    1       -4.311  12.317   3.243  0.00  0.00    +0.300 C 
ATOM      7  C   LIG    1       -4.085  10.852   3.622  0.00  0.00    +0.010 C 
ATOM      8  C   LIG    1       -2.681  10.454   3.244  0.00  0.00    +0.520 C 
ATOM      9  O   LIG    1       -2.070   9.661   3.928  0.00  0.00    -0.460 OA
ATOM     10  N   LIG    1       -2.106  10.979   2.146  0.00  0.00    -0.570 N 
BRANCH   7  11
ATOM     11  C   LIG    1       -4.277  10.678   5.130  0.00  0.00    +0.000 C 
ATOM     12  C   LIG    1       -4.048   9.206   5.550  0.00  0.00    +0.030 C 
ATOM     13  C   LIG    1       -5.157   8.931   6.584  0.00  0.00    +0.190 C 
ATOM     14  O   LIG    1       -5.894  10.153   6.755  0.00  0.00    -0.370 OA
ATOM     15  C   LIG    1       -5.758  10.903   5.528  0.00  0.00    +0.210 C 
ENDBRANCH   7  11
ENDBRANCH   1  10
BRANCH   1  16
ATOM     16  C   LIG    1       -0.928   9.344   0.793  0.00  0.00    +0.260 A 
ATOM     17  N   LIG    1       -1.077   8.092   1.141  0.00  0.00    -0.500 NA
ATOM     18  C   LIG    1       -1.173   7.329   0.054  0.00  0.00    +0.220 A 
ATOM     19  N   LIG    1       -1.094   8.089  -1.007  0.00  0.00    -0.280 NA
ATOM     20  N   LIG    1       -0.934   9.407  -0.550  0.00  0.00    -0.450 N 
ATOM     21  H   LIG    1       -0.846  10.205  -1.095  0.00  0.00    +0.450 HD
BRANCH  18  22
ATOM     22  C   LIG    1       -1.350   5.832   0.047  0.00  0.00    +0.340 C 
BRANCH  22  23
ATOM     23  O   LIG    1       -0.069   5.201   0.031  0.00  0.00    -0.310 OA
BRANCH  23  24
ATOM     24  C   LIG    1       -0.050   3.842   0.023  0.00  0.00    +0.130 A 
ATOM     25  C   LIG    1        1.160   3.163   0.008  0.00  0.00    -0.020 A 
ATOM     26  C   LIG    1        1.176   1.782   0.000  0.00  0.00    +0.050 A 
ATOM     27  C   LIG    1       -0.013   1.076   0.008  0.00  0.00    -0.040 A 
ATOM     28  C   LIG    1       -1.220   1.750   0.017  0.00  0.00    +0.050 A 
ATOM     29  C   LIG    1       -1.241   3.131   0.031  0.00  0.00    -0.080 A 
ENDBRANCH  23  24
ENDBRANCH  22  23
ENDBRANCH  18  22
ENDBRANCH   1  16
TORSDOF 6
