REMARK  Name = ZINCrH000004qhxb.0
REMARK                            x       y       z     vdW  Elec       q    Type
REMARK                         _______ _______ _______ _____ _____    ______ ____
ROOT
ATOM      1  C   LIG    1        1.157   3.598   0.017  0.00  0.00    +0.110 C 
ATOM      2  C   LIG    1        1.177   2.092   0.014  0.00  0.00    -0.110 A 
ATOM      3  C   LIG    1        2.378   1.419   0.006  0.00  0.00    +0.080 A 
ATOM      4  C   LIG    1        2.395   0.022   0.003  0.00  0.00    -0.050 A 
ATOM      5  C   LIG    1        1.192  -0.688   0.007  0.00  0.00    +0.100 A 
ATOM      6  C   LIG    1       -0.006  -0.009   0.015  0.00  0.00    +0.030 A 
ATOM      7  C   LIG    1       -0.019   1.381   0.018  0.00  0.00    +0.190 A 
ENDROOT
BRANCH   7   8
ATOM      8  N   LIG    1       -1.236   2.066   0.019  0.00  0.00    -0.680 N 
ATOM      9  H   LIG    1       -1.320   2.904   0.500  0.00  0.00    +0.410 HD
ATOM     10  C   LIG    1       -2.293   1.563  -0.648  0.00  0.00    +0.710 C 
ATOM     11  N   LIG    1       -3.440   2.267  -0.723  0.00  0.00    -0.650 N 
ATOM     12  H   LIG    1       -3.504   3.136  -0.297  0.00  0.00    +0.410 HD
ATOM     13  O   LIG    1       -2.213   0.474  -1.182  0.00  0.00    -0.560 OA
BRANCH  11  14
ATOM     14  C   LIG    1       -4.545   1.742  -1.421  0.00  0.00    +0.020 A 
ATOM     15  C   LIG    1       -5.754   2.339  -1.569  0.00  0.00    +0.200 A 
ATOM     16  N   LIG    1       -6.535   1.508  -2.307  0.00  0.00    -0.370 N 
ATOM     17  N   LIG    1       -5.781   0.366  -2.609  0.00  0.00    -0.280 NA
ATOM     18  C   LIG    1       -4.593   0.505  -2.080  0.00  0.00    +0.270 A 
BRANCH  16  19
ATOM     19  C   LIG    1       -7.921   1.758  -2.710  0.00  0.00    +0.320 C 
BRANCH  19  20
ATOM     20  C   LIG    1       -8.041   1.628  -4.230  0.00  0.00    +0.220 C 
ATOM     21  F   LIG    1       -9.364   1.867  -4.615  0.00  0.00    -0.210 F 
ENDBRANCH  19  20
ENDBRANCH  16  19
ENDBRANCH  11  14
ENDBRANCH   7   8
BRANCH   4  22
ATOM     22  C   LIG    1        3.682  -0.702  -0.006  0.00  0.00    +0.230 A 
ATOM     23  N   LIG    1        3.850  -2.014  -0.005  0.00  0.00    -0.470 NA
ATOM     24  C   LIG    1        5.178  -2.206  -0.018  0.00  0.00    +0.210 A 
ATOM     25  N   LIG    1        5.745  -1.036  -0.017  0.00  0.00    -0.380 NA
ATOM     26  O   LIG    1        4.909  -0.158  -0.010  0.00  0.00    +0.080 OA
BRANCH  24  27
ATOM     27  C   LIG    1        5.884  -3.537  -0.025  0.00  0.00    +0.060 C 
ATOM     28  C   LIG    1        7.402  -3.533   0.171  0.00  0.00    +0.050 C 
ATOM     29  C   LIG    1        6.809  -3.839  -1.206  0.00  0.00    +0.050 C 
ENDBRANCH  24  27
ENDBRANCH   4  22
TORSDOF 6
