REMARK  Name = ZINCqH0000004Ssw.0
REMARK                            x       y       z     vdW  Elec       q    Type
REMARK                         _______ _______ _______ _____ _____    ______ ____
ROOT
ATOM      1  N   LIG    1       -4.053   1.724   1.029  0.00  0.00    -0.700 N 
ATOM      2  H   LIG    1       -3.483   2.468   1.279  0.00  0.00    +0.420 HD
ENDROOT
BRANCH   1   3
ATOM      3  C   LIG    1       -5.319   1.585   1.611  0.00  0.00    +0.430 A 
ATOM      4  C   LIG    1       -5.862   2.416   2.538  0.00  0.00    -0.110 A 
ATOM      5  N   LIG    1       -7.107   1.926   2.838  0.00  0.00    -0.330 N 
ATOM      6  C   LIG    1       -8.084   2.352   3.689  0.00  0.00    +0.220 A 
ATOM      7  C   LIG    1       -9.242   1.668   3.804  0.00  0.00    +0.030 A 
ATOM      8  C   LIG    1       -9.456   0.505   3.046  0.00  0.00    +0.090 A 
ATOM      9  C   LIG    1       -8.488   0.069   2.194  0.00  0.00    +0.070 A 
ATOM     10  C   LIG    1       -7.286   0.795   2.086  0.00  0.00    +0.310 A 
ATOM     11  N   LIG    1       -6.195   0.608   1.353  0.00  0.00    -0.520 NA
BRANCH   4  12
ATOM     12  N   LIG    1       -5.228   3.630   3.115  0.00  0.00    +0.050 N 
ATOM     13  O   LIG    1       -5.387   4.713   2.581  0.00  0.00    -0.120 OA
ATOM     14  O   LIG    1       -4.549   3.542   4.122  0.00  0.00    -0.120 OA
ENDBRANCH   4  12
ENDBRANCH   1   3
BRANCH   1  15
ATOM     15  C   LIG    1       -3.589   0.746   0.042  0.00  0.00    +0.360 C 
ATOM     16  C   LIG    1       -4.107   1.134  -1.344  0.00  0.00    +0.060 C 
BRANCH  15  25
ATOM     17  N   LIG    1       -1.320  -0.403   0.013  0.00  0.00    -0.480 N 
ATOM     18  C   LIG    1        0.002  -0.004   0.002  0.00  0.00    +0.050 A 
ATOM     19  C   LIG    1        1.215  -0.678  -0.014  0.00  0.00    +0.010 A 
ATOM     20  C   LIG    1        2.394   0.037  -0.022  0.00  0.00    +0.030 A 
ATOM     21  C   LIG    1        2.375   1.425  -0.014  0.00  0.00    +0.000 A 
ATOM     22  C   LIG    1        1.190   2.105   0.002  0.00  0.00    +0.070 A 
ATOM     23  C   LIG    1       -0.017   1.401   0.010  0.00  0.00    +0.050 A 
ATOM     24  N   LIG    1       -1.321   1.779   0.030  0.00  0.00    -0.480 NA
ATOM     25  C   LIG    1       -2.082   0.724   0.027  0.00  0.00    +0.270 A 
BRANCH  17  27
ATOM     26  C   LIG    1       -1.966  -2.272   1.453  0.00  0.00    +0.030 C 
ATOM     27  C   LIG    1       -1.810  -1.784   0.011  0.00  0.00    +0.300 C 
ENDBRANCH  17  27
ENDBRANCH  15  25
ENDBRANCH   1  15
TORSDOF 5
