REMARK  Name = ZINCrg000000nbQR.0
REMARK                            x       y       z     vdW  Elec       q    Type
REMARK                         _______ _______ _______ _____ _____    ______ ____
ROOT
ATOM      1  C   LIG    1        5.066   0.063  -3.902  0.00  0.00    +0.180 A 
ATOM      2  C   LIG    1        4.190   0.466  -4.900  0.00  0.00    -0.090 A 
ATOM      3  C   LIG    1        4.615   0.512  -6.213  0.00  0.00    +0.160 A 
ATOM      4  C   LIG    1        5.908   0.145  -6.536  0.00  0.00    -0.710 A 
ATOM      5  C   LIG    1        6.782  -0.262  -5.544  0.00  0.00    +0.170 A 
ATOM      6  C   LIG    1        6.363  -0.304  -4.228  0.00  0.00    -0.010 A 
ENDROOT
BRANCH   4   7
ATOM      7  S   LIG    1        6.445   0.197  -8.213  0.00  0.00    +2.700 S 
ATOM      8  O   LIG    1        7.860   0.321  -8.178  0.00  0.00    -0.950 OA
ATOM      9  O   LIG    1        5.600   1.128  -8.876  0.00  0.00    -0.950 OA
BRANCH   7  10
ATOM     10  N   LIG    1        6.121  -1.284  -8.878  0.00  0.00    -1.000 NA
ATOM     11  C   LIG    1        7.116  -2.368  -8.835  0.00  0.00    +0.280 C 
ATOM     12  C   LIG    1        6.429  -3.628  -8.286  0.00  0.00    +0.220 C 
ATOM     13  O   LIG    1        5.244  -3.885  -9.044  0.00  0.00    -0.370 OA
ATOM     14  C   LIG    1        4.258  -2.853  -8.956  0.00  0.00    +0.220 C 
ATOM     15  C   LIG    1        4.832  -1.555  -9.534  0.00  0.00    +0.280 C 
ENDBRANCH   7  10
ENDBRANCH   4   7
BRANCH   1  16
ATOM     16  O   LIG    1        4.651   0.023  -2.608  0.00  0.00    -0.300 OA
BRANCH  16  17
ATOM     17  C   LIG    1        3.302   0.415  -2.346  0.00  0.00    +0.200 C 
BRANCH  17  18
ATOM     18  C   LIG    1        3.022   0.305  -0.846  0.00  0.00    +0.370 C 
BRANCH  18  23
ATOM     19  C   LIG    1        1.312   2.011  -0.162  0.00  0.00    +0.200 A 
ATOM     20  N   LIG    1        0.008   2.009  -0.032  0.00  0.00    -0.290 NA
ATOM     21  N   LIG    1       -0.420   0.834  -0.343  0.00  0.00    -0.070 NA
ATOM     22  N   LIG    1        0.577   0.087  -0.668  0.00  0.00    -0.090 NA
ATOM     23  N   LIG    1        1.663   0.777  -0.568  0.00  0.00    -0.310 N 
BRANCH  19  25
ATOM     24  C   LIG    1        1.416   4.426   0.393  0.00  0.00    +0.080 C 
ATOM     25  C   LIG    1        2.240   3.171   0.095  0.00  0.00    +0.010 C 
ATOM     26  C   LIG    1        3.108   3.413  -1.142  0.00  0.00    +0.050 C 
ATOM     27  C   LIG    1        3.136   2.853   1.293  0.00  0.00    +0.060 C 
ENDBRANCH  19  25
ENDBRANCH  18  23
ENDBRANCH  17  18
ENDBRANCH  16  17
ENDBRANCH   1  16
TORSDOF 7
