REMARK  Name = ZINCqH00000055MK.0
REMARK                            x       y       z     vdW  Elec       q    Type
REMARK                         _______ _______ _______ _____ _____    ______ ____
ROOT
ATOM      1  N   LIG    1        3.366   0.329  -0.441  0.00  0.00    -0.730 N 
ATOM      2  H   LIG    1        3.588   0.366   0.502  0.00  0.00    +0.400 HD
ATOM      3  C   LIG    1        3.712  -0.748  -1.173  0.00  0.00    +0.590 C 
ATOM      4  O   LIG    1        3.434  -0.794  -2.356  0.00  0.00    -0.510 OA
ENDROOT
BRANCH   3   5
ATOM      5  C   LIG    1        4.428  -1.868  -0.541  0.00  0.00    -0.040 A 
ATOM      6  C   LIG    1        4.848  -3.033  -1.154  0.00  0.00    +0.040 A 
ATOM      7  C   LIG    1        5.476  -3.780  -0.141  0.00  0.00    +0.070 A 
ATOM      8  N   LIG    1        5.411  -3.077   0.970  0.00  0.00    -0.250 NA
ATOM      9  N   LIG    1        4.813  -1.959   0.767  0.00  0.00    -0.380 N 
ATOM     10  H   LIG    1        4.655  -1.281   1.443  0.00  0.00    +0.440 HD
BRANCH   7  11
ATOM     11  C   LIG    1        6.098  -5.119  -0.297  0.00  0.00    -0.010 A 
ATOM     12  C   LIG    1        6.090  -5.754  -1.537  0.00  0.00    +0.030 A 
ATOM     13  C   LIG    1        6.676  -6.996  -1.677  0.00  0.00    +0.010 A 
ATOM     14  C   LIG    1        7.260  -7.615  -0.587  0.00  0.00    +0.010 A 
ATOM     15  C   LIG    1        7.265  -6.992   0.648  0.00  0.00    +0.010 A 
ATOM     16  C   LIG    1        6.688  -5.747   0.798  0.00  0.00    +0.040 A 
ENDBRANCH   7  11
ENDBRANCH   3   5
BRANCH   1  17
ATOM     17  C   LIG    1        2.654   1.444  -1.070  0.00  0.00    +0.260 C 
BRANCH  17  18
ATOM     18  C   LIG    1        2.551   2.607  -0.081  0.00  0.00    +0.210 C 
BRANCH  18  19
ATOM     19  C   LIG    1        1.700   3.699  -0.676  0.00  0.00    -0.070 A 
ATOM     20  C   LIG    1        2.292   4.849  -1.163  0.00  0.00    +0.060 A 
ATOM     21  C   LIG    1        1.512   5.851  -1.708  0.00  0.00    +0.010 A 
ATOM     22  C   LIG    1        0.139   5.704  -1.767  0.00  0.00    +0.030 A 
ATOM     23  C   LIG    1       -0.454   4.552  -1.286  0.00  0.00    +0.030 A 
ATOM     24  C   LIG    1        0.326   3.551  -0.735  0.00  0.00    -0.030 A 
ATOM     25 CL   LIG    1       -0.419   2.107  -0.124  0.00  0.00    -0.070 Cl
ENDBRANCH  18  19
BRANCH  18  27
ATOM     26  C   LIG    1        4.572   2.323   1.222  0.00  0.00    +0.190 C 
ATOM     27  N   LIG    1        3.894   3.131   0.200  0.00  0.00    -0.530 NA
ATOM     28  C   LIG    1        4.697   3.207  -1.028  0.00  0.00    +0.200 C 
ENDBRANCH  18  27
ENDBRANCH  17  18
ENDBRANCH   1  17
TORSDOF 6
