REMARK  Name = ZINCrg00000IYLCA.0
REMARK                            x       y       z     vdW  Elec       q    Type
REMARK                         _______ _______ _______ _____ _____    ______ ____
ROOT
ATOM      1  N   LIG    1       -0.053   1.081  -2.660  0.00  0.00    -1.110 NA
ATOM      2  H   LIG    1        0.424   1.689  -3.246  0.00  0.00    +0.420 HD
ENDROOT
BRANCH   1   3
ATOM      3  C   LIG    1       -0.029  -0.360  -2.923  0.00  0.00    +0.240 C 
ATOM      4  C   LIG    1        1.224  -0.972  -2.293  0.00  0.00    +0.000 C 
ATOM      5  C   LIG    1        1.229  -2.483  -2.539  0.00  0.00    +0.290 C 
ATOM      6  N   LIG    1        1.099  -2.728  -3.982  0.00  0.00    -0.570 N 
ATOM      7  C   LIG    1       -0.022  -2.110  -4.705  0.00  0.00    +0.290 C 
ATOM      8  C   LIG    1       -0.012  -0.602  -4.434  0.00  0.00    +0.030 C 
BRANCH   6   9
ATOM      9  C   LIG    1        2.017  -3.526  -4.651  0.00  0.00    +0.350 A 
ATOM     10  N   LIG    1        3.096  -3.960  -4.035  0.00  0.00    -0.510 NA
ATOM     11  C   LIG    1        3.982  -4.726  -4.670  0.00  0.00    +0.190 A 
ATOM     12  C   LIG    1        3.813  -5.087  -5.960  0.00  0.00    +0.160 A 
ATOM     13  N   LIG    1        2.719  -4.676  -6.664  0.00  0.00    -0.480 N 
ATOM     14  C   LIG    1        2.546  -5.073  -8.063  0.00  0.00    +0.320 C 
ATOM     15  C   LIG    1        1.795  -3.903  -6.051  0.00  0.00    +0.480 A 
ATOM     16  O   LIG    1        0.804  -3.522  -6.651  0.00  0.00    -0.520 OA
ENDBRANCH   6   9
ENDBRANCH   1   3
BRANCH   1  17
ATOM     17  S   LIG    1       -0.897   1.672  -1.364  0.00  0.00    +2.610 S 
ATOM     18  O   LIG    1       -0.718   3.080  -1.442  0.00  0.00    -0.950 OA
ATOM     19  O   LIG    1       -2.187   1.090  -1.490  0.00  0.00    -0.950 OA
BRANCH  17  24
ATOM     20  C   LIG    1       -0.710   1.491   1.379  0.00  0.00    +0.180 C 
ATOM     21  C   LIG    1        0.468   1.723   2.358  0.00  0.00    +0.040 C 
ATOM     22  C   LIG    1        1.568   2.306   1.437  0.00  0.00    +0.030 C 
ATOM     23  C   LIG    1        1.415   1.518   0.120  0.00  0.00    +0.080 C 
ATOM     24  C   LIG    1       -0.033   1.000   0.083  0.00  0.00    -0.450 C 
BRANCH  20  25
ATOM     25  O   LIG    1       -1.595   0.492   1.890  0.00  0.00    -0.370 OA
BRANCH  25  27
ATOM     26  C   LIG    1       -3.905   0.073   2.464  0.00  0.00    +0.060 C 
ATOM     27  C   LIG    1       -2.712   1.019   2.610  0.00  0.00    +0.140 C 
ATOM     28  C   LIG    1       -2.346   1.155   4.089  0.00  0.00    +0.020 C 
ENDBRANCH  25  27
ENDBRANCH  20  25
ENDBRANCH  17  24
ENDBRANCH   1  17
TORSDOF 6
