REMARK  Name = ZINCpe00000y4jXB.0
REMARK                            x       y       z     vdW  Elec       q    Type
REMARK                         _______ _______ _______ _____ _____    ______ ____
ROOT
ATOM      1  C   LIG    1       -1.884  -2.830   3.344  0.00  0.00    +0.250 C 
ATOM      2  C   LIG    1       -3.075  -3.349   2.536  0.00  0.00    +0.040 C 
ENDROOT
BRANCH   1   4
ATOM      3  C   LIG    1       -1.294  -0.717   2.284  0.00  0.00    +0.600 C 
ATOM      4  N   LIG    1       -1.874  -1.365   3.313  0.00  0.00    -0.730 N 
ATOM      5  H   LIG    1       -2.285  -0.863   4.034  0.00  0.00    +0.400 HD
ATOM      6  O   LIG    1       -0.779  -1.347   1.381  0.00  0.00    -0.530 OA
BRANCH   3  12
ATOM      7  C   LIG    1       -0.718   1.572   1.248  0.00  0.00    +0.150 A 
ATOM      8  N   LIG    1       -0.918   2.818   1.577  0.00  0.00    -0.290 NA
ATOM      9  N   LIG    1       -1.607   2.860   2.795  0.00  0.00    -0.460 N 
ATOM     10  H   LIG    1       -1.880   3.664   3.264  0.00  0.00    +0.450 HD
ATOM     11  C   LIG    1       -1.825   1.600   3.204  0.00  0.00    +0.280 A 
ATOM     12  C   LIG    1       -1.284   0.757   2.254  0.00  0.00    -0.290 A 
BRANCH   7  14
ATOM     13  C   LIG    1        1.423   1.615  -0.003  0.00  0.00    +0.030 C 
ATOM     14  C   LIG    1       -0.013   1.086   0.008  0.00  0.00    +0.090 C 
ATOM     15  C   LIG    1       -0.753   1.593  -1.232  0.00  0.00    +0.030 C 
ENDBRANCH   7  14
ENDBRANCH   3  12
ENDBRANCH   1   4
BRANCH   1  16
ATOM     16  C   LIG    1       -2.002  -3.309   4.792  0.00  0.00    +0.030 C 
BRANCH  16  17
ATOM     17  C   LIG    1       -0.750  -2.897   5.569  0.00  0.00    +0.260 C 
BRANCH  17  18
ATOM     18  N   LIG    1       -0.863  -3.356   6.956  0.00  0.00    -0.730 N 
ATOM     19  H   LIG    1       -1.652  -3.841   7.243  0.00  0.00    +0.400 HD
ATOM     20  C   LIG    1        0.130  -3.104   7.832  0.00  0.00    +0.500 C 
ATOM     21  O   LIG    1        1.116  -2.497   7.473  0.00  0.00    -0.520 OA
BRANCH  20  22
ATOM     22  C   LIG    1        0.014  -3.576   9.258  0.00  0.00    +0.230 C 
ATOM     23  C   LIG    1        0.365  -5.063   9.329  0.00  0.00    +0.040 C 
ATOM     24  C   LIG    1        0.457  -5.477  10.802  0.00  0.00    +0.050 C 
ATOM     25  C   LIG    1        1.674  -4.783  11.419  0.00  0.00    +0.070 C 
ATOM     26  C   LIG    1        1.653  -3.320  11.083  0.00  0.00    +0.520 C 
ATOM     27  O   LIG    1        2.341  -2.569  11.742  0.00  0.00    -0.550 OA
ATOM     28  N   LIG    1        0.919  -2.801  10.098  0.00  0.00    -0.700 N 
ATOM     29  H   LIG    1        0.993  -1.849   9.929  0.00  0.00    +0.400 HD
ENDBRANCH  20  22
ENDBRANCH  17  18
ENDBRANCH  16  17
ENDBRANCH   1  16
TORSDOF 7
