REMARK  Name = ZINCrD00000hQ5a2.0
REMARK                            x       y       z     vdW  Elec       q    Type
REMARK                         _______ _______ _______ _____ _____    ______ ____
ROOT
ATOM      1  N   LIG    1       -1.225  -0.057  -0.470  0.00  0.00    -0.600 N 
ATOM      2  C   LIG    1       -1.749   1.260  -0.841  0.00  0.00    +0.290 C 
ENDROOT
BRANCH   1   3
ATOM      3  C   LIG    1        0.085  -0.184  -0.034  0.00  0.00    +0.450 A 
ATOM      4  C   LIG    1        0.668  -1.441   0.094  0.00  0.00    -0.150 A 
ATOM      5  C   LIG    1        1.986  -1.515   0.535  0.00  0.00    +0.390 A 
ATOM      6  N   LIG    1        2.636  -0.388   0.818  0.00  0.00    -0.560 NA
ATOM      7  C   LIG    1        2.049   0.784   0.684  0.00  0.00    +0.540 A 
ATOM      8  N   LIG    1        0.804   0.895   0.269  0.00  0.00    -0.590 NA
BRANCH   5   9
ATOM      9  N   LIG    1        2.611  -2.743   0.679  0.00  0.00    -0.470 N 
ATOM     10  C   LIG    1        3.706  -2.668   1.669  0.00  0.00    +0.210 C 
ATOM     11  C   LIG    1        4.780  -3.655   1.148  0.00  0.00    +0.020 C 
ATOM     12  C   LIG    1        4.679  -3.447  -0.386  0.00  0.00    +0.030 C 
ATOM     13  C   LIG    1        3.171  -3.205  -0.605  0.00  0.00    +0.190 C 
BRANCH  13  14
ATOM     14  C   LIG    1        2.963  -2.134  -1.678  0.00  0.00    +0.150 C 
BRANCH  14  15
ATOM     15  O   LIG    1        3.733  -0.976  -1.351  0.00  0.00    -0.550 OA
ATOM     16  H   LIG    1        3.649  -0.255  -1.990  0.00  0.00    +0.370 HD
ENDBRANCH  14  15
ENDBRANCH  13  14
ENDBRANCH   5   9
ENDBRANCH   1   3
BRANCH   1  17
ATOM     17  C   LIG    1       -2.085  -1.240  -0.559  0.00  0.00    +0.380 C 
BRANCH  17  19
ATOM     18  C   LIG    1       -4.128  -0.899   0.925  0.00  0.00    +0.060 A 
ATOM     19  C   LIG    1       -2.893  -1.370   0.706  0.00  0.00    -0.200 A 
ATOM     20  C   LIG    1       -2.488  -2.045   1.945  0.00  0.00    -0.110 A 
ATOM     21  C   LIG    1       -1.339  -2.718   2.357  0.00  0.00    +0.060 A 
ATOM     22  C   LIG    1       -1.277  -3.243   3.629  0.00  0.00    +0.000 A 
ATOM     23  C   LIG    1       -2.348  -3.099   4.498  0.00  0.00    +0.050 A 
ATOM     24  C   LIG    1       -3.488  -2.430   4.105  0.00  0.00    +0.020 A 
ATOM     25  C   LIG    1       -3.571  -1.893   2.827  0.00  0.00    +0.050 A 
ATOM     26  O   LIG    1       -4.528  -1.206   2.171  0.00  0.00    -0.190 OA
BRANCH  18  28
ATOM     27  C   LIG    1       -5.859  -1.103  -0.839  0.00  0.00    +0.040 C 
ATOM     28  C   LIG    1       -4.950  -0.134  -0.081  0.00  0.00    +0.130 C 
ENDBRANCH  18  28
ENDBRANCH  17  19
ENDBRANCH   1  17
TORSDOF 7
