REMARK  Name = ZINCnE00000rhogk.0
REMARK                            x       y       z     vdW  Elec       q    Type
REMARK                         _______ _______ _______ _____ _____    ______ ____
ROOT
ATOM      1  O   LIG    1       -2.120  -0.151  -1.134  0.00  0.00    -0.520 OA
ATOM      2  C   LIG    1       -1.755   0.873  -1.682  0.00  0.00    +0.590 C 
ATOM      3  N   LIG    1       -0.710   1.565  -1.188  0.00  0.00    -0.720 N 
ATOM      4  H   LIG    1       -0.419   2.381  -1.625  0.00  0.00    +0.400 HD
ENDROOT
BRANCH   3   5
ATOM      5  C   LIG    1       -0.013   1.086   0.008  0.00  0.00    +0.230 C 
ATOM      6  C   LIG    1       -0.755   1.571   1.250  0.00  0.00    +0.030 C 
ATOM      7  C   LIG    1       -0.211   0.864   2.494  0.00  0.00    +0.080 C 
ATOM      8  S   LIG    1        1.537   1.314   2.707  0.00  0.00    -0.220 S 
ATOM      9  C   LIG    1        2.241   0.905   1.082  0.00  0.00    -0.030 C 
ATOM     10  C   LIG    1        1.421   1.608  -0.003  0.00  0.00    +0.050 C 
BRANCH   9  11
ATOM     11  C   LIG    1        3.671   1.376   1.018  0.00  0.00    +0.520 C 
ATOM     12  O   LIG    1        4.454   0.845   0.249  0.00  0.00    -0.690 OA
ATOM     13  O   LIG    1        4.046   2.288   1.736  0.00  0.00    -0.670 OA
ENDBRANCH   9  11
ENDBRANCH   3   5
BRANCH   2  14
ATOM     14  C   LIG    1       -2.451   1.352  -2.876  0.00  0.00    -0.260 A 
ATOM     15  C   LIG    1       -3.526   0.733  -3.478  0.00  0.00    +0.010 A 
ATOM     16  C   LIG    1       -3.984   1.416  -4.594  0.00  0.00    +0.010 A 
ATOM     17  C   LIG    1       -3.311   2.529  -4.891  0.00  0.00    -0.060 A 
ATOM     18  S   LIG    1       -2.048   2.805  -3.779  0.00  0.00    +0.210 S 
BRANCH  15  19
ATOM     19  C   LIG    1       -4.130  -0.526  -2.983  0.00  0.00    -0.040 A 
ATOM     20  C   LIG    1       -3.322  -1.629  -2.708  0.00  0.00    +0.080 A 
ATOM     21  C   LIG    1       -3.890  -2.797  -2.241  0.00  0.00    -0.010 A 
ATOM     22  C   LIG    1       -5.258  -2.879  -2.057  0.00  0.00    +0.010 A 
ATOM     23  C   LIG    1       -6.066  -1.790  -2.335  0.00  0.00    -0.010 A 
ATOM     24  C   LIG    1       -5.509  -0.615  -2.796  0.00  0.00    +0.020 A 
ENDBRANCH  15  19
ENDBRANCH   2  14
TORSDOF 4
