REMARK  Name = ZINCpe00000gNaXc.0
REMARK                            x       y       z     vdW  Elec       q    Type
REMARK                         _______ _______ _______ _____ _____    ______ ____
ROOT
ATOM      1  O   LIG    1        0.002  -0.003   0.019  0.00  0.00    -0.480 OA
ATOM      2  C   LIG    1       -0.015   1.210   0.011  0.00  0.00    +0.520 C 
ATOM      3  N   LIG    1       -1.191   1.868   0.016  0.00  0.00    -0.660 N 
ATOM      4  H   LIG    1       -1.206   2.835   0.090  0.00  0.00    +0.430 HD
ENDROOT
BRANCH   3   5
ATOM      5  C   LIG    1       -2.392   1.155  -0.087  0.00  0.00    +0.230 A 
ATOM      6  C   LIG    1       -2.411  -0.090  -0.700  0.00  0.00    +0.050 A 
ATOM      7  C   LIG    1       -3.597  -0.791  -0.799  0.00  0.00    +0.130 A 
ATOM      8  C   LIG    1       -4.765  -0.253  -0.289  0.00  0.00    -0.060 A 
ATOM      9  C   LIG    1       -4.749   0.989   0.322  0.00  0.00    +0.150 A 
ATOM     10 CL   LIG    1       -6.254  -1.137  -0.415  0.00  0.00    -0.030 Cl
ATOM     11  C   LIG    1       -3.565   1.691   0.429  0.00  0.00    -0.070 A 
BRANCH  11  12
ATOM     12  N   LIG    1       -3.546   3.017   1.088  0.00  0.00    +0.040 N 
ATOM     13  O   LIG    1       -2.523   3.677   1.099  0.00  0.00    -0.180 OA
ATOM     14  O   LIG    1       -4.555   3.446   1.619  0.00  0.00    -0.130 OA
ENDBRANCH  11  12
ENDBRANCH   3   5
BRANCH   2  15
ATOM     15  C   LIG    1        1.280   1.981  -0.011  0.00  0.00    +0.290 C 
BRANCH  15  16
ATOM     16  O   LIG    1        2.396   1.053  -0.019  0.00  0.00    -0.330 OA
BRANCH  16  17
ATOM     17  C   LIG    1        3.629   1.583  -0.038  0.00  0.00    +0.460 C 
ATOM     18  O   LIG    1        3.771   2.783  -0.049  0.00  0.00    -0.490 OA
BRANCH  17  19
ATOM     19  C   LIG    1        4.837   0.681  -0.048  0.00  0.00    +0.390 C 
BRANCH  19  20
ATOM     20  N   LIG    1        6.054   1.496  -0.069  0.00  0.00    -0.570 N 
ATOM     21  C   LIG    1        6.645   1.886  -1.205  0.00  0.00    +0.530 C 
ATOM     22  C   LIG    1        7.869   2.711  -0.872  0.00  0.00    +0.110 C 
ATOM     23  C   LIG    1        7.889   2.722   0.670  0.00  0.00    +0.110 C 
ATOM     24  O   LIG    1        6.259   1.623  -2.324  0.00  0.00    -0.470 OA
ATOM     25  C   LIG    1        6.671   1.906   1.046  0.00  0.00    +0.530 C 
ATOM     26  O   LIG    1        6.310   1.663   2.178  0.00  0.00    -0.470 OA
ENDBRANCH  19  20
ENDBRANCH  17  19
ENDBRANCH  16  17
ENDBRANCH  15  16
ENDBRANCH   2  15
TORSDOF 7
