REMARK  Name = ZINCrH000004moI7.0
REMARK                            x       y       z     vdW  Elec       q    Type
REMARK                         _______ _______ _______ _____ _____    ______ ____
ROOT
ATOM      1  C   LIG    1       -0.500   2.906  -1.833  0.00  0.00    +0.140 A 
ATOM      2  N   LIG    1       -1.357   3.015  -2.826  0.00  0.00    -0.270 NA
ATOM      3  N   LIG    1       -1.851   1.737  -3.119  0.00  0.00    -0.320 N 
ATOM      4  C   LIG    1       -1.258   0.854  -2.273  0.00  0.00    +0.250 A 
ATOM      5  C   LIG    1       -0.425   1.547  -1.467  0.00  0.00    -0.250 A 
ENDROOT
BRANCH   1   9
ATOM      6  C   LIG    1        1.668   6.098  -0.042  0.00  0.00    +0.140 A 
ATOM      7  C   LIG    1        1.548   6.031  -1.423  0.00  0.00    -0.010 A 
ATOM      8  C   LIG    1        0.846   4.997  -2.007  0.00  0.00    +0.080 A 
ATOM      9  C   LIG    1        0.256   4.019  -1.208  0.00  0.00    -0.050 A 
ATOM     10  C   LIG    1        0.374   4.091   0.179  0.00  0.00    +0.070 A 
ATOM     11  C   LIG    1        1.082   5.125   0.756  0.00  0.00    -0.080 A 
BRANCH   6  13
ATOM     12  C   LIG    1        2.443   7.125   1.957  0.00  0.00    +0.250 C 
ATOM     13  O   LIG    1        2.359   7.118   0.530  0.00  0.00    -0.310 OA
ENDBRANCH   6  13
ENDBRANCH   1   9
BRANCH   3  14
ATOM     14  C   LIG    1       -2.787   1.424  -4.113  0.00  0.00    +0.160 A 
ATOM     15  C   LIG    1       -3.187   0.107  -4.302  0.00  0.00    -0.010 A 
ATOM     16  C   LIG    1       -4.113  -0.197  -5.280  0.00  0.00    +0.040 A 
ATOM     17  C   LIG    1       -4.635   0.805  -6.077  0.00  0.00    +0.000 A 
ATOM     18  C   LIG    1       -4.234   2.116  -5.895  0.00  0.00    +0.040 A 
ATOM     19  C   LIG    1       -3.312   2.428  -4.915  0.00  0.00    +0.020 A 
ENDBRANCH   3  14
BRANCH   5  20
ATOM     20  C   LIG    1        0.436   0.969  -0.373  0.00  0.00    +0.310 C 
BRANCH  20  21
ATOM     21  N   LIG    1        1.793   0.742  -0.887  0.00  0.00    -0.520 NA
ATOM     22  C   LIG    1        2.493   2.016  -1.108  0.00  0.00    +0.140 C 
ATOM     23  C   LIG    1        3.919   1.732  -1.586  0.00  0.00    +0.220 C 
ATOM     24  O   LIG    1        3.870   0.929  -2.768  0.00  0.00    -0.380 OA
ATOM     25  C   LIG    1        3.196  -0.320  -2.589  0.00  0.00    +0.160 C 
ATOM     26  C   LIG    1        3.169  -1.081  -3.916  0.00  0.00    +0.050 C 
ATOM     27  C   LIG    1        1.762  -0.057  -2.122  0.00  0.00    +0.150 C 
ENDBRANCH  20  21
ENDBRANCH   5  20
TORSDOF 5
