REMARK  Name = ZINCnE000001Ubhk.0
REMARK                            x       y       z     vdW  Elec       q    Type
REMARK                         _______ _______ _______ _____ _____    ______ ____
ROOT
ATOM      1  N   LIG    1       -0.063   5.244   0.030  0.00  0.00    -1.080 NA
ENDROOT
BRANCH   1   2
ATOM      2  C   LIG    1       -0.049   3.847   0.022  0.00  0.00    +0.300 A 
ATOM      3  C   LIG    1        1.161   3.163   0.007  0.00  0.00    -0.170 A 
ATOM      4  C   LIG    1        1.175   1.782   0.000  0.00  0.00    +0.080 A 
ATOM      5  C   LIG    1       -0.013   1.076   0.008  0.00  0.00    -0.130 A 
ATOM      6  C   LIG    1       -1.225   1.753   0.017  0.00  0.00    +0.180 A 
ATOM      7  C   LIG    1       -1.244   3.140   0.030  0.00  0.00    -0.040 A 
BRANCH   6   8
ATOM      8  N   LIG    1       -2.430   1.036   0.020  0.00  0.00    -0.300 N 
ATOM      9  C   LIG    1       -2.555  -0.308   0.109  0.00  0.00    +0.220 A 
ATOM     10  C   LIG    1       -3.876  -0.601   0.077  0.00  0.00    -0.130 A 
ATOM     11  C   LIG    1       -4.582   0.602  -0.035  0.00  0.00    +0.220 A 
ATOM     12  N   LIG    1       -3.716   1.584  -0.064  0.00  0.00    -0.280 NA
ENDBRANCH   6   8
ENDBRANCH   1   2
BRANCH   1  14
ATOM     13  O   LIG    1        1.996   5.815   1.264  0.00  0.00    -1.020 OA
ATOM     14  S   LIG    1        1.362   6.086   0.021  0.00  0.00    +2.610 S 
ATOM     15  O   LIG    1        1.973   5.828  -1.235  0.00  0.00    -1.010 OA
BRANCH  14  16
ATOM     16  C   LIG    1        0.955   7.800   0.034  0.00  0.00    -0.660 A 
ATOM     17  C   LIG    1        1.293   8.582   1.123  0.00  0.00    +0.170 A 
ATOM     18  C   LIG    1        0.979   9.929   1.131  0.00  0.00    +0.000 A 
ATOM     19  C   LIG    1        0.316  10.492   0.055  0.00  0.00    +0.030 A 
ATOM     20  C   LIG    1       -0.027   9.709  -1.033  0.00  0.00    -0.030 A 
ATOM     21 CL   LIG    1       -0.083  12.181   0.070  0.00  0.00    -0.060 Cl
ATOM     22  C   LIG    1        0.292   8.363  -1.044  0.00  0.00    +0.220 A 
ATOM     23  F   LIG    1       -0.043   7.597  -2.105  0.00  0.00    -0.110 F 
ENDBRANCH  14  16
ENDBRANCH   1  14
TORSDOF 4
