REMARK  Name = ZINCrD0000070Yoi.0
REMARK                            x       y       z     vdW  Elec       q    Type
REMARK                         _______ _______ _______ _____ _____    ______ ____
ROOT
ATOM      1  O   LIG    1        4.194   2.004   0.176  0.00  0.00    -0.340 OA
ENDROOT
BRANCH   1   2
ATOM      2  C   LIG    1        3.560   0.815   0.129  0.00  0.00    +0.540 C 
ATOM      3  O   LIG    1        4.189  -0.201  -0.098  0.00  0.00    -0.490 OA
BRANCH   2   8
ATOM      4  C   LIG    1        0.019   0.005   0.592  0.00  0.00    -0.260 A 
ATOM      5  C   LIG    1        0.026   1.381   0.762  0.00  0.00    +0.120 A 
ATOM      6  N   LIG    1        1.285   1.818   0.616  0.00  0.00    -0.510 N 
ATOM      7  H   LIG    1        1.570   2.743   0.685  0.00  0.00    +0.430 HD
ATOM      8  C   LIG    1        2.112   0.747   0.352  0.00  0.00    -0.050 A 
ATOM      9  C   LIG    1       -1.177   2.240   1.055  0.00  0.00    +0.160 C 
ATOM     10  C   LIG    1        1.354  -0.386   0.332  0.00  0.00    -0.010 A 
ATOM     11  C   LIG    1        1.844  -1.788   0.079  0.00  0.00    +0.140 C 
BRANCH   4  13
ATOM     12  C   LIG    1       -1.603  -1.413   2.003  0.00  0.00    +0.060 C 
ATOM     13  C   LIG    1       -1.149  -0.877   0.669  0.00  0.00    +0.440 C 
ATOM     14  O   LIG    1       -1.751  -1.177  -0.341  0.00  0.00    -0.450 OA
ENDBRANCH   4  13
ENDBRANCH   2   8
ENDBRANCH   1   2
BRANCH   1  15
ATOM     15  C   LIG    1        5.628   1.996  -0.053  0.00  0.00    +0.190 C 
ATOM     16  C   LIG    1        5.906   2.169  -1.548  0.00  0.00    +0.090 C 
BRANCH  15  17
ATOM     17  C   LIG    1        6.266   3.127   0.711  0.00  0.00    +0.530 C 
ATOM     18  N   LIG    1        7.595   3.125   0.934  0.00  0.00    -0.540 N 
ATOM     19  C   LIG    1        8.492   2.182   0.422  0.00  0.00    +0.130 A 
ATOM     20  C   LIG    1        8.247   1.086  -0.406  0.00  0.00    -0.030 A 
ATOM     21  C   LIG    1        9.285   0.272  -0.809  0.00  0.00    +0.050 A 
ATOM     22  C   LIG    1       10.578   0.539  -0.398  0.00  0.00    -0.010 A 
ATOM     23  C   LIG    1       10.829   1.626   0.418  0.00  0.00    +0.060 A 
ATOM     24  C   LIG    1        9.793   2.444   0.824  0.00  0.00    -0.130 A 
ATOM     25  C   LIG    1        9.786   3.676   1.700  0.00  0.00    +0.110 C 
ATOM     26  C   LIG    1        8.311   4.105   1.755  0.00  0.00    +0.240 C 
ATOM     27  C   LIG    1        7.799   4.066   3.196  0.00  0.00    +0.040 C 
ATOM     28  O   LIG    1        5.583   4.040   1.124  0.00  0.00    -0.490 OA
ENDBRANCH  15  17
ENDBRANCH   1  15
TORSDOF 5
