REMARK  Name = ZINCb70000001NVM.0
REMARK                            x       y       z     vdW  Elec       q    Type
REMARK                         _______ _______ _______ _____ _____    ______ ____
ROOT
ATOM      1  C   LIG    1       -1.571   3.257   0.685  0.00  0.00    +0.180 C 
ATOM      2  C   LIG    1       -0.784   2.045   1.249  0.00  0.00    +0.110 C 
ATOM      3  C   LIG    1       -0.019   1.526   0.010  0.00  0.00    -0.080 C 
ATOM      4  C   LIG    1       -0.805   2.056  -1.203  0.00  0.00    +0.280 C 
ATOM      5  C   LIG    1        1.409   2.075  -0.000  0.00  0.00    +0.070 C 
ATOM      6  C   LIG    1        0.002  -0.004   0.002  0.00  0.00    +0.080 C 
ATOM      7  N   LIG    1       -1.966   2.805  -0.674  0.00  0.00    -0.500 N 
ATOM      8  H   LIG    1       -2.773   2.201  -0.620  0.00  0.00    +0.440 HD
ATOM      9  H   LIG    1       -2.164   3.600  -1.262  0.00  0.00    +0.440 HD
ENDROOT
BRANCH   1  13
ATOM     10  C   LIG    1       -3.866   4.581   3.448  0.00  0.00    +0.310 C 
ATOM     11  N   LIG    1       -2.682   4.303   2.632  0.00  0.00    -0.700 N 
ATOM     12  H   LIG    1       -1.819   4.667   2.888  0.00  0.00    +0.410 HD
ATOM     13  C   LIG    1       -2.790   3.542   1.524  0.00  0.00    +0.500 C 
ATOM     14  O   LIG    1       -3.867   3.088   1.204  0.00  0.00    -0.520 OA
ENDBRANCH   1  13
TORSDOF 1
