REMARK  Name = ZINCqH0000005iB1.0
REMARK                            x       y       z     vdW  Elec       q    Type
REMARK                         _______ _______ _______ _____ _____    ______ ____
ROOT
ATOM      1  C   LIG    1        0.487   7.545   0.450  0.00  0.00    +0.000 A 
ATOM      2  N   LIG    1        0.787   6.269   0.627  0.00  0.00    -0.260 NA
ATOM      3  N   LIG    1        0.001   5.526  -0.074  0.00  0.00    -0.230 N 
ATOM      4  C   LIG    1       -0.869   6.298  -0.761  0.00  0.00    +0.020 A 
ATOM      5  C   LIG    1       -1.974   5.878  -1.695  0.00  0.00    +0.120 C 
ATOM      6  C   LIG    1       -2.930   7.064  -1.879  0.00  0.00    +0.030 C 
ATOM      7  C   LIG    1       -2.129   8.321  -2.228  0.00  0.00    +0.020 C 
ATOM      8  C   LIG    1       -1.329   8.777  -1.001  0.00  0.00    +0.130 C 
ATOM      9  C   LIG    1       -0.592   7.588  -0.449  0.00  0.00    -0.130 A 
ENDROOT
BRANCH   3  10
ATOM     10  C   LIG    1        0.046   4.126  -0.120  0.00  0.00    +0.120 A 
ATOM     11  C   LIG    1       -0.210   3.462  -1.312  0.00  0.00    +0.060 A 
ATOM     12  C   LIG    1       -0.165   2.082  -1.357  0.00  0.00    +0.020 A 
ATOM     13  C   LIG    1        0.136   1.361  -0.213  0.00  0.00    +0.110 A 
ATOM     14  C   LIG    1        0.387   2.022   0.978  0.00  0.00    +0.020 A 
ATOM     15  F   LIG    1        0.180   0.012  -0.258  0.00  0.00    -0.130 F 
ATOM     16  C   LIG    1        0.348   3.402   1.025  0.00  0.00    +0.080 A 
ENDBRANCH   3  10
BRANCH   1  19
ATOM     17  C   LIG    1        2.804   7.169   2.013  0.00  0.00    +0.300 C 
ATOM     18  N   LIG    1        2.241   8.513   1.855  0.00  0.00    -0.600 N 
ATOM     19  C   LIG    1        1.157   8.702   1.078  0.00  0.00    +0.610 C 
ATOM     20  O   LIG    1        0.730   9.825   0.893  0.00  0.00    -0.520 OA
BRANCH  18  21
ATOM     21  C   LIG    1        2.858   9.650   2.542  0.00  0.00    +0.400 C 
BRANCH  21  22
ATOM     22  C   LIG    1        2.227   9.820   3.900  0.00  0.00    -0.030 A 
ATOM     23  C   LIG    1        2.646   9.242   5.040  0.00  0.00    -0.050 A 
ATOM     24  C   LIG    1        1.770   9.672   6.063  0.00  0.00    -0.070 A 
ATOM     25  C   LIG    1        0.869  10.488   5.487  0.00  0.00    +0.170 A 
ATOM     26  O   LIG    1        1.153  10.578   4.178  0.00  0.00    -0.160 OA
ENDBRANCH  21  22
ENDBRANCH  18  21
ENDBRANCH   1  19
TORSDOF 4
