REMARK  Name = ZINCfA000000bjZb.1
REMARK                            x       y       z     vdW  Elec       q    Type
REMARK                         _______ _______ _______ _____ _____    ______ ____
ROOT
ATOM      1  N   LIG    1       -0.819   0.627  -2.275  0.00  0.00    -0.700 NA
ATOM      2  H   LIG    1       -1.552  -0.004  -2.346  0.00  0.00    +0.420 HD
ENDROOT
BRANCH   1   3
ATOM      3  C   LIG    1        0.223   0.587  -3.195  0.00  0.00    +0.450 C 
ATOM      4  C   LIG    1        1.269   1.498  -3.091  0.00  0.00    -0.030 C 
ATOM      5  C   LIG    1        2.302   1.444  -4.010  0.00  0.00    +0.220 C 
ATOM      6  C   LIG    1        2.248   0.484  -5.011  0.00  0.00    +0.010 C 
ATOM      7  C   LIG    1        1.177  -0.386  -5.057  0.00  0.00    +0.180 C 
ATOM      8  C   LIG    1        1.114  -1.431  -6.142  0.00  0.00    +0.180 C 
ATOM      9  N   LIG    1        0.208  -0.314  -4.165  0.00  0.00    -0.510 NA
ATOM     10  H   LIG    1       -0.533  -0.937  -4.220  0.00  0.00    +0.440 HD
ENDBRANCH   1   3
BRANCH   1  14
ATOM     11  C   LIG    1       -2.268   1.485   0.789  0.00  0.00    +0.030 C 
ATOM     12  C   LIG    1       -0.789   1.611   1.242  0.00  0.00    +0.050 C 
ATOM     13  C   LIG    1       -0.013   1.086   0.008  0.00  0.00    +0.030 C 
ATOM     14  C   LIG    1       -0.809   1.622  -1.200  0.00  0.00    +0.250 C 
ATOM     15  C   LIG    1       -2.243   1.875  -0.703  0.00  0.00    +0.080 C 
BRANCH  11  17
ATOM     16  C   LIG    1       -3.329   1.903   3.389  0.00  0.00    +0.150 C 
ATOM     17  S   LIG    1       -3.321   2.627   1.726  0.00  0.00    -0.240 S 
ENDBRANCH  11  17
ENDBRANCH   1  14
TORSDOF 3
