REMARK  Name = ZINCrH000004u7X3.0
REMARK                            x       y       z     vdW  Elec       q    Type
REMARK                         _______ _______ _______ _____ _____    ______ ____
ROOT
ATOM      1  O   LIG    1       -2.217  -0.100   0.023  0.00  0.00    -0.530 OA
ATOM      2  C   LIG    1       -1.156  -0.694   0.009  0.00  0.00    +0.560 C 
ATOM      3  N   LIG    1        0.002  -0.004   0.002  0.00  0.00    -0.710 N 
ATOM      4  H   LIG    1        0.849  -0.478  -0.009  0.00  0.00    +0.410 HD
ENDROOT
BRANCH   2   5
ATOM      5  C   LIG    1       -1.136  -2.172   0.001  0.00  0.00    -0.100 A 
ATOM      6  C   LIG    1        0.081  -2.856  -0.020  0.00  0.00    +0.050 A 
ATOM      7  C   LIG    1        0.092  -4.236  -0.023  0.00  0.00    +0.070 A 
ATOM      8  C   LIG    1       -1.098  -4.941  -0.015  0.00  0.00    -0.160 A 
ATOM      9  C   LIG    1       -2.307  -4.269   0.001  0.00  0.00    +0.070 A 
ATOM     10  C   LIG    1       -2.333  -2.889   0.009  0.00  0.00    +0.090 A 
BRANCH   8  11
ATOM     11  C   LIG    1       -1.078  -6.448  -0.024  0.00  0.00    +0.510 C 
ATOM     12  F   LIG    1       -2.207  -6.933   0.644  0.00  0.00    -0.170 F 
ATOM     13  F   LIG    1        0.077  -6.902   0.621  0.00  0.00    -0.170 F 
ATOM     14  F   LIG    1       -1.085  -6.907  -1.346  0.00  0.00    -0.170 F 
ENDBRANCH   8  11
ENDBRANCH   2   5
BRANCH   3  15
ATOM     15  C   LIG    1       -0.018   1.461   0.010  0.00  0.00    +0.300 C 
BRANCH  15  16
ATOM     16  C   LIG    1        1.396   1.982  -0.001  0.00  0.00    +0.510 C 
ATOM     17  N   LIG    1        1.624   3.311   0.004  0.00  0.00    -0.600 N 
ATOM     18  C   LIG    1        0.505   4.263   0.014  0.00  0.00    +0.270 C 
ATOM     19  C   LIG    1        0.675   5.243  -1.145  0.00  0.00    +0.010 C 
ATOM     20  C   LIG    1        2.056   5.898  -1.058  0.00  0.00    +0.040 C 
ATOM     21  C   LIG    1        3.139   4.824  -1.165  0.00  0.00    -0.070 C 
ATOM     22  C   LIG    1        4.520   5.477  -1.120  0.00  0.00    +0.070 C 
ATOM     23  C   LIG    1        4.772   6.240  -2.389  0.00  0.00    -0.050 C 
ATOM     24  C   LIG    1        4.096   6.075  -3.480  0.00  0.00    -0.050 C 
ATOM     25  C   LIG    1        2.958   5.107  -3.627  0.00  0.00    +0.060 C 
ATOM     26  C   LIG    1        2.991   4.077  -2.495  0.00  0.00    +0.010 C 
ATOM     27  C   LIG    1        2.997   3.835  -0.006  0.00  0.00    +0.290 C 
ATOM     28  O   LIG    1        2.328   1.207  -0.014  0.00  0.00    -0.540 OA
ENDBRANCH  15  16
ENDBRANCH   3  15
TORSDOF 4
