REMARK  Name = ZINCqH0000007bYn.0
REMARK                            x       y       z     vdW  Elec       q    Type
REMARK                         _______ _______ _______ _____ _____    ______ ____
ROOT
ATOM      1  C   LIG    1        0.002  -0.004   0.002  0.00  0.00    -0.060 A 
ATOM      2  C   LIG    1        1.317  -0.414  -0.013  0.00  0.00    +0.060 A 
ATOM      3  C   LIG    1        2.101   0.745  -0.014  0.00  0.00    +0.000 A 
ATOM      4  C   LIG    1        1.245   1.808  -0.000  0.00  0.00    +0.040 A 
ATOM      5  O   LIG    1       -0.016   1.345   0.009  0.00  0.00    -0.150 OA
ENDROOT
BRANCH   4   6
ATOM      6  C   LIG    1        1.640   3.231   0.003  0.00  0.00    +0.030 A 
ATOM      7  C   LIG    1        2.991   3.584  -0.002  0.00  0.00    +0.060 A 
ATOM      8  C   LIG    1        3.353   4.915  -0.005  0.00  0.00    +0.110 A 
ATOM      9  C   LIG    1        2.381   5.900   0.010  0.00  0.00    -0.040 A 
ATOM     10  C   LIG    1        1.040   5.557   0.021  0.00  0.00    +0.110 A 
ATOM     11  C   LIG    1        0.664   4.230   0.018  0.00  0.00    +0.050 A 
BRANCH   9  12
ATOM     12  N   LIG    1        2.777   7.326   0.014  0.00  0.00    +0.020 N 
ATOM     13  O   LIG    1        3.956   7.631   0.004  0.00  0.00    -0.150 OA
ATOM     14  O   LIG    1        1.924   8.195   0.027  0.00  0.00    -0.150 OA
ENDBRANCH   9  12
ENDBRANCH   4   6
BRANCH   1  17
ATOM     15  N   LIG    1       -2.410  -0.348   0.024  0.00  0.00    -0.710 N 
ATOM     16  H   LIG    1       -2.524   0.615   0.030  0.00  0.00    +0.410 HD
ATOM     17  C   LIG    1       -1.172  -0.880   0.009  0.00  0.00    +0.600 C 
ATOM     18  O   LIG    1       -1.030  -2.089   0.002  0.00  0.00    -0.510 OA
BRANCH  15  19
ATOM     19  C   LIG    1       -3.584  -1.224   0.031  0.00  0.00    +0.330 C 
BRANCH  19  23
ATOM     20  C   LIG    1       -7.136   1.152   0.079  0.00  0.00    +0.140 A 
ATOM     21  C   LIG    1       -6.570   0.772  -1.130  0.00  0.00    -0.020 A 
ATOM     22  C   LIG    1       -5.422   0.004  -1.142  0.00  0.00    +0.070 A 
ATOM     23  C   LIG    1       -4.837  -0.386   0.048  0.00  0.00    -0.150 A 
ATOM     24  C   LIG    1       -5.401  -0.013   1.254  0.00  0.00    +0.070 A 
ATOM     25  C   LIG    1       -6.546   0.760   1.272  0.00  0.00    -0.080 A 
BRANCH  20  27
ATOM     26  C   LIG    1       -8.792   2.262   1.374  0.00  0.00    +0.250 C 
ATOM     27  O   LIG    1       -8.265   1.907   0.094  0.00  0.00    -0.320 OA
ENDBRANCH  20  27
ENDBRANCH  19  23
ENDBRANCH  15  19
ENDBRANCH   1  17
TORSDOF 6
