REMARK  Name = ZINCrD00000hQ5lD.0
REMARK                            x       y       z     vdW  Elec       q    Type
REMARK                         _______ _______ _______ _____ _____    ______ ____
ROOT
ATOM      1  N   LIG    1       -2.430   1.033   0.051  0.00  0.00    -0.520 N 
ATOM      2  C   LIG    1       -2.488  -0.314   0.035  0.00  0.00    +0.550 C 
ATOM      3  C   LIG    1       -3.941  -0.704  -0.284  0.00  0.00    +0.070 C 
ATOM      4  S   LIG    1       -4.043  -0.713  -2.095  0.00  0.00    +0.000 S 
ATOM      5  C   LIG    1       -5.705  -0.232  -2.360  0.00  0.00    +0.230 C 
ATOM      6  C   LIG    1       -6.463   0.403  -1.455  0.00  0.00    -0.200 C 
ATOM      7  C   LIG    1       -6.060   0.753  -0.067  0.00  0.00    +0.230 C 
ATOM      8  C   LIG    1       -4.640   0.540   0.278  0.00  0.00    +0.010 C 
ATOM      9  O   LIG    1       -1.567  -1.077   0.236  0.00  0.00    -0.430 OA
ATOM     10  C   LIG    1       -3.644   1.633   0.051  0.00  0.00    +0.540 C 
ATOM     11  O   LIG    1       -3.876   2.813  -0.103  0.00  0.00    -0.410 OA
ENDROOT
BRANCH   1  16
ATOM     12  C   LIG    1        2.457   3.922   0.081  0.00  0.00    +0.110 C 
ATOM     13  C   LIG    1        1.159   3.155   0.077  0.00  0.00    -0.080 A 
ATOM     14  C   LIG    1        1.175   1.773   0.066  0.00  0.00    +0.050 A 
ATOM     15  C   LIG    1       -0.013   1.067   0.062  0.00  0.00    +0.030 A 
ATOM     16  C   LIG    1       -1.223   1.747   0.062  0.00  0.00    +0.120 A 
ATOM     17  C   LIG    1       -1.237   3.135   0.079  0.00  0.00    +0.040 A 
ATOM     18  C   LIG    1       -0.046   3.836   0.083  0.00  0.00    -0.020 A 
ATOM     19 CL   LIG    1       -0.061   5.572   0.095  0.00  0.00    -0.050 Cl
ENDBRANCH   1  16
BRANCH   7  20
ATOM     20  C   LIG    1       -6.384   2.207   0.162  0.00  0.00    -0.020 A 
ATOM     21  C   LIG    1       -6.916   2.727   1.282  0.00  0.00    -0.050 A 
ATOM     22  C   LIG    1       -7.049   4.118   1.065  0.00  0.00    -0.070 A 
ATOM     23  C   LIG    1       -6.597   4.363  -0.178  0.00  0.00    +0.180 A 
ATOM     24  O   LIG    1       -6.196   3.201  -0.721  0.00  0.00    -0.150 OA
ENDBRANCH   7  20
BRANCH   5  25
ATOM     25  N   LIG    1       -6.271  -0.526  -3.578  0.00  0.00    -0.830 N 
ATOM     26  H   LIG    1       -7.191  -0.274  -3.759  0.00  0.00    +0.410 HD
ATOM     27  H   LIG    1       -5.752  -0.985  -4.256  0.00  0.00    +0.410 HD
ENDBRANCH   5  25
BRANCH   6  28
ATOM     28  C   LIG    1       -7.783   0.780  -1.863  0.00  0.00    +0.260 C 
ATOM     29  N   LIG    1       -8.830   1.079  -2.187  0.00  0.00    -0.430 NA
ENDBRANCH   6  28
TORSDOF 4
