REMARK  Name = ZINCkj000005h8h9.0
REMARK                            x       y       z     vdW  Elec       q    Type
REMARK                         _______ _______ _______ _____ _____    ______ ____
ROOT
ATOM      1  C   LIG    1       -4.871   1.698   0.245  0.00  0.00    +0.170 C 
ATOM      2  C   LIG    1       -3.546   2.462   0.186  0.00  0.00    +0.210 C 
ATOM      3  N   LIG    1       -2.432   1.502   0.189  0.00  0.00    -0.480 N 
ATOM      4  C   LIG    1       -2.475   0.659   1.393  0.00  0.00    +0.190 C 
ATOM      5  C   LIG    1       -3.811  -0.087   1.440  0.00  0.00    +0.260 C 
ATOM      6  O   LIG    1       -4.881   0.861   1.405  0.00  0.00    -0.390 OA
ENDROOT
BRANCH   3   7
ATOM      7  C   LIG    1       -1.221   2.151   0.083  0.00  0.00    +0.380 A 
ATOM      8  N   LIG    1       -0.848   3.050   0.984  0.00  0.00    -0.550 NA
ATOM      9  C   LIG    1        0.310   3.684   0.890  0.00  0.00    +0.510 A 
ATOM     10  N   LIG    1        1.165   3.469  -0.082  0.00  0.00    -0.500 NA
ATOM     11  C   LIG    1        0.890   2.576  -1.044  0.00  0.00    +0.160 A 
ATOM     12  C   LIG    1        1.779   2.322  -2.098  0.00  0.00    +0.050 A 
ATOM     13  C   LIG    1        1.450   1.403  -3.050  0.00  0.00    +0.070 A 
ATOM     14  C   LIG    1        0.243   0.713  -2.993  0.00  0.00    +0.020 A 
ATOM     15  C   LIG    1       -0.645   0.935  -1.982  0.00  0.00    +0.070 A 
ATOM     16  C   LIG    1       -0.337   1.872  -0.989  0.00  0.00    -0.130 A 
ENDBRANCH   3   7
BRANCH   1  17
ATOM     17  C   LIG    1       -6.032   2.692   0.322  0.00  0.00    +0.290 C 
BRANCH  17  19
ATOM     18  C   LIG    1       -8.406   2.903   0.598  0.00  0.00    +0.320 C 
ATOM     19  N   LIG    1       -7.303   1.957   0.385  0.00  0.00    -0.380 N 
ATOM     20  C   LIG    1       -7.513   1.235  -0.877  0.00  0.00    +0.320 C 
ATOM     21  H   LIG    1       -7.273   1.298   1.148  0.00  0.00    +0.440 HD
ENDBRANCH  17  19
ENDBRANCH   1  17
TORSDOF 3
