REMARK  Name = ZINCpe000000ZtZ7.0
REMARK                            x       y       z     vdW  Elec       q    Type
REMARK                         _______ _______ _______ _____ _____    ______ ____
ROOT
ATOM      1  C   LIG    1        7.977   1.633   0.079  0.00  0.00    +0.070 C 
ATOM      2  C   LIG    1        7.591   2.177  -1.303  0.00  0.00    +0.310 C 
ATOM      3  N   LIG    1        6.473   2.880  -0.656  0.00  0.00    -0.640 N 
ATOM      4  C   LIG    1        5.754   3.993  -0.903  0.00  0.00    +0.570 C 
ATOM      5  O   LIG    1        6.000   4.670  -1.879  0.00  0.00    -0.520 OA
ATOM      6  C   LIG    1        6.489   1.839   0.381  0.00  0.00    +0.300 C 
ENDROOT
BRANCH   1  10
ATOM      7  O   LIG    1       10.557  -2.420   0.570  0.00  0.00    -0.550 OA
ATOM      8  C   LIG    1        9.630  -1.673   0.311  0.00  0.00    +0.530 A 
ATOM      9  C   LIG    1        9.621  -0.267   0.471  0.00  0.00    -0.160 A 
ATOM     10  C   LIG    1        8.416   0.191   0.075  0.00  0.00    +0.200 A 
ATOM     11  N   LIG    1        7.659  -0.873  -0.324  0.00  0.00    -0.490 N 
ATOM     12  H   LIG    1        6.747  -0.831  -0.653  0.00  0.00    +0.440 HD
ATOM     13  N   LIG    1        8.428  -2.036  -0.179  0.00  0.00    -0.520 N 
ATOM     14  H   LIG    1        8.144  -2.939  -0.390  0.00  0.00    +0.440 HD
ENDBRANCH   1  10
BRANCH   4  15
ATOM     15  C   LIG    1        4.645   4.397   0.034  0.00  0.00    +0.000 C 
ATOM     16  C   LIG    1        3.909   5.646  -0.505  0.00  0.00    +0.100 C 
ATOM     17  C   LIG    1        2.448   5.349  -0.104  0.00  0.00    +0.280 C 
ATOM     18  N   LIG    1        2.357   3.889   0.000  0.00  0.00    -0.550 N 
ATOM     19  C   LIG    1        3.576   3.328   0.081  0.00  0.00    +0.530 C 
ATOM     20  O   LIG    1        3.788   2.137   0.178  0.00  0.00    -0.500 OA
BRANCH  18  21
ATOM     21  C   LIG    1        1.155   3.171   0.008  0.00  0.00    +0.150 A 
ATOM     22  C   LIG    1        1.174   1.782  -0.016  0.00  0.00    +0.030 A 
ATOM     23  C   LIG    1       -0.013   1.076  -0.009  0.00  0.00    +0.020 A 
ATOM     24  C   LIG    1       -1.221   1.751   0.017  0.00  0.00    +0.080 A 
ATOM     25  C   LIG    1       -1.243   3.136   0.048  0.00  0.00    +0.020 A 
ATOM     26  F   LIG    1       -2.381   1.059   0.019  0.00  0.00    -0.140 F 
ATOM     27  C   LIG    1       -0.058   3.846   0.040  0.00  0.00    +0.010 A 
ENDBRANCH  18  21
ENDBRANCH   4  15
TORSDOF 3
