REMARK  Name = ZINCqH0000000tzO.0
REMARK                            x       y       z     vdW  Elec       q    Type
REMARK                         _______ _______ _______ _____ _____    ______ ____
ROOT
ATOM      1  S   LIG    1       -2.725   0.835   0.042  0.00  0.00    +2.690 S 
ATOM      2  O   LIG    1       -2.394  -0.498  -0.321  0.00  0.00    -0.950 OA
ATOM      3  O   LIG    1       -3.671   1.622  -0.669  0.00  0.00    -0.950 OA
ENDROOT
BRANCH   1   7
ATOM      4  C   LIG    1        1.156   3.168   0.013  0.00  0.00    +0.210 A 
ATOM      5  C   LIG    1        1.174   1.790   0.184  0.00  0.00    +0.000 A 
ATOM      6  C   LIG    1       -0.012   1.082   0.197  0.00  0.00    +0.140 A 
ATOM      7  C   LIG    1       -1.215   1.743   0.033  0.00  0.00    -0.700 A 
ATOM      8  C   LIG    1       -1.237   3.116  -0.133  0.00  0.00    +0.140 A 
ATOM      9  C   LIG    1       -0.055   3.830  -0.146  0.00  0.00    -0.030 A 
BRANCH   4  12
ATOM     10  C   LIG    1        4.788   4.057  -0.415  0.00  0.00    +0.110 C 
ATOM     11  C   LIG    1        3.472   3.329  -0.507  0.00  0.00    +0.510 C 
ATOM     12  N   LIG    1        2.356   3.889  -0.001  0.00  0.00    -0.680 N 
ATOM     13  H   LIG    1        2.384   4.791   0.355  0.00  0.00    +0.420 HD
ATOM     14  O   LIG    1        3.417   2.240  -1.038  0.00  0.00    -0.520 OA
ENDBRANCH   4  12
ENDBRANCH   1   7
BRANCH   1  15
ATOM     15  N   LIG    1       -3.252   0.775   1.611  0.00  0.00    -0.990 NA
ATOM     16  C   LIG    1       -4.134   1.825   2.128  0.00  0.00    +0.320 C 
BRANCH  15  17
ATOM     17  C   LIG    1       -2.837  -0.327   2.482  0.00  0.00    +0.350 C 
ATOM     18  C   LIG    1       -4.073  -1.087   2.966  0.00  0.00    +0.070 C 
BRANCH  17  19
ATOM     19  C   LIG    1       -2.090   0.224   3.668  0.00  0.00    +0.030 A 
ATOM     20  C   LIG    1       -1.000  -0.332   4.215  0.00  0.00    -0.040 A 
ATOM     21  C   LIG    1       -0.614   0.537   5.333  0.00  0.00    -0.130 A 
ATOM     22  C   LIG    1        0.412   0.512   6.276  0.00  0.00    +0.060 A 
ATOM     23  C   LIG    1        0.489   1.510   7.223  0.00  0.00    -0.010 A 
ATOM     24  C   LIG    1       -0.447   2.533   7.239  0.00  0.00    +0.050 A 
ATOM     25  C   LIG    1       -1.466   2.569   6.311  0.00  0.00    +0.020 A 
ATOM     26  C   LIG    1       -1.562   1.573   5.348  0.00  0.00    +0.050 A 
ATOM     27  O   LIG    1       -2.423   1.343   4.336  0.00  0.00    -0.180 OA
ENDBRANCH  17  19
ENDBRANCH  15  17
ENDBRANCH   1  15
TORSDOF 5
