REMARK  Name = ZINCrg00000SjSrP.0
REMARK                            x       y       z     vdW  Elec       q    Type
REMARK                         _______ _______ _______ _____ _____    ______ ____
ROOT
ATOM      1  N   LIG    1       -3.479   3.786   1.248  0.00  0.00    -0.500 NA
ATOM      2  C   LIG    1       -4.646   2.883   1.227  0.00  0.00    +0.210 C 
ATOM      3  C   LIG    1       -4.407   1.853   0.100  0.00  0.00    +0.050 C 
ATOM      4  C   LIG    1       -2.880   1.900  -0.092  0.00  0.00    +0.260 C 
ATOM      5  C   LIG    1       -2.500   1.500  -1.486  0.00  0.00    +0.010 A 
ATOM      6  C   LIG    1       -1.520   0.603  -1.754  0.00  0.00    -0.020 A 
ATOM      7  N   LIG    1       -1.444   0.491  -3.108  0.00  0.00    -0.450 N 
ATOM      8  C   LIG    1       -2.379   1.319  -3.629  0.00  0.00    +0.390 A 
ATOM      9  C   LIG    1       -0.523  -0.364  -3.860  0.00  0.00    +0.330 C 
ATOM     10  C   LIG    1       -0.704  -0.106  -0.707  0.00  0.00    +0.130 C 
ATOM     11  C   LIG    1       -0.800   0.663   0.617  0.00  0.00    +0.290 C 
ATOM     12  N   LIG    1       -3.005   1.917  -2.649  0.00  0.00    -0.470 NA
ATOM     13  N   LIG    1       -2.207   1.025   0.865  0.00  0.00    -0.590 N 
ATOM     14  C   LIG    1       -2.857   0.560   1.950  0.00  0.00    +0.600 C 
ATOM     15  O   LIG    1       -4.046   0.780   2.088  0.00  0.00    -0.500 OA
ATOM     16  C   LIG    1       -2.545   3.377   0.175  0.00  0.00    +0.200 C 
ENDROOT
BRANCH  14  17
ATOM     17  C   LIG    1       -2.134  -0.210   2.963  0.00  0.00    -0.260 A 
ATOM     18  C   LIG    1       -2.689  -1.135   3.803  0.00  0.00    +0.130 A 
ATOM     19  C   LIG    1       -1.780  -1.710   4.657  0.00  0.00    -0.020 A 
ATOM     20  C   LIG    1       -0.519  -1.272   4.523  0.00  0.00    -0.040 A 
ATOM     21  F   LIG    1        0.525  -1.706   5.262  0.00  0.00    -0.100 F 
ATOM     22  S   LIG    1       -0.409  -0.099   3.289  0.00  0.00    +0.240 S 
ENDBRANCH  14  17
BRANCH   1  24
ATOM     23  C   LIG    1       -4.952   5.534   2.129  0.00  0.00    +0.050 C 
ATOM     24  C   LIG    1       -3.894   5.185   1.079  0.00  0.00    +0.130 C 
BRANCH  24  25
ATOM     25  C   LIG    1       -2.700   6.088   1.251  0.00  0.00    +0.520 C 
ATOM     26  O   LIG    1       -1.610   5.612   1.491  0.00  0.00    -0.520 OA
ATOM     27  N   LIG    1       -2.842   7.423   1.139  0.00  0.00    -0.860 N 
ATOM     28  H   LIG    1       -2.073   8.004   1.249  0.00  0.00    +0.400 HD
ATOM     29  H   LIG    1       -3.714   7.803   0.947  0.00  0.00    +0.400 HD
ENDBRANCH  24  25
ENDBRANCH   1  24
TORSDOF 3
