REMARK  Name = ZINCrH000004rI6e.0
REMARK                            x       y       z     vdW  Elec       q    Type
REMARK                         _______ _______ _______ _____ _____    ______ ____
ROOT
ATOM      1  C   LIG    1        2.595  -8.534  -2.437  0.00  0.00    +0.010 A 
ATOM      2  C   LIG    1        3.206  -8.719  -3.677  0.00  0.00    +0.030 A 
ATOM      3  C   LIG    1        3.344  -7.654  -4.544  0.00  0.00    +0.030 A 
ATOM      4  C   LIG    1        2.873  -6.404  -4.191  0.00  0.00    -0.010 A 
ATOM      5  C   LIG    1        2.268  -6.208  -2.955  0.00  0.00    +0.140 A 
ATOM      6  C   LIG    1        2.125  -7.272  -2.078  0.00  0.00    +0.060 A 
ENDROOT
BRANCH   1  13
ATOM      7  C   LIG    1        2.555 -14.966   1.066  0.00  0.00    +0.150 C 
ATOM      8  C   LIG    1        2.335 -13.505   0.773  0.00  0.00    +0.180 A 
ATOM      9  C   LIG    1        1.720 -12.725   1.705  0.00  0.00    -0.040 A 
ATOM     10  C   LIG    1        1.503 -11.374   1.460  0.00  0.00    +0.210 A 
ATOM     11  C   LIG    1        1.927 -10.834   0.244  0.00  0.00    -0.010 A 
ATOM     12  N   LIG    1        1.883  -9.610  -0.307  0.00  0.00    -0.510 NA
ATOM     13  C   LIG    1        2.445  -9.676  -1.504  0.00  0.00    +0.300 A 
ATOM     14  N   LIG    1        2.854 -10.923  -1.750  0.00  0.00    -0.550 NA
ATOM     15  C   LIG    1        2.564 -11.681  -0.700  0.00  0.00    +0.230 A 
ATOM     16  N   LIG    1        2.749 -13.002  -0.402  0.00  0.00    -0.480 N 
ATOM     17  H   LIG    1        3.184 -13.583  -1.046  0.00  0.00    +0.420 HD
ENDBRANCH   1  13
BRANCH   5  18
ATOM     18  N   LIG    1        1.798  -4.939  -2.598  0.00  0.00    -0.660 N 
ATOM     19  H   LIG    1        1.509  -4.319  -3.285  0.00  0.00    +0.410 HD
ATOM     20  C   LIG    1        1.746  -4.580  -1.300  0.00  0.00    +0.460 C 
ATOM     21  O   LIG    1        2.209  -5.311  -0.450  0.00  0.00    -0.450 OA
BRANCH  20  22
ATOM     22  C   LIG    1        1.114  -3.270  -0.906  0.00  0.00    +0.130 C 
ATOM     23  C   LIG    1       -0.360  -3.154  -1.319  0.00  0.00    +0.050 C 
ATOM     24  C   LIG    1       -0.615  -3.804   0.049  0.00  0.00    +0.160 C 
ATOM     25  N   LIG    1        0.668  -3.233   0.499  0.00  0.00    -0.440 NA
BRANCH  25  26
ATOM     26  C   LIG    1        1.416  -4.199   1.315  0.00  0.00    +0.070 C 
ATOM     27  C   LIG    1        0.822  -5.596   1.124  0.00  0.00    +0.040 C 
ATOM     28  C   LIG    1        1.322  -3.802   2.790  0.00  0.00    +0.040 C 
ATOM     29  C   LIG    1        2.883  -4.205   0.881  0.00  0.00    +0.030 C 
ENDBRANCH  25  26
ENDBRANCH  20  22
ENDBRANCH   5  18
TORSDOF 4
