REMARK  Name = ZINCqH0000005iCo.0
REMARK                            x       y       z     vdW  Elec       q    Type
REMARK                         _______ _______ _______ _____ _____    ______ ____
ROOT
ATOM      1  C   LIG    1       -4.632   1.134   0.031  0.00  0.00    +0.110 A 
ATOM      2  N   LIG    1       -3.894   0.046   0.022  0.00  0.00    -0.280 NA
ATOM      3  N   LIG    1       -2.648   0.358   0.018  0.00  0.00    -0.240 NA
ATOM      4  C   LIG    1       -2.513   1.664   0.024  0.00  0.00    +0.250 A 
ATOM      5  N   LIG    1       -3.779   2.201   0.038  0.00  0.00    -0.300 N 
ENDROOT
BRANCH   4   6
ATOM      6  C   LIG    1       -1.240   2.415   0.021  0.00  0.00    -0.000 A 
ATOM      7  C   LIG    1       -1.250   3.811   0.034  0.00  0.00    +0.090 A 
ATOM      8  C   LIG    1       -0.057   4.507   0.025  0.00  0.00    -0.040 A 
ATOM      9  C   LIG    1        1.147   3.823   0.011  0.00  0.00    +0.070 A 
ATOM     10  C   LIG    1        1.164   2.440   0.004  0.00  0.00    +0.050 A 
ATOM     11 CL   LIG    1       -0.068   6.243   0.034  0.00  0.00    -0.050 Cl
ATOM     12  C   LIG    1       -0.021   1.732   0.012  0.00  0.00    -0.000 A 
ATOM     13 CL   LIG    1        0.002  -0.004   0.002  0.00  0.00    -0.020 Cl
ENDBRANCH   4   6
BRANCH   5  14
ATOM     14  N   LIG    1       -4.114   3.525   0.053  0.00  0.00    -0.580 N 
ATOM     15  H   LIG    1       -4.957   3.679   0.587  0.00  0.00    +0.380 HD
ATOM     16  H   LIG    1       -4.210   3.885  -0.885  0.00  0.00    +0.370 HD
ENDBRANCH   5  14
BRANCH   1  17
ATOM     17  S   LIG    1       -6.393   1.203   0.040  0.00  0.00    +0.080 S 
BRANCH  17  18
ATOM     18  C   LIG    1       -6.777  -0.566   0.032  0.00  0.00    +0.120 C 
BRANCH  18  21
ATOM     19  C   LIG    1       -7.907  -3.165   0.024  0.00  0.00    +0.300 C 
ATOM     20  N   LIG    1       -8.793  -1.999   0.034  0.00  0.00    -0.600 N 
ATOM     21  C   LIG    1       -8.271  -0.756   0.038  0.00  0.00    +0.530 C 
ATOM     22  O   LIG    1       -9.005   0.210   0.047  0.00  0.00    -0.520 OA
BRANCH  20  23
ATOM     23  C   LIG    1      -10.246  -2.183   0.040  0.00  0.00    +0.390 C 
BRANCH  23  24
ATOM     24  C   LIG    1      -10.752  -2.239  -1.379  0.00  0.00    -0.210 A 
ATOM     25  C   LIG    1      -10.872  -3.349  -2.109  0.00  0.00    +0.020 A 
ATOM     26  C   LIG    1      -11.360  -3.154  -3.389  0.00  0.00    +0.000 A 
ATOM     27  C   LIG    1      -11.636  -1.886  -3.699  0.00  0.00    -0.060 A 
ATOM     28  S   LIG    1      -11.279  -0.852  -2.322  0.00  0.00    +0.130 S 
ENDBRANCH  23  24
ENDBRANCH  20  23
ENDBRANCH  18  21
ENDBRANCH  17  18
ENDBRANCH   1  17
TORSDOF 7
