REMARK  Name = ZINCqH0000050A30.0
REMARK                            x       y       z     vdW  Elec       q    Type
REMARK                         _______ _______ _______ _____ _____    ______ ____
ROOT
ATOM      1  C   LIG    1        4.713   4.042  -0.020  0.00  0.00    +0.520 C 
ATOM      2  N   LIG    1        5.966   3.546  -0.034  0.00  0.00    -0.720 N 
ATOM      3  H   LIG    1        6.107   2.587  -0.040  0.00  0.00    +0.400 HD
ATOM      4  O   LIG    1        4.536   5.242  -0.012  0.00  0.00    -0.510 OA
ENDROOT
BRANCH   2   5
ATOM      5  C   LIG    1        7.114   4.456  -0.039  0.00  0.00    +0.290 C 
ATOM      6  C   LIG    1        7.448   4.864   1.397  0.00  0.00    +0.040 C 
BRANCH   5   7
ATOM      7  C   LIG    1        8.302   3.762  -0.654  0.00  0.00    -0.100 A 
ATOM      8  C   LIG    1        8.550   2.433  -0.365  0.00  0.00    +0.040 A 
ATOM      9  C   LIG    1        9.635   1.792  -0.930  0.00  0.00    +0.000 A 
ATOM     10  C   LIG    1       10.483   2.487  -1.782  0.00  0.00    +0.140 A 
ATOM     11  C   LIG    1       10.234   3.823  -2.067  0.00  0.00    +0.010 A 
ATOM     12  C   LIG    1        9.145   4.457  -1.502  0.00  0.00    +0.060 A 
BRANCH  10  13
ATOM     13  N   LIG    1       11.588   1.841  -2.354  0.00  0.00    -0.410 N 
ATOM     14  C   LIG    1       11.959   0.535  -2.161  0.00  0.00    +0.120 A 
ATOM     15  C   LIG    1       13.068   0.332  -2.897  0.00  0.00    +0.160 A 
ATOM     16  N   LIG    1       13.376   1.481  -3.518  0.00  0.00    -0.480 NA
ATOM     17  C   LIG    1       12.497   2.392  -3.200  0.00  0.00    +0.400 A 
ENDBRANCH  10  13
ENDBRANCH   5   7
ENDBRANCH   2   5
BRANCH   1  18
ATOM     18  C   LIG    1        3.531   3.107  -0.014  0.00  0.00    +0.220 C 
BRANCH  18  19
ATOM     19  O   LIG    1        2.321   3.867   0.001  0.00  0.00    -0.290 OA
BRANCH  19  25
ATOM     20  C   LIG    1       -2.559   3.864   0.046  0.00  0.00    +0.090 C 
ATOM     21  C   LIG    1       -1.242   3.132   0.030  0.00  0.00    -0.050 A 
ATOM     22  C   LIG    1       -1.220   1.750   0.017  0.00  0.00    -0.030 A 
ATOM     23  C   LIG    1       -0.013   1.076   0.008  0.00  0.00    +0.050 A 
ATOM     24  C   LIG    1        1.174   1.782   0.000  0.00  0.00    -0.080 A 
ATOM     25  C   LIG    1        1.155   3.169   0.008  0.00  0.00    +0.130 A 
ATOM     26  C   LIG    1       -0.057   3.844   0.022  0.00  0.00    -0.110 A 
ATOM     27  C   LIG    1       -0.082   5.350   0.031  0.00  0.00    +0.100 C 
ENDBRANCH  19  25
ENDBRANCH  18  19
ENDBRANCH   1  18
TORSDOF 6
