REMARK  Name = ZINCrH000004t5hN.0
REMARK                            x       y       z     vdW  Elec       q    Type
REMARK                         _______ _______ _______ _____ _____    ______ ____
ROOT
ATOM      1  N   LIG    1       -4.072   0.021   1.689  0.00  0.00    -0.710 N 
ATOM      2  H   LIG    1       -4.616  -0.299   0.953  0.00  0.00    +0.410 HD
ATOM      3  C   LIG    1       -2.937   0.703   1.441  0.00  0.00    +0.520 C 
ATOM      4  O   LIG    1       -2.256   1.103   2.362  0.00  0.00    -0.530 OA
ENDROOT
BRANCH   1   5
ATOM      5  C   LIG    1       -4.484  -0.238   3.071  0.00  0.00    +0.390 C 
BRANCH   5  11
ATOM      6  C   LIG    1       -3.111  -0.594   5.825  0.00  0.00    +0.330 C 
ATOM      7  N   LIG    1       -3.204  -1.617   4.781  0.00  0.00    -0.450 N 
ATOM      8  C   LIG    1       -2.706  -2.891   4.845  0.00  0.00    +0.130 A 
ATOM      9  C   LIG    1       -3.012  -3.488   3.677  0.00  0.00    +0.140 A 
ATOM     10  N   LIG    1       -3.683  -2.605   2.923  0.00  0.00    -0.480 NA
ATOM     11  C   LIG    1       -3.797  -1.481   3.576  0.00  0.00    +0.200 A 
ENDBRANCH   5  11
BRANCH   5  12
ATOM     12  C   LIG    1       -5.978  -0.433   3.121  0.00  0.00    -0.090 A 
ATOM     13  C   LIG    1       -6.616  -1.144   2.122  0.00  0.00    +0.040 A 
ATOM     14  C   LIG    1       -7.985  -1.326   2.170  0.00  0.00    +0.010 A 
ATOM     15  C   LIG    1       -8.717  -0.791   3.214  0.00  0.00    +0.010 A 
ATOM     16  C   LIG    1       -8.080  -0.076   4.210  0.00  0.00    +0.010 A 
ATOM     17  C   LIG    1       -6.710   0.103   4.164  0.00  0.00    +0.010 A 
ENDBRANCH   5  12
ENDBRANCH   1   5
BRANCH   3  18
ATOM     18  C   LIG    1       -2.513   0.969   0.019  0.00  0.00    +0.120 C 
BRANCH  18  19
ATOM     19  C   LIG    1       -1.220   1.744   0.017  0.00  0.00    -0.070 A 
ATOM     20  C   LIG    1       -1.240   3.126   0.031  0.00  0.00    +0.010 A 
ATOM     21  C   LIG    1       -0.052   3.828   0.020  0.00  0.00    +0.000 A 
ATOM     22  C   LIG    1        1.164   3.158   0.002  0.00  0.00    -0.070 A 
ATOM     23  C   LIG    1        2.421   3.986  -0.023  0.00  0.00    +0.070 C 
ATOM     24  C   LIG    1        3.626   3.147   0.397  0.00  0.00    +0.020 C 
ATOM     25  C   LIG    1        3.637   1.863  -0.442  0.00  0.00    +0.020 C 
ATOM     26  C   LIG    1        2.465   0.989  -0.001  0.00  0.00    +0.060 C 
ATOM     27  C   LIG    1        1.184   1.781   0.000  0.00  0.00    -0.070 A 
ATOM     28  C   LIG    1       -0.013   1.076   0.008  0.00  0.00    +0.020 A 
ENDBRANCH  18  19
ENDBRANCH   3  18
TORSDOF 5
