REMARK  Name = ZINCrH000004rhI0.0
REMARK                            x       y       z     vdW  Elec       q    Type
REMARK                         _______ _______ _______ _____ _____    ______ ____
ROOT
ATOM      1  C   LIG    1        2.489   0.257  -0.072  0.00  0.00    +0.280 C 
ENDROOT
BRANCH   1   5
ATOM      2  N   LIG    1        5.662   2.087  -0.703  0.00  0.00    -0.460 N 
ATOM      3  C   LIG    1        4.844   2.481  -1.871  0.00  0.00    +0.190 C 
ATOM      4  C   LIG    1        3.386   2.108  -1.546  0.00  0.00    +0.030 C 
ATOM      5  C   LIG    1        3.438   1.454  -0.146  0.00  0.00    -0.010 C 
ATOM      6  C   LIG    1        4.912   0.994  -0.029  0.00  0.00    +0.210 C 
BRANCH   2  14
ATOM      7  C   LIG    1        7.313   0.806   1.228  0.00  0.00    +0.100 C 
ATOM      8  C   LIG    1        7.768   1.023  -0.192  0.00  0.00    -0.100 A 
ATOM      9  C   LIG    1        9.017   0.590  -0.592  0.00  0.00    +0.050 A 
ATOM     10  C   LIG    1        9.438   0.793  -1.893  0.00  0.00    +0.000 A 
ATOM     11  C   LIG    1        8.607   1.426  -2.801  0.00  0.00    -0.010 A 
ATOM     12  C   LIG    1        7.353   1.856  -2.409  0.00  0.00    -0.020 A 
ATOM     13 CL   LIG    1        9.140   1.679  -4.434  0.00  0.00    -0.070 Cl
ATOM     14  C   LIG    1        6.929   1.653  -1.103  0.00  0.00    +0.120 A 
ENDBRANCH   2  14
ENDBRANCH   1   5
BRANCH   1  15
ATOM     15  N   LIG    1        1.102   0.728  -0.125  0.00  0.00    -0.710 N 
ATOM     16  H   LIG    1        0.915   1.677  -0.196  0.00  0.00    +0.410 HD
ATOM     17  C   LIG    1        0.087  -0.158  -0.074  0.00  0.00    +0.610 C 
ATOM     18  O   LIG    1        0.322  -1.348   0.015  0.00  0.00    -0.530 OA
BRANCH  17  19
ATOM     19  C   LIG    1       -1.307   0.316  -0.134  0.00  0.00    -0.070 A 
ATOM     20  C   LIG    1       -2.426  -0.458  -0.099  0.00  0.00    +0.050 A 
ATOM     21  O   LIG    1       -3.479   0.372  -0.177  0.00  0.00    -0.180 OA
ATOM     22  C   LIG    1       -3.017   1.628  -0.258  0.00  0.00    +0.450 A 
ATOM     23  N   LIG    1       -1.718   1.610  -0.228  0.00  0.00    -0.470 NA
BRANCH  20  24
ATOM     24  C   LIG    1       -2.475  -1.960   0.009  0.00  0.00    +0.290 C 
ATOM     25  C   LIG    1       -2.962  -2.384   1.417  0.00  0.00    +0.020 C 
ATOM     26  C   LIG    1       -3.542  -3.793   1.118  0.00  0.00    +0.020 C 
ATOM     27  C   LIG    1       -4.111  -3.617  -0.307  0.00  0.00    +0.200 C 
ATOM     28  O   LIG    1       -3.449  -2.494  -0.901  0.00  0.00    -0.370 OA
ENDBRANCH  20  24
ENDBRANCH  17  19
ENDBRANCH   1  15
TORSDOF 5
