REMARK  Name = ZINCrg00000SjSxR.0
REMARK                            x       y       z     vdW  Elec       q    Type
REMARK                         _______ _______ _______ _____ _____    ______ ____
ROOT
ATOM      1  N   LIG    1       -8.034  -2.679   1.432  0.00  0.00    -0.530 NA
ATOM      2  C   LIG    1       -7.650  -2.834   2.841  0.00  0.00    +0.190 C 
ATOM      3  C   LIG    1       -7.188  -1.481   3.393  0.00  0.00    +0.300 C 
ATOM      4  N   LIG    1       -6.133  -0.953   2.515  0.00  0.00    -0.600 N 
ATOM      5  C   LIG    1       -6.397  -0.891   1.069  0.00  0.00    +0.280 C 
ATOM      6  C   LIG    1       -4.957  -0.533   3.022  0.00  0.00    +0.600 C 
ATOM      7  O   LIG    1       -4.719  -0.678   4.205  0.00  0.00    -0.520 OA
ATOM      8  C   LIG    1       -6.887  -2.273   0.608  0.00  0.00    +0.180 C 
ENDROOT
BRANCH   6   9
ATOM      9  C   LIG    1       -3.961   0.100   2.143  0.00  0.00    -0.010 A 
ATOM     10  C   LIG    1       -2.939  -0.517   1.475  0.00  0.00    -0.160 A 
ATOM     11  C   LIG    1       -2.521  -1.961   1.423  0.00  0.00    +0.090 C 
ATOM     12  C   LIG    1       -1.098  -2.009   0.843  0.00  0.00    +0.150 C 
ATOM     13  O   LIG    1       -1.027  -1.201  -0.334  0.00  0.00    -0.370 OA
ATOM     14  C   LIG    1       -1.070   0.213  -0.098  0.00  0.00    +0.260 C 
ATOM     15  C   LIG    1       -1.206   0.957  -1.428  0.00  0.00    +0.070 C 
ATOM     16  C   LIG    1       -0.741  -3.454   0.490  0.00  0.00    +0.060 C 
ATOM     17  C   LIG    1       -2.269   0.497   0.772  0.00  0.00    +0.000 A 
ATOM     18  N   LIG    1       -2.871   1.618   1.028  0.00  0.00    -0.250 NA
ATOM     19  N   LIG    1       -3.867   1.431   1.825  0.00  0.00    -0.280 N 
ATOM     20  C   LIG    1       -4.763   2.481   2.317  0.00  0.00    +0.370 C 
ENDBRANCH   6   9
BRANCH   1  21
ATOM     21  C   LIG    1       -8.643  -3.912   0.914  0.00  0.00    +0.330 C 
BRANCH  21  25
ATOM     22  C   LIG    1       -9.307  -3.415  -4.024  0.00  0.00    +0.250 C 
ATOM     23  C   LIG    1       -9.510  -3.439  -2.531  0.00  0.00    +0.180 A 
ATOM     24  N   LIG    1       -8.620  -3.771  -1.627  0.00  0.00    -0.480 NA
ATOM     25  C   LIG    1       -9.243  -3.644  -0.442  0.00  0.00    +0.180 A 
ATOM     26  N   LIG    1      -10.460  -3.255  -0.681  0.00  0.00    -0.370 NA
ATOM     27  O   LIG    1      -10.632  -3.126  -1.875  0.00  0.00    +0.080 OA
ENDBRANCH  21  25
ENDBRANCH   1  21
TORSDOF 3
