REMARK  Name = ZINCAx0000000fR2.0
REMARK                            x       y       z     vdW  Elec       q    Type
REMARK                         _______ _______ _______ _____ _____    ______ ____
ROOT
ATOM      1  C   LIG    1       -0.140  11.550  -3.017  0.00  0.00    -0.030 C 
ATOM      2  C   LIG    1       -0.054  12.709  -4.013  0.00  0.00    +0.050 C 
ATOM      3  C   LIG    1        0.540  13.935  -3.312  0.00  0.00    +0.280 C 
ATOM      4  N   LIG    1        1.827  13.560  -2.713  0.00  0.00    -0.610 N 
ATOM      5  C   LIG    1        1.875  12.401  -1.810  0.00  0.00    +0.270 C 
ATOM      6  C   LIG    1        2.943  14.265  -2.985  0.00  0.00    +0.520 C 
ATOM      7  O   LIG    1        2.910  15.162  -3.800  0.00  0.00    -0.530 OA
ATOM      8  C   LIG    1        1.266  11.193  -2.527  0.00  0.00    +0.040 C 
ENDROOT
BRANCH   6   9
ATOM      9  C   LIG    1        4.232  13.938  -2.276  0.00  0.00    -0.010 C 
ATOM     10  C   LIG    1        4.228  14.580  -0.887  0.00  0.00    +0.040 C 
ATOM     11  C   LIG    1        5.525  14.216  -0.157  0.00  0.00    +0.280 C 
ATOM     12  N   LIG    1        6.665  14.605  -0.998  0.00  0.00    -0.610 N 
ATOM     13  C   LIG    1        6.722  14.116  -2.382  0.00  0.00    +0.280 C 
ATOM     14  C   LIG    1        7.642  15.395  -0.508  0.00  0.00    +0.570 C 
ATOM     15  O   LIG    1        8.526  15.793  -1.241  0.00  0.00    -0.530 OA
ATOM     16  C   LIG    1        5.412  14.480  -3.087  0.00  0.00    +0.040 C 
BRANCH  14  17
ATOM     17  C   LIG    1        7.637  15.776   0.920  0.00  0.00    -0.190 A 
ATOM     18  C   LIG    1        8.050  17.053   1.317  0.00  0.00    +0.120 A 
ATOM     19  C   LIG    1        8.021  17.362   2.666  0.00  0.00    -0.020 A 
ATOM     20  C   LIG    1        7.602  16.404   3.571  0.00  0.00    +0.280 A 
ATOM     21  N   LIG    1        7.223  15.206   3.168  0.00  0.00    -0.490 NA
ATOM     22  C   LIG    1        7.227  14.867   1.896  0.00  0.00    +0.290 A 
ENDBRANCH  14  17
ENDBRANCH   6   9
BRANCH   1  23
ATOM     23  C   LIG    1       -0.755  10.352  -3.693  0.00  0.00    +0.410 C 
ATOM     24  O   LIG    1       -0.044   9.499  -4.182  0.00  0.00    -0.440 OA
BRANCH  23  31
ATOM     25  C   LIG    1       -8.322   8.845  -4.890  0.00  0.00    +0.100 C 
ATOM     26  C   LIG    1       -6.852   9.198  -5.121  0.00  0.00    +0.190 C 
ATOM     27  O   LIG    1       -6.328   9.841  -3.953  0.00  0.00    -0.300 OA
ATOM     28  C   LIG    1       -4.978   9.973  -3.884  0.00  0.00    +0.110 A 
ATOM     29  C   LIG    1       -4.409  11.074  -3.261  0.00  0.00    +0.030 A 
ATOM     30  C   LIG    1       -3.038  11.200  -3.197  0.00  0.00    +0.090 A 
ATOM     31  C   LIG    1       -2.216  10.217  -3.761  0.00  0.00    -0.160 A 
ATOM     32  C   LIG    1       -2.791   9.104  -4.388  0.00  0.00    +0.080 A 
ATOM     33  C   LIG    1       -4.164   8.986  -4.448  0.00  0.00    +0.080 A 
ATOM     34  N   LIG    1       -4.760   7.880  -5.072  0.00  0.00    -0.660 N 
ATOM     35  H   LIG    1       -4.239   7.086  -5.269  0.00  0.00    +0.420 HD
ATOM     36  C   LIG    1       -6.070   7.939  -5.395  0.00  0.00    +0.490 C 
ATOM     37  O   LIG    1       -6.614   6.984  -5.909  0.00  0.00    -0.500 OA
ENDBRANCH  23  31
ENDBRANCH   1  23
TORSDOF 4
