REMARK  Name = ZINCvU00000009de.0
REMARK                            x       y       z     vdW  Elec       q    Type
REMARK                         _______ _______ _______ _____ _____    ______ ____
ROOT
ATOM      1  C   LIG    1        1.240   1.733  -0.001  0.00  0.00    +0.570 C 
ATOM      2  N   LIG    1       -0.011   0.966   0.007  0.00  0.00    -0.740 N 
ATOM      3  H   LIG    1        0.002  -0.004   0.002  0.00  0.00    +0.410 HD
ATOM      4  C   LIG    1       -1.216   1.660   0.017  0.00  0.00    +0.240 A 
ATOM      5  C   LIG    1       -2.354   1.140   0.613  0.00  0.00    -0.050 A 
ATOM      6  C   LIG    1       -3.525   1.875   0.606  0.00  0.00    +0.080 A 
ATOM      7  C   LIG    1       -3.567   3.127   0.012  0.00  0.00    -0.040 A 
ATOM      8  C   LIG    1       -2.441   3.658  -0.583  0.00  0.00    +0.110 A 
ATOM      9  C   LIG    1       -1.256   2.928  -0.585  0.00  0.00    -0.200 A 
ATOM     10  C   LIG    1       -0.027   3.446  -1.212  0.00  0.00    +0.580 C 
ATOM     11  O   LIG    1       -0.073   4.407  -1.955  0.00  0.00    -0.530 OA
ATOM     12  N   LIG    1        1.151   2.840  -0.953  0.00  0.00    -0.620 N 
ENDROOT
BRANCH   1  15
ATOM     13  N   LIG    1        2.133   3.617   3.034  0.00  0.00    -0.480 N 
ATOM     14  C   LIG    1        2.064   3.462   1.677  0.00  0.00    +0.250 A 
ATOM     15  C   LIG    1        1.498   2.281   1.379  0.00  0.00    -0.210 A 
ATOM     16  C   LIG    1        1.172   1.631   2.651  0.00  0.00    -0.080 A 
ATOM     17  C   LIG    1        0.589   0.409   2.994  0.00  0.00    +0.060 A 
ATOM     18  C   LIG    1        0.424   0.083   4.311  0.00  0.00    -0.020 A 
ATOM     19  C   LIG    1        0.838   0.953   5.310  0.00  0.00    +0.020 A 
ATOM     20  C   LIG    1        1.421   2.160   4.993  0.00  0.00    -0.010 A 
ATOM     21  C   LIG    1        1.599   2.513   3.660  0.00  0.00    +0.100 A 
BRANCH  13  22
ATOM     22  C   LIG    1        2.692   4.785   3.720  0.00  0.00    +0.320 C 
BRANCH  22  23
ATOM     23  C   LIG    1        4.155   4.516   4.076  0.00  0.00    +0.200 C 
BRANCH  23  25
ATOM     24  N   LIG    1        5.149   6.595   5.297  0.00  0.00    -0.420 NA
ATOM     25  C   LIG    1        4.716   5.689   4.765  0.00  0.00    +0.200 C 
ENDBRANCH  23  25
ENDBRANCH  22  23
ENDBRANCH  13  22
ENDBRANCH   1  15
BRANCH  12  26
ATOM     26  C   LIG    1        2.362   3.299  -1.637  0.00  0.00    +0.340 C 
BRANCH  26  27
ATOM     27  C   LIG    1        2.533   2.533  -2.923  0.00  0.00    -0.110 A 
ATOM     28  C   LIG    1        3.258   1.356  -2.935  0.00  0.00    +0.010 A 
ATOM     29  C   LIG    1        3.410   0.650  -4.114  0.00  0.00    +0.000 A 
ATOM     30  C   LIG    1        2.847   1.127  -5.283  0.00  0.00    +0.010 A 
ATOM     31  C   LIG    1        2.127   2.307  -5.272  0.00  0.00    +0.000 A 
ATOM     32  C   LIG    1        1.970   3.010  -4.092  0.00  0.00    +0.040 A 
ENDBRANCH  26  27
ENDBRANCH  12  26
TORSDOF 6
