REMARK  Name = ZINCAx00000007T3.0
REMARK                            x       y       z     vdW  Elec       q    Type
REMARK                         _______ _______ _______ _____ _____    ______ ____
ROOT
ATOM      1  N   LIG    1       -0.052   1.210  -0.579  0.00  0.00    -0.660 N 
ATOM      2  H   LIG    1       -0.005   0.247  -0.471  0.00  0.00    +0.410 HD
ATOM      3  C   LIG    1       -1.244   1.836  -0.528  0.00  0.00    +0.560 C 
ATOM      4  O   LIG    1       -1.314   3.029  -0.750  0.00  0.00    -0.500 OA
ENDROOT
BRANCH   3   5
ATOM      5  C   LIG    1       -2.467   1.072  -0.204  0.00  0.00    -0.150 A 
ATOM      6  C   LIG    1       -2.391  -0.299   0.045  0.00  0.00    +0.130 A 
ATOM      7  C   LIG    1       -3.534  -1.006   0.352  0.00  0.00    +0.020 A 
ATOM      8  C   LIG    1       -4.758  -0.360   0.404  0.00  0.00    +0.080 A 
ATOM      9  C   LIG    1       -4.841   1.000   0.152  0.00  0.00    -0.680 A 
ATOM     10 CL   LIG    1       -6.195  -1.258   0.784  0.00  0.00    -0.020 Cl
ATOM     11  C   LIG    1       -3.704   1.718  -0.151  0.00  0.00    +0.220 A 
BRANCH   9  12
ATOM     12  S   LIG    1       -6.402   1.813   0.220  0.00  0.00    +2.690 S 
ATOM     13  O   LIG    1       -7.312   0.997  -0.503  0.00  0.00    -0.930 OA
ATOM     14  O   LIG    1       -6.159   3.177  -0.098  0.00  0.00    -0.940 OA
BRANCH  12  15
ATOM     15  N   LIG    1       -6.902   1.784   1.799  0.00  0.00    -0.990 NA
ATOM     16  C   LIG    1       -7.846   0.761   2.267  0.00  0.00    +0.290 C 
ATOM     17  C   LIG    1       -7.237   0.054   3.487  0.00  0.00    +0.010 C 
ATOM     18  C   LIG    1       -6.870   1.099   4.543  0.00  0.00    +0.020 C 
ATOM     19  C   LIG    1       -5.824   2.059   3.971  0.00  0.00    -0.000 C 
ATOM     20  C   LIG    1       -6.413   2.785   2.757  0.00  0.00    +0.290 C 
ENDBRANCH  12  15
ENDBRANCH   9  12
ENDBRANCH   3   5
BRANCH   1  26
ATOM     21  C   LIG    1        2.313   1.554  -0.195  0.00  0.00    +0.160 A 
ATOM     22  C   LIG    1        3.468   2.288  -0.410  0.00  0.00    -0.060 A 
ATOM     23  C   LIG    1        3.433   3.410  -1.218  0.00  0.00    +0.160 A 
ATOM     24  C   LIG    1        2.248   3.802  -1.813  0.00  0.00    -0.700 A 
ATOM     25  C   LIG    1        1.093   3.071  -1.607  0.00  0.00    +0.180 A 
ATOM     26  C   LIG    1        1.119   1.948  -0.794  0.00  0.00    +0.100 A 
BRANCH  24  27
ATOM     27  S   LIG    1        2.212   5.233  -2.841  0.00  0.00    +2.690 S 
ATOM     28  O   LIG    1        3.309   6.042  -2.441  0.00  0.00    -0.950 OA
ATOM     29  O   LIG    1        0.867   5.692  -2.842  0.00  0.00    -0.940 OA
BRANCH  27  30
ATOM     30  N   LIG    1        2.537   4.734  -4.386  0.00  0.00    -1.000 NA
ATOM     31  C   LIG    1        3.917   4.689  -4.893  0.00  0.00    +0.280 C 
ATOM     32  C   LIG    1        4.155   3.302  -5.512  0.00  0.00    +0.220 C 
ATOM     33  O   LIG    1        3.121   3.029  -6.462  0.00  0.00    -0.370 OA
ATOM     34  C   LIG    1        1.810   2.966  -5.897  0.00  0.00    +0.220 C 
ATOM     35  C   LIG    1        1.452   4.330  -5.295  0.00  0.00    +0.270 C 
ENDBRANCH  27  30
ENDBRANCH  24  27
BRANCH  21  37
ATOM     36  C   LIG    1        3.605   0.107   1.181  0.00  0.00    +0.250 C 
ATOM     37  O   LIG    1        2.346   0.451   0.600  0.00  0.00    -0.310 OA
ENDBRANCH  21  37
ENDBRANCH   1  26
TORSDOF 7
