REMARK  Name = ZINCc70000000hqz.0
REMARK                            x       y       z     vdW  Elec       q    Type
REMARK                         _______ _______ _______ _____ _____    ______ ____
ROOT
ATOM      1  C   LIG    1       -2.449   1.117   0.020  0.00  0.00    +0.240 C 
ATOM      2  C   LIG    1       -2.857   0.758   1.464  0.00  0.00    +0.030 C 
ATOM      3  C   LIG    1       -4.219   1.452   1.680  0.00  0.00    +0.170 C 
ATOM      4  N   LIG    1       -4.774   1.622   0.313  0.00  0.00    -0.510 NA
ATOM      5  C   LIG    1       -3.599   1.998  -0.514  0.00  0.00    +0.170 C 
ENDROOT
BRANCH   1   8
ATOM      6  C   LIG    1        1.280   1.980   0.001  0.00  0.00    +0.090 C 
ATOM      7  C   LIG    1       -0.014   1.209   0.009  0.00  0.00    +0.510 C 
ATOM      8  N   LIG    1       -1.191   1.867   0.018  0.00  0.00    -0.730 N 
ATOM      9  H   LIG    1       -1.204   2.837   0.023  0.00  0.00    +0.400 HD
ATOM     10  O   LIG    1        0.002  -0.004   0.002  0.00  0.00    -0.540 OA
ENDBRANCH   1   8
BRANCH   4  11
ATOM     11  C   LIG    1       -5.796   2.677   0.287  0.00  0.00    +0.150 C 
BRANCH  11  12
ATOM     12  C   LIG    1       -7.040   2.201   1.038  0.00  0.00    +0.230 C 
ATOM     13  F   LIG    1       -8.013   3.206   1.014  0.00  0.00    -0.220 F 
ENDBRANCH  11  12
ENDBRANCH   4  11
TORSDOF 3
