REMARK  Name = ZINCrH000004nnTa.0
REMARK                            x       y       z     vdW  Elec       q    Type
REMARK                         _______ _______ _______ _____ _____    ______ ____
ROOT
ATOM      1  N   LIG    1        3.068   4.874  -3.572  0.00  0.00    -0.490 N 
ATOM      2  C   LIG    1        1.959   5.542  -2.876  0.00  0.00    +0.200 C 
ATOM      3  C   LIG    1        1.920   5.075  -1.419  0.00  0.00    +0.200 C 
ATOM      4  N   LIG    1        1.759   3.614  -1.380  0.00  0.00    -0.540 NA
ATOM      5  C   LIG    1        2.868   2.947  -2.076  0.00  0.00    +0.200 C 
ATOM      6  C   LIG    1        2.907   3.414  -3.533  0.00  0.00    +0.200 C 
ENDROOT
BRANCH   1  11
ATOM      7  C   LIG    1        4.277   5.276  -7.022  0.00  0.00    +0.150 A 
ATOM      8  C   LIG    1        3.397   6.239  -7.496  0.00  0.00    -0.100 A 
ATOM      9  C   LIG    1        2.412   6.745  -6.668  0.00  0.00    +0.080 A 
ATOM     10  C   LIG    1        2.301   6.294  -5.367  0.00  0.00    -0.080 A 
ATOM     11  C   LIG    1        3.180   5.330  -4.888  0.00  0.00    +0.150 A 
ATOM     12  C   LIG    1        4.173   4.826  -5.716  0.00  0.00    -0.040 A 
BRANCH   7  14
ATOM     13  C   LIG    1        5.297   5.295  -9.170  0.00  0.00    +0.250 C 
ATOM     14  O   LIG    1        5.244   4.780  -7.838  0.00  0.00    -0.320 OA
ENDBRANCH   7  14
ENDBRANCH   1  11
BRANCH   4  15
ATOM     15  C   LIG    1        1.641   3.135   0.004  0.00  0.00    +0.360 C 
BRANCH  15  16
ATOM     16  C   LIG    1        1.235   1.683  -0.001  0.00  0.00    +0.200 A 
ATOM     17  N   LIG    1        2.040   0.650  -0.014  0.00  0.00    -0.470 NA
ATOM     18  C   LIG    1        1.236  -0.437  -0.012  0.00  0.00    +0.210 A 
ATOM     19  N   LIG    1        0.002  -0.004   0.002  0.00  0.00    -0.370 NA
ATOM     20  O   LIG    1       -0.014   1.209   0.009  0.00  0.00    +0.100 OA
BRANCH  18  21
ATOM     21  C   LIG    1        1.672  -1.855  -0.025  0.00  0.00    -0.020 A 
ATOM     22  C   LIG    1        3.030  -2.169  -0.045  0.00  0.00    +0.090 A 
ATOM     23  C   LIG    1        3.431  -3.489  -0.051  0.00  0.00    +0.030 A 
ATOM     24  C   LIG    1        2.486  -4.501  -0.048  0.00  0.00    -0.020 A 
ATOM     25  C   LIG    1        1.136  -4.195  -0.033  0.00  0.00    +0.030 A 
ATOM     26 CL   LIG    1        2.997  -6.161  -0.062  0.00  0.00    -0.060 Cl
ATOM     27  C   LIG    1        0.726  -2.877  -0.021  0.00  0.00    +0.070 A 
ENDBRANCH  18  21
ENDBRANCH  15  16
ENDBRANCH   4  15
TORSDOF 5
