REMARK  Name = ZINCpe000000X6YQ.0
REMARK                            x       y       z     vdW  Elec       q    Type
REMARK                         _______ _______ _______ _____ _____    ______ ____
ROOT
ATOM      1  C   LIG    1       -2.534   5.245  -0.288  0.00  0.00    +0.320 C 
ENDROOT
BRANCH   1  11
ATOM      2  C   LIG    1       -3.255   1.553   2.229  0.00  0.00    +0.060 C 
ATOM      3  C   LIG    1       -3.486   1.677   0.722  0.00  0.00    +0.230 C 
ATOM      4  O   LIG    1       -2.396   1.072   0.021  0.00  0.00    -0.300 OA
ATOM      5  C   LIG    1       -1.219   1.752   0.017  0.00  0.00    +0.080 A 
ATOM      6  C   LIG    1       -0.013   1.076   0.008  0.00  0.00    +0.030 A 
ATOM      7  C   LIG    1        1.175   1.785   0.000  0.00  0.00    +0.030 A 
ATOM      8  C   LIG    1        1.161   3.167   0.008  0.00  0.00    +0.020 A 
ATOM      9  C   LIG    1       -0.041   3.851   0.022  0.00  0.00    +0.000 A 
ATOM     10  C   LIG    1       -1.233   3.147   0.029  0.00  0.00    +0.090 A 
ATOM     11  N   LIG    1       -2.463   3.820   0.041  0.00  0.00    -0.550 N 
ATOM     12  C   LIG    1       -3.583   3.134   0.347  0.00  0.00    +0.490 C 
ATOM     13  O   LIG    1       -4.662   3.688   0.330  0.00  0.00    -0.500 OA
ENDBRANCH   1  11
BRANCH   1  14
ATOM     14  C   LIG    1       -2.754   5.410  -1.794  0.00  0.00    +0.040 C 
BRANCH  14  15
ATOM     15  C   LIG    1       -2.828   6.877  -2.133  0.00  0.00    +0.530 C 
ATOM     16  N   LIG    1       -3.018   7.264  -3.410  0.00  0.00    -0.720 N 
ATOM     17  H   LIG    1       -3.108   6.599  -4.110  0.00  0.00    +0.410 HD
ATOM     18  O   LIG    1       -2.715   7.708  -1.257  0.00  0.00    -0.530 OA
BRANCH  16  19
ATOM     19  C   LIG    1       -3.089   8.690  -3.740  0.00  0.00    +0.190 C 
ATOM     20  C   LIG    1       -4.211   9.333  -2.923  0.00  0.00    +0.080 C 
ATOM     21  C   LIG    1       -4.786  10.530  -3.725  0.00  0.00    -0.290 C 
ATOM     22  S   LIG    1       -4.847   9.825  -5.422  0.00  0.00    +2.390 S 
ATOM     23  O   LIG    1       -5.962   8.952  -5.541  0.00  0.00    -0.920 OA
ATOM     24  O   LIG    1       -4.648  10.860  -6.375  0.00  0.00    -0.930 OA
ATOM     25  C   LIG    1       -1.762   9.352  -3.363  0.00  0.00    +0.050 C 
ATOM     26  C   LIG    1       -3.310   8.841  -5.252  0.00  0.00    -0.310 C 
ENDBRANCH  16  19
ENDBRANCH  14  15
ENDBRANCH   1  14
TORSDOF 4
