REMARK  Name = ZINCpk00000y6x13.0
REMARK                            x       y       z     vdW  Elec       q    Type
REMARK                         _______ _______ _______ _____ _____    ______ ____
ROOT
ATOM      1  C   LIG    1       -0.443  -5.140  -1.365  0.00  0.00    +0.620 C 
ATOM      2  N   LIG    1        0.308  -4.921  -2.462  0.00  0.00    -0.600 N 
ATOM      3  C   LIG    1        0.663  -3.599  -3.010  0.00  0.00    +0.250 C 
ATOM      4  C   LIG    1        1.967  -3.843  -3.815  0.00  0.00    +0.170 C 
ATOM      5  C   LIG    1        1.693  -5.242  -4.429  0.00  0.00    +0.080 C 
ATOM      6  C   LIG    1        0.903  -5.960  -3.315  0.00  0.00    +0.270 C 
ATOM      7  O   LIG    1       -0.678  -6.278  -1.006  0.00  0.00    -0.520 OA
ENDROOT
BRANCH   6   8
ATOM      8  C   LIG    1       -0.183  -6.809  -3.922  0.00  0.00    -0.050 A 
ATOM      9  C   LIG    1       -1.362  -6.224  -4.345  0.00  0.00    -0.020 A 
ATOM     10  C   LIG    1       -2.361  -7.000  -4.903  0.00  0.00    +0.040 A 
ATOM     11  C   LIG    1       -2.184  -8.363  -5.039  0.00  0.00    -0.080 A 
ATOM     12  C   LIG    1       -1.002  -8.953  -4.615  0.00  0.00    +0.130 A 
ATOM     13  C   LIG    1        0.001  -8.171  -4.062  0.00  0.00    +0.000 A 
BRANCH  12  14
ATOM     14  O   LIG    1       -0.825 -10.294  -4.747  0.00  0.00    -0.320 OA
ATOM     15  C   LIG    1       -1.898 -11.036  -5.331  0.00  0.00    +0.250 C 
ENDBRANCH  12  14
ENDBRANCH   6   8
BRANCH   1  19
ATOM     16  N   LIG    1       -1.413  -1.998   0.005  0.00  0.00    -0.280 N 
ATOM     17  C   LIG    1       -2.030  -2.784   0.914  0.00  0.00    +0.180 A 
ATOM     18  C   LIG    1       -1.780  -4.069   0.568  0.00  0.00    -0.020 A 
ATOM     19  C   LIG    1       -0.981  -3.999  -0.597  0.00  0.00    -0.010 A 
ATOM     20  N   LIG    1       -0.812  -2.720  -0.871  0.00  0.00    -0.260 NA
BRANCH  16  21
ATOM     21  C   LIG    1       -1.433  -0.534   0.013  0.00  0.00    +0.330 C 
BRANCH  21  22
ATOM     22  C   LIG    1        0.002  -0.004   0.002  0.00  0.00    +0.180 C 
BRANCH  22  24
ATOM     23  C   LIG    1        1.280   2.024   0.001  0.00  0.00    +0.220 C 
ATOM     24  O   LIG    1       -0.017   1.425   0.010  0.00  0.00    -0.390 OA
ENDBRANCH  22  24
ENDBRANCH  21  22
ENDBRANCH  16  21
ENDBRANCH   1  19
BRANCH   4  25
ATOM     25  O   LIG    1        3.107  -3.876  -2.954  0.00  0.00    -0.550 OA
ATOM     26  H   LIG    1        3.317  -3.025  -2.547  0.00  0.00    +0.380 HD
ENDBRANCH   4  25
TORSDOF 7
