REMARK  Name = ZINCrH000004jJnI.0
REMARK                            x       y       z     vdW  Elec       q    Type
REMARK                         _______ _______ _______ _____ _____    ______ ____
ROOT
ATOM      1  C   LIG    1       -4.819   4.016   0.214  0.00  0.00    +0.580 C 
ATOM      2  N   LIG    1       -4.758   5.352   0.054  0.00  0.00    -0.650 N 
ATOM      3  H   LIG    1       -3.897   5.796   0.004  0.00  0.00    +0.420 HD
ATOM      4  O   LIG    1       -5.894   3.471   0.373  0.00  0.00    -0.500 OA
ENDROOT
BRANCH   1   7
ATOM      5  C   LIG    1       -2.500   1.063   0.354  0.00  0.00    +0.160 A 
ATOM      6  C   LIG    1       -3.657   1.824   0.367  0.00  0.00    -0.010 A 
ATOM      7  C   LIG    1       -3.575   3.209   0.199  0.00  0.00    +0.120 A 
ATOM      8  N   LIG    1       -2.414   3.819   0.035  0.00  0.00    -0.450 NA
ATOM      9  C   LIG    1       -1.265   3.141   0.009  0.00  0.00    +0.130 A 
ATOM     10  C   LIG    1       -0.039   3.805  -0.182  0.00  0.00    +0.050 A 
ATOM     11  C   LIG    1        1.119   3.091  -0.205  0.00  0.00    +0.040 A 
ATOM     12  C   LIG    1        1.113   1.708  -0.044  0.00  0.00    +0.020 A 
ATOM     13  C   LIG    1       -0.054   1.031   0.143  0.00  0.00    +0.060 A 
ATOM     14  C   LIG    1       -1.267   1.733   0.168  0.00  0.00    -0.070 A 
BRANCH   5  16
ATOM     15  C   LIG    1       -3.144  -0.669   1.812  0.00  0.00    +0.210 C 
ATOM     16  N   LIG    1       -2.547  -0.314   0.518  0.00  0.00    -0.510 N 
ATOM     17  C   LIG    1       -3.272  -0.951  -0.590  0.00  0.00    +0.210 C 
ENDBRANCH   5  16
ENDBRANCH   1   7
BRANCH   2  18
ATOM     18  C   LIG    1       -5.936   6.099  -0.042  0.00  0.00    +0.180 A 
ATOM     19  C   LIG    1       -7.059   5.553  -0.650  0.00  0.00    +0.010 A 
ATOM     20  C   LIG    1       -8.225   6.288  -0.740  0.00  0.00    +0.070 A 
ATOM     21  C   LIG    1       -8.274   7.574  -0.236  0.00  0.00    -0.020 A 
ATOM     22  C   LIG    1       -7.153   8.128   0.369  0.00  0.00    +0.160 A 
ATOM     23  C   LIG    1       -5.983   7.390   0.466  0.00  0.00    -0.020 A 
BRANCH  22  24
ATOM     24  N   LIG    1       -7.205   9.433   0.880  0.00  0.00    -0.410 N 
ATOM     25  C   LIG    1       -8.286  10.276   0.856  0.00  0.00    +0.130 A 
ATOM     26  C   LIG    1       -7.901  11.421   1.451  0.00  0.00    +0.160 A 
ATOM     27  N   LIG    1       -6.621  11.286   1.830  0.00  0.00    -0.480 NA
ATOM     28  C   LIG    1       -6.195  10.098   1.499  0.00  0.00    +0.400 A 
ENDBRANCH  22  24
ENDBRANCH   2  18
TORSDOF 4
