REMARK  Name = ZINCrg000000qdbA.0
REMARK                            x       y       z     vdW  Elec       q    Type
REMARK                         _______ _______ _______ _____ _____    ______ ____
ROOT
ATOM      1  N   LIG    1       -5.916  -1.341   0.023  0.00  0.00    -0.470 N 
ATOM      2  C   LIG    1       -5.613  -2.780  -0.009  0.00  0.00    +0.220 C 
ATOM      3  C   LIG    1       -6.880  -3.552   0.361  0.00  0.00    +0.090 C 
ATOM      4  C   LIG    1       -8.038  -3.069  -0.473  0.00  0.00    -0.050 A 
ATOM      5  C   LIG    1       -9.174  -3.861  -0.548  0.00  0.00    -0.070 A 
ATOM      6  C   LIG    1      -10.261  -3.451  -1.295  0.00  0.00    +0.020 A 
ATOM      7  C   LIG    1      -10.217  -2.247  -1.972  0.00  0.00    +0.010 A 
ATOM      8  C   LIG    1       -9.085  -1.460  -1.900  0.00  0.00    +0.010 A 
ATOM      9  C   LIG    1       -7.992  -1.870  -1.152  0.00  0.00    -0.080 A 
ATOM     10  C   LIG    1       -6.778  -0.978  -1.107  0.00  0.00    +0.260 C 
ENDROOT
BRANCH   1  14
ATOM     11  C   LIG    1       -2.455   0.869   0.018  0.00  0.00    -0.220 A 
ATOM     12  C   LIG    1       -3.685   1.544   0.034  0.00  0.00    +0.160 A 
ATOM     13  C   LIG    1       -4.836   0.803   0.029  0.00  0.00    -0.040 A 
ATOM     14  C   LIG    1       -4.754  -0.588   0.021  0.00  0.00    +0.340 A 
ATOM     15  N   LIG    1       -3.578  -1.202   0.012  0.00  0.00    -0.520 NA
ATOM     16  C   LIG    1       -2.448  -0.527   0.011  0.00  0.00    +0.330 A 
BRANCH  11  19
ATOM     17  N   LIG    1       -0.011   0.966   0.007  0.00  0.00    -0.720 N 
ATOM     18  H   LIG    1        0.002  -0.004   0.002  0.00  0.00    +0.400 HD
ATOM     19  C   LIG    1       -1.187   1.624   0.017  0.00  0.00    +0.570 C 
ATOM     20  O   LIG    1       -1.204   2.840   0.023  0.00  0.00    -0.540 OA
BRANCH  17  21
ATOM     21  C   LIG    1        1.248   1.716  -0.001  0.00  0.00    +0.290 C 
BRANCH  21  22
ATOM     22  C   LIG    1        2.424   0.737  -0.017  0.00  0.00    +0.180 C 
BRANCH  22  24
ATOM     23  C   LIG    1        3.478  -0.946  -1.360  0.00  0.00    +0.200 C 
ATOM     24  O   LIG    1        2.414   0.001  -1.242  0.00  0.00    -0.390 OA
ENDBRANCH  22  24
ENDBRANCH  21  22
ENDBRANCH  17  21
ENDBRANCH  11  19
ENDBRANCH   1  14
BRANCH   5  25
ATOM     25  C   LIG    1       -9.223  -5.174   0.190  0.00  0.00    +0.100 C 
BRANCH  25  26
ATOM     26  C   LIG    1       -9.657  -4.935   1.613  0.00  0.00    +0.520 C 
ATOM     27  O   LIG    1       -9.902  -3.809   1.991  0.00  0.00    -0.530 OA
ATOM     28  N   LIG    1       -9.772  -5.972   2.466  0.00  0.00    -0.860 N 
ATOM     29  H   LIG    1      -10.051  -5.818   3.382  0.00  0.00    +0.400 HD
ATOM     30  H   LIG    1       -9.576  -6.872   2.163  0.00  0.00    +0.400 HD
ENDBRANCH  25  26
ENDBRANCH   5  25
TORSDOF 7
