REMARK  Name = ZINCpe00000VVGBT.0
REMARK                            x       y       z     vdW  Elec       q    Type
REMARK                         _______ _______ _______ _____ _____    ______ ____
ROOT
ATOM      1  C   LIG    1       -1.439  -1.333  -1.490  0.00  0.00    +0.150 C 
ATOM      2  C   LIG    1       -2.545  -2.392  -1.481  0.00  0.00    +0.170 C 
ATOM      3  N   LIG    1       -3.184  -2.437  -2.804  0.00  0.00    -0.520 NA
ATOM      4  C   LIG    1       -3.745  -1.125  -3.156  0.00  0.00    +0.160 C 
ATOM      5  C   LIG    1       -2.627  -0.079  -3.149  0.00  0.00    +0.230 C 
ATOM      6  O   LIG    1       -1.997  -0.071  -1.865  0.00  0.00    -0.370 OA
ENDROOT
BRANCH   1   7
ATOM      7  C   LIG    1       -0.824  -1.225  -0.093  0.00  0.00    +0.360 C 
BRANCH   7  11
ATOM      8  C   LIG    1        1.928   2.964   0.116  0.00  0.00    +0.190 C 
ATOM      9  C   LIG    1        1.492   1.529  -0.035  0.00  0.00    +0.220 A 
ATOM     10  N   LIG    1        0.267   1.090   0.089  0.00  0.00    -0.300 NA
ATOM     11  N   LIG    1        0.309  -0.296  -0.129  0.00  0.00    -0.370 N 
ATOM     12  C   LIG    1        1.594  -0.602  -0.377  0.00  0.00    +0.270 A 
ATOM     13  C   LIG    1        2.135  -1.977  -0.673  0.00  0.00    +0.190 C 
ATOM     14  N   LIG    1        2.293   0.502  -0.318  0.00  0.00    -0.540 NA
ENDBRANCH   7  11
ENDBRANCH   1   7
BRANCH   3  15
ATOM     15  C   LIG    1       -4.215  -3.482  -2.855  0.00  0.00    +0.220 C 
BRANCH  15  16
ATOM     16  C   LIG    1       -4.674  -3.666  -4.279  0.00  0.00    +0.510 C 
ATOM     17  N   LIG    1       -5.708  -4.485  -4.553  0.00  0.00    -0.620 N 
ATOM     18  C   LIG    1       -6.388  -5.196  -3.467  0.00  0.00    +0.280 C 
ATOM     19  O   LIG    1       -4.111  -3.078  -5.178  0.00  0.00    -0.510 OA
BRANCH  17  20
ATOM     20  C   LIG    1       -6.154  -4.665  -5.937  0.00  0.00    +0.410 C 
BRANCH  20  21
ATOM     21  C   LIG    1       -5.405  -5.814  -6.561  0.00  0.00    -0.030 A 
ATOM     22  C   LIG    1       -5.788  -7.104  -6.543  0.00  0.00    -0.050 A 
ATOM     23  C   LIG    1       -4.800  -7.834  -7.243  0.00  0.00    -0.070 A 
ATOM     24  C   LIG    1       -3.869  -6.948  -7.639  0.00  0.00    +0.170 A 
ATOM     25  O   LIG    1       -4.241  -5.726  -7.224  0.00  0.00    -0.160 OA
ENDBRANCH  20  21
ENDBRANCH  17  20
ENDBRANCH  15  16
ENDBRANCH   3  15
TORSDOF 6
