REMARK  Name = ZINCvU0000000DHA.0
REMARK                            x       y       z     vdW  Elec       q    Type
REMARK                         _______ _______ _______ _____ _____    ______ ____
ROOT
ATOM      1  C   LIG    1       -5.057   4.103   0.268  0.00  0.00    +0.150 C 
ATOM      2  N   LIG    1       -3.835   3.709   0.154  0.00  0.00    -0.220 NA
ATOM      3  N   LIG    1       -3.683   2.324   0.134  0.00  0.00    -0.460 N 
ATOM      4  C   LIG    1       -5.010   1.698   0.248  0.00  0.00    +0.260 C 
ATOM      5  C   LIG    1       -2.513   1.666   0.023  0.00  0.00    +0.590 C 
ATOM      6  O   LIG    1       -2.504   0.454  -0.082  0.00  0.00    -0.490 OA
ATOM      7  C   LIG    1       -5.970   2.901   0.347  0.00  0.00    +0.090 C 
ENDROOT
BRANCH   4   8
ATOM      8  C   LIG    1       -5.093   0.853   1.493  0.00  0.00    -0.060 A 
ATOM      9  C   LIG    1       -4.488   1.282   2.660  0.00  0.00    +0.010 A 
ATOM     10  C   LIG    1       -4.568   0.510   3.805  0.00  0.00    +0.040 A 
ATOM     11  C   LIG    1       -5.242  -0.696   3.780  0.00  0.00    -0.010 A 
ATOM     12  C   LIG    1       -5.843  -1.129   2.610  0.00  0.00    +0.100 A 
ATOM     13  F   LIG    1       -6.502  -2.308   2.584  0.00  0.00    -0.140 F 
ATOM     14  C   LIG    1       -5.768  -0.352   1.466  0.00  0.00    +0.010 A 
ENDBRANCH   4   8
BRANCH   5  15
ATOM     15  C   LIG    1       -1.240   2.415   0.030  0.00  0.00    -0.140 A 
ATOM     16  C   LIG    1       -1.248   3.811   0.025  0.00  0.00    +0.130 A 
ATOM     17  C   LIG    1       -0.056   4.505   0.026  0.00  0.00    -0.010 A 
ATOM     18  C   LIG    1        1.147   3.821   0.039  0.00  0.00    +0.050 A 
ATOM     19  C   LIG    1        1.164   2.438   0.050  0.00  0.00    +0.010 A 
ATOM     20  C   LIG    1       -0.021   1.730   0.049  0.00  0.00    +0.020 A 
ATOM     21 CL   LIG    1        0.001  -0.006   0.063  0.00  0.00    -0.040 Cl
ENDBRANCH   5  15
BRANCH   1  26
ATOM     22  C   LIG    1       -7.258   7.139   0.481  0.00  0.00    +0.090 A 
ATOM     23  C   LIG    1       -6.319   8.159   0.399  0.00  0.00    -0.010 A 
ATOM     24  C   LIG    1       -4.975   7.863   0.275  0.00  0.00    -0.030 A 
ATOM     25  C   LIG    1       -4.554   6.544   0.236  0.00  0.00    +0.130 A 
ATOM     26  C   LIG    1       -5.496   5.509   0.313  0.00  0.00    -0.030 A 
ATOM     27  C   LIG    1       -6.852   5.817   0.439  0.00  0.00    +0.070 A 
BRANCH  22  29
ATOM     28  C   LIG    1       -8.927   8.825   0.642  0.00  0.00    +0.250 C 
ATOM     29  O   LIG    1       -8.578   7.440   0.604  0.00  0.00    -0.310 OA
ENDBRANCH  22  29
BRANCH  25  30
ATOM     30  O   LIG    1       -3.232   6.255   0.119  0.00  0.00    -0.290 OA
ATOM     31  C   LIG    1       -2.329   7.360   0.046  0.00  0.00    +0.240 C 
ENDBRANCH  25  30
ENDBRANCH   1  26
TORSDOF 5
