REMARK  Name = ZINCrD00000F5LiA.0
REMARK                            x       y       z     vdW  Elec       q    Type
REMARK                         _______ _______ _______ _____ _____    ______ ____
ROOT
ATOM      1  C   LIG    1        0.011   1.072   2.506  0.00  0.00    +0.350 C 
ENDROOT
BRANCH   1   2
ATOM      2  C   LIG    1        0.032  -0.434   2.498  0.00  0.00    -0.020 A 
ATOM      3  C   LIG    1        1.124  -1.230   2.572  0.00  0.00    +0.150 A 
ATOM      4  N   LIG    1        0.667  -2.503   2.534  0.00  0.00    -0.280 N 
ATOM      5  N   LIG    1       -0.616  -2.468   2.434  0.00  0.00    -0.070 NA
ATOM      6  N   LIG    1       -1.026  -1.249   2.410  0.00  0.00    -0.240 NA
BRANCH   4   7
ATOM      7  C   LIG    1        1.491  -3.713   2.590  0.00  0.00    +0.340 C 
BRANCH   7   8
ATOM      8  C   LIG    1        1.004  -4.609   3.731  0.00  0.00    +0.220 C 
BRANCH   8   9
ATOM      9  C   LIG    1        1.782  -5.926   3.712  0.00  0.00    +0.430 C 
ATOM     10  F   LIG    1        1.572  -6.574   2.489  0.00  0.00    -0.170 F 
ATOM     11  F   LIG    1        1.337  -6.745   4.755  0.00  0.00    -0.160 F 
ATOM     12  F   LIG    1        3.147  -5.665   3.873  0.00  0.00    -0.180 F 
ENDBRANCH   8   9
BRANCH   8  13
ATOM     13  O   LIG    1        1.218  -3.948   4.980  0.00  0.00    -0.520 OA
ATOM     14  H   LIG    1        2.145  -3.735   5.159  0.00  0.00    +0.390 HD
ENDBRANCH   8  13
ENDBRANCH   7   8
ENDBRANCH   4   7
ENDBRANCH   1   2
BRANCH   1  16
ATOM     15  C   LIG    1        1.656   2.803   2.993  0.00  0.00    +0.610 C 
ATOM     16  N   LIG    1        1.386   1.579   2.496  0.00  0.00    -0.710 N 
ATOM     17  H   LIG    1        2.101   1.035   2.131  0.00  0.00    +0.400 HD
ATOM     18  O   LIG    1        0.759   3.486   3.451  0.00  0.00    -0.500 OA
BRANCH  15  23
ATOM     19  C   LIG    1        6.604   3.055   2.260  0.00  0.00    +0.200 C 
ATOM     20  C   LIG    1        5.200   3.427   2.664  0.00  0.00    +0.070 A 
ATOM     21  C   LIG    1        4.830   4.590   3.244  0.00  0.00    -0.200 A 
ATOM     22  C   LIG    1        3.443   4.525   3.452  0.00  0.00    +0.090 A 
ATOM     23  C   LIG    1        3.032   3.310   2.983  0.00  0.00    -0.080 A 
ATOM     24 BR   LIG    1        5.966   6.034   3.692  0.00  0.00    +0.000 Br
ATOM     25  O   LIG    1        4.115   2.656   2.513  0.00  0.00    -0.150 OA
ENDBRANCH  15  23
ENDBRANCH   1  16
BRANCH   1  26
ATOM     26  C   LIG    1       -0.729   1.579   1.267  0.00  0.00    -0.070 C 
ATOM     27  C   LIG    1       -2.164   1.050   1.278  0.00  0.00    +0.050 C 
ATOM     28  C   LIG    1       -0.750   3.109   1.275  0.00  0.00    +0.030 C 
ATOM     29  C   LIG    1       -0.013   1.086   0.008  0.00  0.00    +0.020 C 
ENDBRANCH   1  26
TORSDOF 8
