REMARK  Name = ZINCpe000000OV1I.0
REMARK                            x       y       z     vdW  Elec       q    Type
REMARK                         _______ _______ _______ _____ _____    ______ ____
ROOT
ATOM      1  N   LIG    1       -1.218   2.409   0.021  0.00  0.00    -0.500 N 
ATOM      2  C   LIG    1       -1.253   3.758   0.034  0.00  0.00    +0.540 A 
ATOM      3  C   LIG    1       -0.045   4.465   0.026  0.00  0.00    -0.180 A 
ATOM      4  C   LIG    1        1.143   3.755   0.011  0.00  0.00    +0.390 A 
ATOM      5  N   LIG    1        1.118   2.419   0.004  0.00  0.00    -0.600 NA
ATOM      6  O   LIG    1       -2.320   4.351   0.048  0.00  0.00    -0.510 OA
ATOM      7  C   LIG    1       -0.022   1.758   0.012  0.00  0.00    +0.390 A 
ENDROOT
BRANCH   4   8
ATOM      8  O   LIG    1        2.326   4.411   0.004  0.00  0.00    -0.440 OA
ATOM      9  H   LIG    1        3.099   3.830  -0.006  0.00  0.00    +0.410 HD
ENDBRANCH   4   8
BRANCH   1  10
ATOM     10  C   LIG    1       -2.467   1.644   0.023  0.00  0.00    +0.320 C 
BRANCH  10  11
ATOM     11  C   LIG    1       -2.896   1.370   1.466  0.00  0.00    +0.180 C 
BRANCH  11  13
ATOM     12  C   LIG    1       -3.621   2.461   3.473  0.00  0.00    +0.200 C 
ATOM     13  O   LIG    1       -3.208   2.605   2.113  0.00  0.00    -0.370 OA
ENDBRANCH  11  13
ENDBRANCH  10  11
ENDBRANCH   1  10
BRANCH   7  14
ATOM     14  S   LIG    1        0.002  -0.004   0.002  0.00  0.00    +0.030 S 
BRANCH  14  15
ATOM     15  C   LIG    1        1.789  -0.294  -0.017  0.00  0.00    +0.130 C 
BRANCH  15  16
ATOM     16  C   LIG    1        2.061  -1.800  -0.027  0.00  0.00    +0.220 C 
ATOM     17  O   LIG    1        1.556  -2.409   1.197  0.00  0.00    -0.340 OA
ATOM     18  C   LIG    1        2.424  -3.343   1.629  0.00  0.00    +0.490 C 
ATOM     19  C   LIG    1        3.817  -2.876   1.241  0.00  0.00    +0.060 C 
ATOM     20  O   LIG    1        2.147  -4.363   2.215  0.00  0.00    -0.430 OA
ATOM     21  C   LIG    1        3.574  -2.063  -0.043  0.00  0.00    -0.080 C 
ATOM     22  C   LIG    1        4.349  -0.751   0.003  0.00  0.00    +0.030 C 
ATOM     23  C   LIG    1        5.851  -1.050  -0.056  0.00  0.00    +0.210 C 
ATOM     24  O   LIG    1        6.135  -1.813  -1.230  0.00  0.00    -0.380 OA
ATOM     25  C   LIG    1        5.484  -3.085  -1.275  0.00  0.00    +0.220 C 
ATOM     26  C   LIG    1        3.965  -2.877  -1.271  0.00  0.00    +0.020 C 
ENDBRANCH  15  16
ENDBRANCH  14  15
ENDBRANCH   7  14
TORSDOF 7
