REMARK  Name = ZINCvU00000006oF.1
REMARK                            x       y       z     vdW  Elec       q    Type
REMARK                         _______ _______ _______ _____ _____    ______ ____
ROOT
ATOM      1  C   LIG    1       -1.295   2.897  -0.166  0.00  0.00    +0.220 A 
ATOM      2  C   LIG    1       -1.393   1.527  -0.354  0.00  0.00    -0.070 A 
ATOM      3  C   LIG    1       -0.261   0.784  -0.628  0.00  0.00    +0.100 A 
ATOM      4  C   LIG    1        0.974   1.412  -0.725  0.00  0.00    +0.100 A 
ATOM      5  C   LIG    1        1.070   2.785  -0.543  0.00  0.00    +0.190 A 
ATOM      6  C   LIG    1       -0.062   3.525  -0.264  0.00  0.00    -0.690 A 
ENDROOT
BRANCH   4   7
ATOM      7  N   LIG    1        2.122   0.660  -1.008  0.00  0.00    -0.680 N 
ATOM      8  H   LIG    1        2.212  -0.239  -0.655  0.00  0.00    +0.410 HD
ATOM      9  C   LIG    1        3.102   1.187  -1.769  0.00  0.00    +0.710 C 
ATOM     10  N   LIG    1        4.161   0.431  -2.120  0.00  0.00    -0.670 N 
ATOM     11  H   LIG    1        4.188  -0.508  -1.880  0.00  0.00    +0.410 HD
ATOM     12  O   LIG    1        3.030   2.343  -2.139  0.00  0.00    -0.550 OA
BRANCH  10  13
ATOM     13  C   LIG    1        5.225   1.004  -2.832  0.00  0.00    +0.120 A 
ATOM     14  C   LIG    1        5.006   2.117  -3.631  0.00  0.00    +0.100 A 
ATOM     15  C   LIG    1        6.057   2.683  -4.328  0.00  0.00    +0.010 A 
ATOM     16  C   LIG    1        7.325   2.135  -4.239  0.00  0.00    +0.110 A 
ATOM     17  C   LIG    1        7.545   1.020  -3.447  0.00  0.00    -0.020 A 
ATOM     18  F   LIG    1        8.349   2.688  -4.926  0.00  0.00    -0.130 F 
ATOM     19  C   LIG    1        6.499   0.453  -2.743  0.00  0.00    +0.100 A 
ATOM     20  F   LIG    1        6.713  -0.634  -1.971  0.00  0.00    -0.130 F 
ENDBRANCH  10  13
ENDBRANCH   4   7
BRANCH   6  21
ATOM     21  S   LIG    1        0.060   5.268  -0.032  0.00  0.00    +2.700 S 
ATOM     22  O   LIG    1        1.424   5.606  -0.242  0.00  0.00    -0.940 OA
ATOM     23  O   LIG    1       -0.637   5.562   1.170  0.00  0.00    -0.940 OA
BRANCH  21  24
ATOM     24  N   LIG    1       -0.793   5.986  -1.256  0.00  0.00    -1.050 N 
ATOM     25  H   LIG    1       -1.557   6.548  -1.050  0.00  0.00    +0.430 HD
BRANCH  24  26
ATOM     26  C   LIG    1       -0.414   5.783  -2.586  0.00  0.00    +0.150 A 
ATOM     27  C   LIG    1        0.921   5.893  -2.953  0.00  0.00    +0.030 A 
ATOM     28  C   LIG    1        1.294   5.687  -4.266  0.00  0.00    +0.060 A 
ATOM     29  C   LIG    1        0.338   5.380  -5.218  0.00  0.00    -0.040 A 
ATOM     30  C   LIG    1       -0.993   5.276  -4.857  0.00  0.00    +0.040 A 
ATOM     31 CL   LIG    1        0.810   5.128  -6.870  0.00  0.00    -0.070 Cl
ATOM     32  C   LIG    1       -1.371   5.476  -3.543  0.00  0.00    +0.020 A 
ENDBRANCH  24  26
ENDBRANCH  21  24
ENDBRANCH   6  21
BRANCH   1  34
ATOM     33  C   LIG    1       -3.627   2.904   0.303  0.00  0.00    +0.250 C 
ATOM     34  O   LIG    1       -2.409   3.627   0.108  0.00  0.00    -0.310 OA
ENDBRANCH   1  34
TORSDOF 6
