REMARK  Name = ZINCpe00000bk7zv.0
REMARK                            x       y       z     vdW  Elec       q    Type
REMARK                         _______ _______ _______ _____ _____    ______ ____
ROOT
ATOM      1  N   LIG    1       -3.161   4.752   0.942  0.00  0.00    -0.720 N 
ATOM      2  H   LIG    1       -3.393   4.597   1.871  0.00  0.00    +0.400 HD
ATOM      3  C   LIG    1       -3.105   6.010   0.462  0.00  0.00    +0.600 C 
ATOM      4  O   LIG    1       -2.814   6.204  -0.703  0.00  0.00    -0.510 OA
ENDROOT
BRANCH   3   5
ATOM      5  C   LIG    1       -3.396   7.149   1.347  0.00  0.00    -0.030 A 
ATOM      6  C   LIG    1       -3.383   8.477   1.013  0.00  0.00    -0.160 A 
ATOM      7  C   LIG    1       -3.087   9.164  -0.291  0.00  0.00    +0.330 C 
ATOM      8  O   LIG    1       -3.552  10.518  -0.185  0.00  0.00    -0.380 OA
ATOM      9  C   LIG    1       -3.095  11.214   0.977  0.00  0.00    +0.230 C 
ATOM     10  C   LIG    1       -3.808  10.677   2.227  0.00  0.00    +0.120 C 
ATOM     11  C   LIG    1       -3.722   9.170   2.186  0.00  0.00    +0.040 A 
ATOM     12  N   LIG    1       -3.918   8.293   3.122  0.00  0.00    -0.250 NA
ATOM     13  N   LIG    1       -3.743   7.098   2.672  0.00  0.00    -0.390 N 
ATOM     14  H   LIG    1       -3.839   6.285   3.193  0.00  0.00    +0.440 HD
ENDBRANCH   3   5
BRANCH   1  23
ATOM     15  C   LIG    1       -3.371   2.293   2.169  0.00  0.00    +0.050 C 
ATOM     16  C   LIG    1       -3.462   2.306   0.642  0.00  0.00    -0.080 C 
ATOM     17  C   LIG    1       -2.525   1.240   0.015  0.00  0.00    +0.290 C 
ATOM     18  N   LIG    1       -1.191   1.867   0.018  0.00  0.00    -0.610 N 
ATOM     19  C   LIG    1       -1.355   3.328   0.026  0.00  0.00    +0.240 C 
ATOM     20  C   LIG    1       -0.014   1.209   0.009  0.00  0.00    +0.570 C 
ATOM     21  O   LIG    1        0.002  -0.004   0.002  0.00  0.00    -0.530 OA
ATOM     22  C   LIG    1       -4.907   2.104   0.180  0.00  0.00    +0.060 C 
ATOM     23  C   LIG    1       -2.870   3.618   0.061  0.00  0.00    +0.270 C 
BRANCH  20  24
ATOM     24  C   LIG    1        1.280   1.980   0.001  0.00  0.00    -0.080 C 
ATOM     25  C   LIG    1        2.128   1.923  -1.272  0.00  0.00    +0.080 C 
ATOM     26  C   LIG    1        2.582   1.175  -0.016  0.00  0.00    +0.200 C 
ATOM     27  F   LIG    1        3.672   1.697   0.688  0.00  0.00    -0.180 F 
ENDBRANCH  20  24
ENDBRANCH   1  23
TORSDOF 3
