REMARK  Name = ZINCvU0000000IKr.0
REMARK                            x       y       z     vdW  Elec       q    Type
REMARK                         _______ _______ _______ _____ _____    ______ ____
ROOT
ATOM      1  C   LIG    1       -0.067   3.272   5.551  0.00  0.00    +0.080 C 
ATOM      2  C   LIG    1        0.480   1.871   5.828  0.00  0.00    +0.110 C 
ENDROOT
BRANCH   1   3
ATOM      3  C   LIG    1        1.047   4.280   5.671  0.00  0.00    +0.460 A 
ATOM      4  N   LIG    1        1.809   4.498   4.636  0.00  0.00    -0.560 NA
ATOM      5  C   LIG    1        2.817   5.384   4.684  0.00  0.00    +0.540 A 
ATOM      6  C   LIG    1        3.057   6.121   5.940  0.00  0.00    -0.210 A 
ATOM      7  C   LIG    1        2.218   5.849   7.005  0.00  0.00    +0.060 A 
ATOM      8  S   LIG    1        2.671   6.825   8.394  0.00  0.00    +0.210 S 
ATOM      9  C   LIG    1        3.987   7.586   7.519  0.00  0.00    -0.010 A 
ATOM     10  C   LIG    1        4.062   7.123   6.269  0.00  0.00    +0.040 A 
ATOM     11  O   LIG    1        3.522   5.577   3.707  0.00  0.00    -0.460 OA
ATOM     12  N   LIG    1        1.212   4.921   6.838  0.00  0.00    -0.580 N 
ATOM     13  H   LIG    1        0.616   4.726   7.578  0.00  0.00    +0.430 HD
BRANCH  10  14
ATOM     14  C   LIG    1        5.077   7.588   5.302  0.00  0.00    +0.040 A 
ATOM     15  C   LIG    1        5.365   8.885   5.008  0.00  0.00    -0.030 A 
ATOM     16  C   LIG    1        6.391   8.864   4.042  0.00  0.00    -0.070 A 
ATOM     17  C   LIG    1        6.670   7.571   3.791  0.00  0.00    +0.180 A 
ATOM     18  O   LIG    1        5.874   6.802   4.554  0.00  0.00    -0.150 OA
ENDBRANCH  10  14
ENDBRANCH   1   3
BRANCH   1  19
ATOM     19  S   LIG    1       -0.755   3.330   3.877  0.00  0.00    +0.090 S 
BRANCH  19  24
ATOM     20  C   LIG    1       -4.159  -0.121   5.923  0.00  0.00    +0.140 C 
ATOM     21  C   LIG    1       -3.485   0.779   4.920  0.00  0.00    +0.010 A 
ATOM     22  C   LIG    1       -3.859   0.952   3.641  0.00  0.00    -0.020 A 
ATOM     23  N   LIG    1       -2.977   1.849   3.082  0.00  0.00    -0.440 N 
ATOM     24  C   LIG    1       -2.094   2.199   4.057  0.00  0.00    +0.190 A 
ATOM     25  C   LIG    1       -5.022   0.288   2.950  0.00  0.00    +0.130 C 
ATOM     26  N   LIG    1       -2.409   1.551   5.154  0.00  0.00    -0.490 NA
BRANCH  23  27
ATOM     27  C   LIG    1       -2.990   2.339   1.701  0.00  0.00    +0.320 C 
BRANCH  27  28
ATOM     28  C   LIG    1       -2.131   1.423   0.827  0.00  0.00    +0.130 C 
ATOM     29  C   LIG    1       -2.230   1.847  -0.655  0.00  0.00    +0.010 C 
ATOM     30  C   LIG    1       -0.804   1.620  -1.206  0.00  0.00    +0.010 C 
ATOM     31  C   LIG    1       -0.013   1.086   0.008  0.00  0.00    +0.200 C 
ATOM     32  O   LIG    1       -0.731   1.573   1.163  0.00  0.00    -0.350 OA
ENDBRANCH  27  28
ENDBRANCH  23  27
ENDBRANCH  19  24
ENDBRANCH   1  19
TORSDOF 6
