REMARK  Name = ZINCqH0000000pn6.0
REMARK                            x       y       z     vdW  Elec       q    Type
REMARK                         _______ _______ _______ _____ _____    ______ ____
ROOT
ATOM      1  C   LIG    1       -5.177  -4.442  -2.482  0.00  0.00    +0.080 C 
ATOM      2  C   LIG    1       -3.790  -4.202  -3.020  0.00  0.00    +0.530 C 
ATOM      3  N   LIG    1       -2.776  -5.010  -2.654  0.00  0.00    -0.610 N 
ATOM      4  C   LIG    1       -3.010  -6.205  -1.826  0.00  0.00    +0.270 C 
ATOM      5  C   LIG    1       -2.646  -7.433  -2.660  0.00  0.00    +0.070 C 
ATOM      6  C   LIG    1       -1.311  -7.248  -3.332  0.00  0.00    -0.070 A 
ATOM      7  C   LIG    1       -0.649  -8.386  -3.774  0.00  0.00    +0.000 A 
ATOM      8  C   LIG    1        0.566  -8.286  -4.419  0.00  0.00    +0.000 A 
ATOM      9  C   LIG    1        1.133  -7.043  -4.629  0.00  0.00    +0.000 A 
ATOM     10  C   LIG    1        0.480  -5.910  -4.186  0.00  0.00    +0.010 A 
ATOM     11  C   LIG    1       -0.740  -6.011  -3.533  0.00  0.00    -0.090 A 
ATOM     12  C   LIG    1       -1.395  -4.735  -3.064  0.00  0.00    +0.310 C 
ATOM     13  O   LIG    1       -3.586  -3.280  -3.781  0.00  0.00    -0.510 OA
ENDROOT
BRANCH  12  14
ATOM     14  C   LIG    1       -0.614  -4.169  -1.876  0.00  0.00    +0.050 C 
BRANCH  14  15
ATOM     15  C   LIG    1       -1.192  -2.834  -1.484  0.00  0.00    +0.510 C 
ATOM     16  N   LIG    1       -0.660  -2.145  -0.456  0.00  0.00    -0.620 N 
ATOM     17  C   LIG    1        0.542  -2.631   0.237  0.00  0.00    +0.280 C 
ATOM     18  C   LIG    1        1.679  -1.631   0.001  0.00  0.00    +0.110 C 
ATOM     19  C   LIG    1        1.154  -0.227   0.215  0.00  0.00    -0.180 A 
ATOM     20  C   LIG    1       -0.146   0.123   0.213  0.00  0.00    -0.120 A 
ATOM     21  C   LIG    1       -0.363   1.481   0.424  0.00  0.00    +0.020 A 
ATOM     22  C   LIG    1        0.730   2.217   0.599  0.00  0.00    -0.040 A 
ATOM     23  S   LIG    1        2.154   1.193   0.500  0.00  0.00    +0.100 S 
ATOM     24  C   LIG    1       -1.268  -0.888   0.004  0.00  0.00    +0.290 C 
ATOM     25  C   LIG    1       -2.244  -0.367  -1.053  0.00  0.00    +0.070 C 
ATOM     26  O   LIG    1       -2.136  -2.379  -2.096  0.00  0.00    -0.490 OA
ENDBRANCH  14  15
ENDBRANCH  12  14
TORSDOF 2
