REMARK  Name = ZINCrH000004rrkZ.0
REMARK                            x       y       z     vdW  Elec       q    Type
REMARK                         _______ _______ _______ _____ _____    ______ ____
ROOT
ATOM      1  C   LIG    1        2.361  -0.098  -2.472  0.00  0.00    -0.680 A 
ATOM      2  C   LIG    1        1.114  -0.131  -3.068  0.00  0.00    +0.170 A 
ATOM      3  C   LIG    1        0.986   0.070  -4.432  0.00  0.00    +0.010 A 
ATOM      4  C   LIG    1        2.105   0.294  -5.207  0.00  0.00    +0.110 A 
ATOM      5  C   LIG    1        3.368   0.323  -4.612  0.00  0.00    -0.160 A 
ATOM      6  C   LIG    1        3.489   0.125  -3.235  0.00  0.00    +0.210 A 
ENDROOT
BRANCH   5   7
ATOM      7  C   LIG    1        4.571   0.562  -5.436  0.00  0.00    +0.560 C 
ATOM      8  N   LIG    1        4.451   0.753  -6.764  0.00  0.00    -0.660 N 
ATOM      9  H   LIG    1        3.571   0.800  -7.170  0.00  0.00    +0.410 HD
ATOM     10  O   LIG    1        5.670   0.587  -4.915  0.00  0.00    -0.510 OA
BRANCH   8  11
ATOM     11  C   LIG    1        5.595   0.883  -7.559  0.00  0.00    +0.090 A 
ATOM     12  C   LIG    1        6.729   1.524  -7.065  0.00  0.00    +0.070 A 
ATOM     13  C   LIG    1        7.839   1.623  -7.888  0.00  0.00    -0.010 A 
ATOM     14  C   LIG    1        7.783   1.098  -9.165  0.00  0.00    +0.240 A 
ATOM     15  N   LIG    1        6.691   0.502  -9.604  0.00  0.00    -0.470 NA
ATOM     16  C   LIG    1        5.615   0.381  -8.853  0.00  0.00    +0.240 A 
ENDBRANCH   8  11
ENDBRANCH   5   7
BRANCH   1  17
ATOM     17  S   LIG    1        2.512  -0.348  -0.734  0.00  0.00    +2.690 S 
ATOM     18  O   LIG    1        1.357  -1.072  -0.332  0.00  0.00    -0.940 OA
ATOM     19  O   LIG    1        3.836  -0.811  -0.509  0.00  0.00    -0.940 OA
BRANCH  17  20
ATOM     20  N   LIG    1        2.406   1.139  -0.014  0.00  0.00    -1.050 N 
ATOM     21  H   LIG    1        3.143   1.471   0.523  0.00  0.00    +0.430 HD
BRANCH  20  26
ATOM     22  C   LIG    1       -2.259   4.292  -0.684  0.00  0.00    +0.090 C 
ATOM     23  C   LIG    1       -1.019   3.454  -0.506  0.00  0.00    -0.090 A 
ATOM     24  C   LIG    1       -1.123   2.078  -0.420  0.00  0.00    +0.030 A 
ATOM     25  C   LIG    1        0.011   1.307  -0.251  0.00  0.00    -0.010 A 
ATOM     26  C   LIG    1        1.257   1.915  -0.179  0.00  0.00    +0.140 A 
ATOM     27  C   LIG    1        1.359   3.298  -0.272  0.00  0.00    -0.100 A 
ATOM     28  C   LIG    1        2.709   3.962  -0.196  0.00  0.00    +0.080 C 
ATOM     29  C   LIG    1        0.221   4.063  -0.436  0.00  0.00    +0.030 A 
ENDBRANCH  20  26
ENDBRANCH  17  20
ENDBRANCH   1  17
TORSDOF 5
