REMARK  Name = ZINCqH0000037iaw.0
REMARK                            x       y       z     vdW  Elec       q    Type
REMARK                         _______ _______ _______ _____ _____    ______ ____
ROOT
ATOM      1  C   LIG    1       -5.904   9.976   0.474  0.00  0.00    +0.210 A 
ATOM      2  C   LIG    1       -5.573   9.519   1.742  0.00  0.00    -0.060 A 
ATOM      3  C   LIG    1       -4.818   8.372   1.887  0.00  0.00    +0.070 A 
ATOM      4  C   LIG    1       -4.391   7.675   0.764  0.00  0.00    +0.080 A 
ATOM      5  C   LIG    1       -4.718   8.135  -0.505  0.00  0.00    +0.040 A 
ATOM      6  C   LIG    1       -5.477   9.279  -0.649  0.00  0.00    -0.050 A 
ENDROOT
BRANCH   4   7
ATOM      7  N   LIG    1       -3.625   6.511   0.911  0.00  0.00    -0.650 N 
ATOM      8  H   LIG    1       -2.929   6.305   0.268  0.00  0.00    +0.420 HD
ATOM      9  C   LIG    1       -3.856   5.679   1.946  0.00  0.00    +0.600 C 
ATOM     10  O   LIG    1       -4.670   5.979   2.797  0.00  0.00    -0.500 OA
BRANCH   9  11
ATOM     11  C   LIG    1       -3.120   4.403   2.045  0.00  0.00    +0.050 A 
ATOM     12  N   LIG    1       -2.215   3.962   1.193  0.00  0.00    -0.220 NA
ATOM     13  N   LIG    1       -1.762   2.718   1.644  0.00  0.00    -0.410 N 
ATOM     14  C   LIG    1       -0.849   1.602   1.322  0.00  0.00    +0.330 C 
ATOM     15  C   LIG    1       -1.363   0.479   2.253  0.00  0.00    +0.270 C 
ATOM     16  O   LIG    1       -1.999   1.222   3.309  0.00  0.00    -0.280 OA
ATOM     17  C   LIG    1       -2.405   2.417   2.801  0.00  0.00    +0.240 A 
ATOM     18  C   LIG    1       -3.260   3.443   3.068  0.00  0.00    -0.040 A 
ENDBRANCH   9  11
ENDBRANCH   4   7
BRANCH   1  19
ATOM     19  N   LIG    1       -6.669  11.138   0.327  0.00  0.00    -0.740 N 
ATOM     20  H   LIG    1       -6.968  11.625   1.111  0.00  0.00    +0.400 HD
BRANCH  19  22
ATOM     21  C   LIG    1       -8.281  10.905  -1.498  0.00  0.00    +0.030 C 
ATOM     22  C   LIG    1       -7.019  11.621  -1.011  0.00  0.00    +0.280 C 
BRANCH  22  23
ATOM     23  C   LIG    1       -7.272  13.105  -0.960  0.00  0.00    -0.090 A 
ATOM     24  C   LIG    1       -7.959  13.653   0.107  0.00  0.00    +0.010 A 
ATOM     25  C   LIG    1       -8.188  15.015   0.157  0.00  0.00    +0.000 A 
ATOM     26  C   LIG    1       -7.737  15.829  -0.866  0.00  0.00    +0.000 A 
ATOM     27  C   LIG    1       -7.055  15.281  -1.936  0.00  0.00    +0.000 A 
ATOM     28  C   LIG    1       -6.823  13.919  -1.983  0.00  0.00    +0.010 A 
ENDBRANCH  22  23
ENDBRANCH  19  22
ENDBRANCH   1  19
TORSDOF 5
