REMARK  Name = ZINCtV000002LPi4.0
REMARK                            x       y       z     vdW  Elec       q    Type
REMARK                         _______ _______ _______ _____ _____    ______ ____
ROOT
ATOM      1  C   LIG    1        5.134   0.517  -0.193  0.00  0.00    -0.050 A 
ATOM      2  C   LIG    1        4.705   1.838  -0.161  0.00  0.00    -0.010 A 
ATOM      3  C   LIG    1        5.618   2.865  -0.282  0.00  0.00    +0.070 A 
ATOM      4  C   LIG    1        6.968   2.589  -0.436  0.00  0.00    +0.000 A 
ATOM      5  C   LIG    1        7.414   1.286  -0.471  0.00  0.00    +0.100 A 
ATOM      6  C   LIG    1        6.502   0.234  -0.344  0.00  0.00    -0.120 A 
ENDROOT
BRANCH   6   7
ATOM      7  C   LIG    1        6.972  -1.161  -0.373  0.00  0.00    +0.510 C 
ATOM      8  O   LIG    1        6.176  -2.073  -0.267  0.00  0.00    -0.480 OA
BRANCH   7   9
ATOM      9  O   LIG    1        8.286  -1.427  -0.517  0.00  0.00    -0.340 OA
BRANCH   9  10
ATOM     10  C   LIG    1        8.677  -2.825  -0.537  0.00  0.00    +0.290 C 
BRANCH  10  11
ATOM     11  C   LIG    1       10.171  -2.927  -0.705  0.00  0.00    -0.100 A 
ATOM     12  C   LIG    1       10.721  -2.999  -1.970  0.00  0.00    +0.080 A 
ATOM     13  C   LIG    1       12.092  -3.088  -2.124  0.00  0.00    +0.020 A 
ATOM     14  C   LIG    1       12.912  -3.113  -1.012  0.00  0.00    +0.080 A 
ATOM     15  C   LIG    1       12.362  -3.045   0.254  0.00  0.00    -0.190 A 
ATOM     16  C   LIG    1       10.991  -2.952   0.408  0.00  0.00    +0.100 A 
BRANCH  15  17
ATOM     17  C   LIG    1       13.256  -3.073   1.467  0.00  0.00    +0.510 C 
ATOM     18  F   LIG    1       12.659  -2.347   2.503  0.00  0.00    -0.180 F 
ATOM     19  F   LIG    1       14.492  -2.500   1.149  0.00  0.00    -0.180 F 
ATOM     20  F   LIG    1       13.447  -4.397   1.875  0.00  0.00    -0.170 F 
ENDBRANCH  15  17
ENDBRANCH  10  11
ENDBRANCH   9  10
ENDBRANCH   7   9
ENDBRANCH   6   7
BRANCH   1  21
ATOM     21  S   LIG    1        3.970  -0.797  -0.040  0.00  0.00    +0.100 S 
BRANCH  21  27
ATOM     22  C   LIG    1        1.887   0.535  -1.244  0.00  0.00    +0.020 A 
ATOM     23  C   LIG    1        0.658   1.199  -1.231  0.00  0.00    +0.060 A 
ATOM     24  C   LIG    1       -0.021   1.367  -0.043  0.00  0.00    +0.050 A 
ATOM     25  C   LIG    1        0.509   0.881   1.141  0.00  0.00    +0.040 A 
ATOM     26  C   LIG    1        1.723   0.223   1.145  0.00  0.00    +0.080 A 
ATOM     27  C   LIG    1        2.421   0.043  -0.042  0.00  0.00    -0.140 A 
BRANCH  22  29
ATOM     28  N   LIG    1        3.160   0.215  -3.451  0.00  0.00    -0.390 NA
ATOM     29  C   LIG    1        2.597   0.356  -2.474  0.00  0.00    +0.240 C 
ENDBRANCH  22  29
ENDBRANCH  21  27
ENDBRANCH   1  21
TORSDOF 8
