REMARK  Name = ZINCpe000000XqZF.1
REMARK                            x       y       z     vdW  Elec       q    Type
REMARK                         _______ _______ _______ _____ _____    ______ ____
ROOT
ATOM      1  N   LIG    1       -0.349   2.074   8.576  0.00  0.00    -0.720 N 
ATOM      2  H   LIG    1       -1.011   2.774   8.459  0.00  0.00    +0.400 HD
ATOM      3  C   LIG    1        0.105   1.776   9.810  0.00  0.00    +0.560 C 
ATOM      4  O   LIG    1        0.933   0.899   9.957  0.00  0.00    -0.520 OA
ENDROOT
BRANCH   3   5
ATOM      5  C   LIG    1       -0.406   2.518  10.986  0.00  0.00    -0.060 A 
ATOM      6  C   LIG    1       -1.355   3.535  10.838  0.00  0.00    +0.000 A 
ATOM      7  C   LIG    1       -1.810   4.199  11.960  0.00  0.00    +0.320 A 
ATOM      8  N   LIG    1       -1.355   3.895  13.159  0.00  0.00    -0.490 NA
ATOM      9  C   LIG    1       -0.454   2.945  13.346  0.00  0.00    +0.370 A 
ATOM     10  C   LIG    1        0.052   2.225  12.273  0.00  0.00    +0.060 A 
BRANCH   9  11
ATOM     11  N   LIG    1       -0.005   2.663  14.641  0.00  0.00    -0.340 N 
ATOM     12  C   LIG    1       -0.391   3.271  15.780  0.00  0.00    +0.520 A 
ATOM     13  N   LIG    1        0.256   2.718  16.773  0.00  0.00    -0.540 NA
ATOM     14  C   LIG    1        1.066   1.765  16.311  0.00  0.00    +0.450 A 
ATOM     15  N   LIG    1        0.941   1.694  15.012  0.00  0.00    -0.310 NA
ENDBRANCH   9  11
ENDBRANCH   3   5
BRANCH   1  16
ATOM     16  C   LIG    1        0.155   1.341   7.413  0.00  0.00    +0.270 C 
BRANCH  16  17
ATOM     17  C   LIG    1       -0.517   1.870   6.145  0.00  0.00    +0.010 C 
BRANCH  17  18
ATOM     18  C   LIG    1        0.010   1.104   4.930  0.00  0.00    +0.180 C 
BRANCH  18  22
ATOM     19  C   LIG    1       -0.013   1.086   0.008  0.00  0.00    +0.050 C 
ATOM     20  C   LIG    1       -0.729   1.579   1.267  0.00  0.00    +0.160 C 
ATOM     21  C   LIG    1        0.011   1.073   2.508  0.00  0.00    +0.150 C 
ATOM     22  N   LIG    1       -0.636   1.613   3.712  0.00  0.00    -0.530 NA
ATOM     23  C   LIG    1       -0.634   3.083   3.690  0.00  0.00    +0.150 C 
ATOM     24  C   LIG    1       -1.368   3.569   2.437  0.00  0.00    +0.190 C 
ATOM     25  C   LIG    1       -2.830   3.124   2.496  0.00  0.00    +0.010 C 
ATOM     26  O   LIG    1       -0.744   3.009   1.278  0.00  0.00    -0.380 OA
ENDBRANCH  18  22
ENDBRANCH  17  18
ENDBRANCH  16  17
ENDBRANCH   1  16
TORSDOF 6
