REMARK  Name = ZINCue00000001s5.0
REMARK                            x       y       z     vdW  Elec       q    Type
REMARK                         _______ _______ _______ _____ _____    ______ ____
ROOT
ATOM      1  C   LIG    1       -1.187   1.624   0.017  0.00  0.00    +0.520 C 
ATOM      2  N   LIG    1       -0.011   0.966   0.007  0.00  0.00    -0.730 N 
ATOM      3  H   LIG    1        0.002  -0.004   0.002  0.00  0.00    +0.410 HD
ATOM      4  O   LIG    1       -1.204   2.837   0.023  0.00  0.00    -0.540 OA
ENDROOT
BRANCH   1   5
ATOM      5  C   LIG    1       -2.482   0.853   0.018  0.00  0.00    +0.080 C 
BRANCH   5   6
ATOM      6  C   LIG    1       -3.658   1.831   0.029  0.00  0.00    +0.160 C 
BRANCH   6  15
ATOM      7  C   LIG    1       -9.216   1.868   0.055  0.00  0.00    +0.330 C 
ATOM      8  N   LIG    1       -8.456   0.616   0.045  0.00  0.00    -0.500 N 
ATOM      9  C   LIG    1       -9.103  -0.566   0.042  0.00  0.00    +0.710 A 
ATOM     10  N   LIG    1       -8.440  -1.734   0.034  0.00  0.00    -0.640 N 
ATOM     11  H   LIG    1       -8.940  -2.566   0.032  0.00  0.00    +0.430 HD
ATOM     12  C   LIG    1       -7.078  -1.774   0.027  0.00  0.00    +0.550 A 
ATOM     13  C   LIG    1       -6.361  -0.575   0.029  0.00  0.00    -0.160 A 
ATOM     14  N   LIG    1       -5.047  -0.250   0.025  0.00  0.00    -0.460 NA
ATOM     15  C   LIG    1       -4.953   1.060   0.031  0.00  0.00    +0.140 A 
ATOM     16  N   LIG    1       -6.165   1.608   0.045  0.00  0.00    -0.550 NA
ATOM     17  O   LIG    1       -6.431  -2.953   0.018  0.00  0.00    -0.610 OA
ATOM     18  O   LIG    1      -10.319  -0.575   0.048  0.00  0.00    -0.580 OA
ATOM     19  C   LIG    1       -7.071   0.646   0.039  0.00  0.00    +0.220 A 
ENDBRANCH   6  15
ENDBRANCH   5   6
ENDBRANCH   1   5
BRANCH   2  20
ATOM     20  C   LIG    1        1.248   1.716  -0.001  0.00  0.00    +0.240 C 
BRANCH  20  21
ATOM     21  C   LIG    1        2.424   0.737  -0.017  0.00  0.00    +0.260 C 
BRANCH  21  22
ATOM     22  C   LIG    1        3.719   1.508  -0.025  0.00  0.00    -0.110 A 
ATOM     23  C   LIG    1        4.339   1.764  -1.209  0.00  0.00    +0.040 A 
ATOM     24  C   LIG    1        5.543   2.488  -1.221  0.00  0.00    -0.050 A 
ATOM     25  C   LIG    1        6.210   2.776  -2.424  0.00  0.00    +0.030 A 
ATOM     26  C   LIG    1        7.378   3.474  -2.396  0.00  0.00    +0.000 A 
ATOM     27  C   LIG    1        7.925   3.909  -1.191  0.00  0.00    +0.000 A 
ATOM     28  C   LIG    1        7.308   3.649  -0.006  0.00  0.00    +0.020 A 
ATOM     29  C   LIG    1        6.100   2.931   0.005  0.00  0.00    -0.050 A 
ATOM     30  C   LIG    1        5.433   2.643   1.208  0.00  0.00    +0.030 A 
ATOM     31  C   LIG    1        4.266   1.944   1.180  0.00  0.00    +0.020 A 
ENDBRANCH  21  22
BRANCH  21  32
ATOM     32  O   LIG    1        2.370  -0.091   1.146  0.00  0.00    -0.550 OA
ATOM     33  H   LIG    1        2.417   0.397   1.979  0.00  0.00    +0.380 HD
ENDBRANCH  21  32
ENDBRANCH  20  21
ENDBRANCH   2  20
TORSDOF 7
