REMARK  Name = ZINCue00000001s5.1
REMARK                            x       y       z     vdW  Elec       q    Type
REMARK                         _______ _______ _______ _____ _____    ______ ____
ROOT
ATOM      1  C   LIG    1       -1.187   1.624   0.017  0.00  0.00    +0.520 C 
ATOM      2  N   LIG    1       -0.011   0.966   0.007  0.00  0.00    -0.730 N 
ATOM      3  H   LIG    1        0.002  -0.004   0.002  0.00  0.00    +0.410 HD
ATOM      4  O   LIG    1       -1.204   2.837   0.023  0.00  0.00    -0.540 OA
ENDROOT
BRANCH   1   5
ATOM      5  C   LIG    1       -2.482   0.853   0.018  0.00  0.00    +0.050 C 
BRANCH   5   6
ATOM      6  C   LIG    1       -3.658   1.831   0.029  0.00  0.00    +0.160 C 
BRANCH   6  15
ATOM      7  C   LIG    1       -7.725  -0.568  -2.855  0.00  0.00    +0.310 C 
ATOM      8  N   LIG    1       -7.736  -0.586  -1.390  0.00  0.00    -0.500 N 
ATOM      9  C   LIG    1       -8.743  -1.192  -0.733  0.00  0.00    +0.710 A 
ATOM     10  N   LIG    1       -8.788  -1.229   0.610  0.00  0.00    -0.660 N 
ATOM     11  H   LIG    1       -9.529  -1.674   1.051  0.00  0.00    +0.420 HD
ATOM     12  C   LIG    1       -7.819  -0.657   1.354  0.00  0.00    +0.600 A 
ATOM     13  C   LIG    1       -6.743  -0.012   0.706  0.00  0.00    -0.180 A 
ATOM     14  N   LIG    1       -5.614   0.657   1.134  0.00  0.00    -0.480 NA
ATOM     15  C   LIG    1       -4.953   1.060   0.031  0.00  0.00    +0.140 A 
ATOM     16  N   LIG    1       -5.608   0.685  -1.038  0.00  0.00    -0.550 NA
ATOM     17  O   LIG    1       -7.870  -0.697   2.570  0.00  0.00    -0.540 OA
ATOM     18  O   LIG    1       -9.635  -1.718  -1.371  0.00  0.00    -0.590 OA
ATOM     19  C   LIG    1       -6.710   0.019  -0.683  0.00  0.00    +0.200 A 
ENDBRANCH   6  15
ENDBRANCH   5   6
ENDBRANCH   1   5
BRANCH   2  20
ATOM     20  C   LIG    1        1.248   1.716  -0.001  0.00  0.00    +0.240 C 
BRANCH  20  21
ATOM     21  C   LIG    1        2.424   0.737  -0.017  0.00  0.00    +0.260 C 
BRANCH  21  22
ATOM     22  C   LIG    1        3.719   1.508  -0.025  0.00  0.00    -0.110 A 
ATOM     23  C   LIG    1        4.339   1.764  -1.209  0.00  0.00    +0.040 A 
ATOM     24  C   LIG    1        5.543   2.488  -1.221  0.00  0.00    -0.050 A 
ATOM     25  C   LIG    1        6.210   2.776  -2.424  0.00  0.00    +0.030 A 
ATOM     26  C   LIG    1        7.378   3.474  -2.396  0.00  0.00    +0.000 A 
ATOM     27  C   LIG    1        7.925   3.909  -1.191  0.00  0.00    +0.000 A 
ATOM     28  C   LIG    1        7.308   3.649  -0.006  0.00  0.00    +0.020 A 
ATOM     29  C   LIG    1        6.100   2.931   0.005  0.00  0.00    -0.050 A 
ATOM     30  C   LIG    1        5.433   2.643   1.208  0.00  0.00    +0.030 A 
ATOM     31  C   LIG    1        4.266   1.944   1.180  0.00  0.00    +0.010 A 
ENDBRANCH  21  22
BRANCH  21  32
ATOM     32  O   LIG    1        2.370  -0.091   1.146  0.00  0.00    -0.550 OA
ATOM     33  H   LIG    1        2.417   0.397   1.979  0.00  0.00    +0.380 HD
ENDBRANCH  21  32
ENDBRANCH  20  21
ENDBRANCH   2  20
TORSDOF 7
