REMARK  Name = ZINCvU00000009cD.0
REMARK                            x       y       z     vdW  Elec       q    Type
REMARK                         _______ _______ _______ _____ _____    ______ ____
ROOT
ATOM      1  C   LIG    1        5.370   4.414  -1.468  0.00  0.00    +0.280 A 
ATOM      2  N   LIG    1        6.249   5.373  -1.458  0.00  0.00    -0.480 NA
ATOM      3  C   LIG    1        5.615   6.574  -1.443  0.00  0.00    +0.050 A 
ATOM      4  C   LIG    1        6.059   7.898  -1.428  0.00  0.00    +0.070 A 
ATOM      5  C   LIG    1        5.153   8.920  -1.414  0.00  0.00    +0.000 A 
ATOM      6  C   LIG    1        3.791   8.658  -1.416  0.00  0.00    +0.030 A 
ATOM      7  C   LIG    1        3.329   7.359  -1.430  0.00  0.00    +0.010 A 
ATOM      8  C   LIG    1        4.235   6.308  -1.450  0.00  0.00    +0.050 A 
ATOM      9  N   LIG    1        4.112   4.932  -1.460  0.00  0.00    -0.480 N 
ENDROOT
BRANCH   1  12
ATOM     10  N   LIG    1        7.474   1.531  -0.712  0.00  0.00    -0.560 N 
ATOM     11  C   LIG    1        6.523   2.545  -0.242  0.00  0.00    +0.300 C 
ATOM     12  C   LIG    1        5.697   2.943  -1.486  0.00  0.00    +0.090 C 
ATOM     13  C   LIG    1        6.676   2.608  -2.635  0.00  0.00    +0.110 C 
ATOM     14  C   LIG    1        7.584   1.547  -2.051  0.00  0.00    +0.520 C 
ATOM     15  O   LIG    1        8.305   0.818  -2.698  0.00  0.00    -0.500 OA
BRANCH  10  20
ATOM     16  C   LIG    1        8.783  -0.072   2.333  0.00  0.00    -0.060 A 
ATOM     17  C   LIG    1        9.569  -1.077   1.781  0.00  0.00    -0.030 A 
ATOM     18  C   LIG    1        9.656  -1.211   0.408  0.00  0.00    +0.060 A 
ATOM     19  C   LIG    1        8.963  -0.348  -0.419  0.00  0.00    +0.000 A 
ATOM     20  C   LIG    1        8.175   0.658   0.127  0.00  0.00    +0.190 A 
ATOM     21  C   LIG    1        8.090   0.800   1.504  0.00  0.00    -0.010 A 
BRANCH  16  23
ATOM     22  C   LIG    1        9.737  -1.237   4.692  0.00  0.00    +0.150 C 
ATOM     23  S   LIG    1        8.673   0.100   4.083  0.00  0.00    -0.110 S 
ENDBRANCH  16  23
ENDBRANCH  10  20
ENDBRANCH   1  12
BRANCH   9  24
ATOM     24  C   LIG    1        2.860   4.173  -1.467  0.00  0.00    +0.310 C 
BRANCH  24  25
ATOM     25  C   LIG    1        2.426   3.891  -0.028  0.00  0.00    +0.070 C 
BRANCH  25  26
ATOM     26  C   LIG    1        1.137   3.109  -0.035  0.00  0.00    -0.090 A 
ATOM     27  C   LIG    1        1.167   1.727  -0.051  0.00  0.00    +0.010 A 
ATOM     28  C   LIG    1       -0.014   1.010  -0.059  0.00  0.00    +0.000 A 
ATOM     29  C   LIG    1       -1.226   1.675  -0.055  0.00  0.00    +0.000 A 
ATOM     30  C   LIG    1       -1.256   3.057  -0.033  0.00  0.00    +0.000 A 
ATOM     31  C   LIG    1       -0.075   3.774  -0.026  0.00  0.00    +0.010 A 
ENDBRANCH  25  26
ENDBRANCH  24  25
ENDBRANCH   9  24
TORSDOF 6
