REMARK  Name = ZINCqH000003636k.1
REMARK                            x       y       z     vdW  Elec       q    Type
REMARK                         _______ _______ _______ _____ _____    ______ ____
ROOT
ATOM      1  N   LIG    1       -1.201  -0.722   0.009  0.00  0.00    -0.660 N 
ATOM      2  H   LIG    1       -2.045  -0.254   0.100  0.00  0.00    +0.420 HD
ATOM      3  C   LIG    1       -1.184  -2.066  -0.100  0.00  0.00    +0.510 C 
ATOM      4  O   LIG    1       -0.127  -2.660  -0.113  0.00  0.00    -0.500 OA
ENDROOT
BRANCH   1   9
ATOM      5  C   LIG    1        2.309   0.177  -0.646  0.00  0.00    +0.120 A 
ATOM      6  C   LIG    1        2.378   1.424  -0.044  0.00  0.00    -0.060 A 
ATOM      7  C   LIG    1        1.264   1.959   0.575  0.00  0.00    -0.010 A 
ATOM      8  C   LIG    1        0.074   1.250   0.595  0.00  0.00    +0.060 A 
ATOM      9  C   LIG    1        0.001  -0.003  -0.009  0.00  0.00    +0.160 A 
ATOM     10  C   LIG    1        1.121  -0.537  -0.629  0.00  0.00    +0.030 A 
BRANCH   5  12
ATOM     11  C   LIG    1        4.598   0.444  -1.234  0.00  0.00    +0.250 C 
ATOM     12  O   LIG    1        3.407  -0.346  -1.254  0.00  0.00    -0.310 OA
ENDBRANCH   5  12
BRANCH   8  13
ATOM     13  O   LIG    1       -1.024   1.779   1.200  0.00  0.00    -0.320 OA
ATOM     14  C   LIG    1       -0.876   3.068   1.799  0.00  0.00    +0.250 C 
ENDBRANCH   8  13
ENDBRANCH   1   9
BRANCH   3  15
ATOM     15  C   LIG    1       -2.479  -2.829  -0.206  0.00  0.00    +0.220 C 
BRANCH  15  16
ATOM     16  N   LIG    1       -2.193  -4.266  -0.313  0.00  0.00    -0.670 NA
ATOM     17  H   LIG    1       -1.633  -4.582   0.464  0.00  0.00    +0.360 HD
BRANCH  16  18
ATOM     18  C   LIG    1       -3.436  -5.043  -0.418  0.00  0.00    +0.190 C 
ATOM     19  C   LIG    1       -3.886  -5.090  -1.880  0.00  0.00    +0.050 C 
BRANCH  18  20
ATOM     20  C   LIG    1       -3.194  -6.446   0.078  0.00  0.00    -0.130 A 
ATOM     21  C   LIG    1       -2.014  -7.094  -0.235  0.00  0.00    +0.100 A 
ATOM     22  C   LIG    1       -1.788  -8.379   0.223  0.00  0.00    -0.060 A 
ATOM     23  C   LIG    1       -2.750  -9.020   0.988  0.00  0.00    +0.160 A 
ATOM     24  C   LIG    1       -3.936  -8.369   1.297  0.00  0.00    -0.130 A 
ATOM     25 BR   LIG    1       -5.251  -9.240   2.340  0.00  0.00    -0.040 Br
ATOM     26  C   LIG    1       -4.155  -7.083   0.841  0.00  0.00    +0.100 A 
BRANCH  23  27
ATOM     27  O   LIG    1       -2.531 -10.285   1.436  0.00  0.00    -0.300 OA
ATOM     28  C   LIG    1       -1.288 -10.893   1.080  0.00  0.00    +0.240 C 
ENDBRANCH  23  27
ENDBRANCH  18  20
ENDBRANCH  16  18
ENDBRANCH  15  16
ENDBRANCH   3  15
TORSDOF 8
