REMARK  Name = ZINCrH000004nFAp.0
REMARK                            x       y       z     vdW  Elec       q    Type
REMARK                         _______ _______ _______ _____ _____    ______ ____
ROOT
ATOM      1  C   LIG    1       -2.503  -2.655  -0.164  0.00  0.00    +0.210 C 
ATOM      2  C   LIG    1       -1.614  -1.943   0.862  0.00  0.00    +0.300 C 
ATOM      3  N   LIG    1       -1.393  -0.562   0.406  0.00  0.00    -0.620 N 
ATOM      4  C   LIG    1       -2.569   0.239   0.031  0.00  0.00    +0.250 C 
ATOM      5  C   LIG    1       -3.412  -0.581  -0.960  0.00  0.00    +0.220 C 
ATOM      6  C   LIG    1       -0.151  -0.044   0.338  0.00  0.00    +0.710 C 
ATOM      7  N   LIG    1        0.019   1.268   0.079  0.00  0.00    -0.680 N 
ATOM      8  H   LIG    1       -0.739   1.813  -0.184  0.00  0.00    +0.410 HD
ATOM      9  O   LIG    1        0.817  -0.759   0.511  0.00  0.00    -0.560 OA
ATOM     10  O   LIG    1       -3.674  -1.869  -0.398  0.00  0.00    -0.370 OA
ENDROOT
BRANCH   1  16
ATOM     11  C   LIG    1       -2.061  -5.097   0.197  0.00  0.00    +0.140 A 
ATOM     12  C   LIG    1       -2.432  -6.341   0.688  0.00  0.00    -0.080 A 
ATOM     13  C   LIG    1       -3.637  -6.491   1.347  0.00  0.00    +0.060 A 
ATOM     14  C   LIG    1       -4.473  -5.403   1.516  0.00  0.00    -0.030 A 
ATOM     15  C   LIG    1       -4.104  -4.161   1.033  0.00  0.00    +0.090 A 
ATOM     16  C   LIG    1       -2.902  -4.007   0.368  0.00  0.00    -0.120 A 
BRANCH  11  18
ATOM     17  C   LIG    1       -0.062  -6.113  -0.592  0.00  0.00    +0.250 C 
ATOM     18  O   LIG    1       -0.877  -4.947  -0.452  0.00  0.00    -0.310 OA
ENDBRANCH  11  18
ENDBRANCH   1  16
BRANCH   7  19
ATOM     19  C   LIG    1        1.291   1.843   0.183  0.00  0.00    +0.150 A 
ATOM     20  C   LIG    1        1.432   3.213   0.386  0.00  0.00    +0.040 A 
ATOM     21  C   LIG    1        2.711   3.736   0.483  0.00  0.00    +0.050 A 
ATOM     22  C   LIG    1        3.797   2.887   0.377  0.00  0.00    +0.010 A 
ATOM     23  N   LIG    1        3.630   1.593   0.185  0.00  0.00    -0.420 NA
ATOM     24  C   LIG    1        2.430   1.054   0.092  0.00  0.00    +0.300 A 
BRANCH  22  25
ATOM     25  C   LIG    1        5.192   3.448   0.483  0.00  0.00    +0.530 C 
ATOM     26  F   LIG    1        5.202   4.764   0.009  0.00  0.00    -0.170 F 
ATOM     27  F   LIG    1        6.067   2.670  -0.283  0.00  0.00    -0.160 F 
ATOM     28  F   LIG    1        5.602   3.431   1.820  0.00  0.00    -0.170 F 
ENDBRANCH  22  25
ENDBRANCH   7  19
TORSDOF 4
