REMARK  Name = ZINCrD00000F5LuJ.0
REMARK                            x       y       z     vdW  Elec       q    Type
REMARK                         _______ _______ _______ _____ _____    ______ ____
ROOT
ATOM      1  C   LIG    1       -5.321   0.574  -1.109  0.00  0.00    +0.570 C 
ATOM      2  N   LIG    1       -4.787   0.142   0.051  0.00  0.00    -0.590 N 
ATOM      3  C   LIG    1       -5.342   0.598   1.327  0.00  0.00    +0.300 C 
ATOM      4  O   LIG    1       -4.859   0.195  -2.170  0.00  0.00    -0.540 OA
ENDROOT
BRANCH   1   6
ATOM      5  C   LIG    1       -6.956   1.902  -2.260  0.00  0.00    +0.170 C 
ATOM      6  C   LIG    1       -6.418   1.468  -1.093  0.00  0.00    -0.080 C 
BRANCH   5  10
ATOM      7  C   LIG    1       -9.673   4.112  -2.927  0.00  0.00    +0.050 A 
ATOM      8  C   LIG    1       -9.703   4.140  -1.576  0.00  0.00    -0.060 A 
ATOM      9  C   LIG    1       -8.677   3.299  -1.121  0.00  0.00    +0.010 A 
ATOM     10  C   LIG    1       -8.054   2.796  -2.244  0.00  0.00    -0.020 A 
ATOM     11  O   LIG    1       -8.681   3.304  -3.326  0.00  0.00    -0.160 OA
BRANCH   7  15
ATOM     12  C   LIG    1       -8.462   6.036  -4.779  0.00  0.00    +0.060 C 
ATOM     13  C   LIG    1       -9.983   5.874  -4.809  0.00  0.00    -0.010 C 
ATOM     14  C   LIG    1      -10.543   4.551  -5.334  0.00  0.00    +0.050 C 
ATOM     15  C   LIG    1      -10.605   4.868  -3.839  0.00  0.00    +0.050 C 
ENDBRANCH   7  15
ENDBRANCH   5  10
ENDBRANCH   1   6
BRANCH   2  16
ATOM     16  C   LIG    1       -3.651  -0.783   0.034  0.00  0.00    +0.400 C 
BRANCH  16  17
ATOM     17  C   LIG    1       -2.364   0.002   0.026  0.00  0.00    +0.430 A 
ATOM     18  N   LIG    1       -2.434   1.304   0.034  0.00  0.00    -0.580 NA
ATOM     19  C   LIG    1       -1.329   2.074   0.032  0.00  0.00    +0.530 A 
ATOM     20  C   LIG    1       -0.017   1.403   0.010  0.00  0.00    -0.210 A 
ATOM     21  C   LIG    1        1.179   2.117   0.002  0.00  0.00    +0.110 A 
ATOM     22  C   LIG    1        2.376   1.433  -0.013  0.00  0.00    -0.010 A 
ATOM     23  C   LIG    1        2.394   0.046  -0.021  0.00  0.00    +0.080 A 
ATOM     24  C   LIG    1        1.218  -0.674  -0.013  0.00  0.00    -0.020 A 
ATOM     25  C   LIG    1        0.002  -0.004   0.002  0.00  0.00    +0.180 A 
ATOM     26  O   LIG    1       -1.412   3.290   0.040  0.00  0.00    -0.480 OA
ATOM     27  N   LIG    1       -1.204  -0.677   0.010  0.00  0.00    -0.620 N 
ATOM     28  H   LIG    1       -1.214  -1.647   0.006  0.00  0.00    +0.420 HD
ENDBRANCH  16  17
ENDBRANCH   2  16
TORSDOF 5
