REMARK  Name = ZINCtV000002MmZB.0
REMARK                            x       y       z     vdW  Elec       q    Type
REMARK                         _______ _______ _______ _____ _____    ______ ____
ROOT
ATOM      1  O   LIG    1        8.301   1.552   0.939  0.00  0.00    -0.490 OA
ATOM      2  C   LIG    1        7.307   0.905   0.685  0.00  0.00    +0.540 C 
ATOM      3  N   LIG    1        7.402  -0.423   0.476  0.00  0.00    -0.660 N 
ATOM      4  H   LIG    1        6.623  -0.926   0.192  0.00  0.00    +0.420 HD
ENDROOT
BRANCH   3   5
ATOM      5  C   LIG    1        8.624  -1.076   0.670  0.00  0.00    +0.160 A 
ATOM      6  C   LIG    1        9.612  -0.487   1.448  0.00  0.00    +0.090 A 
ATOM      7  C   LIG    1       10.816  -1.137   1.642  0.00  0.00    -0.150 A 
ATOM      8  C   LIG    1       11.042  -2.368   1.055  0.00  0.00    +0.070 A 
ATOM      9  C   LIG    1       10.062  -2.956   0.275  0.00  0.00    +0.070 A 
ATOM     10  C   LIG    1        8.854  -2.314   0.081  0.00  0.00    -0.040 A 
ATOM     11 CL   LIG    1        7.625  -3.052  -0.898  0.00  0.00    -0.050 Cl
BRANCH   7  12
ATOM     12  C   LIG    1       11.886  -0.501   2.491  0.00  0.00    +0.510 C 
ATOM     13  F   LIG    1       11.398  -0.306   3.788  0.00  0.00    -0.170 F 
ATOM     14  F   LIG    1       12.247   0.733   1.939  0.00  0.00    -0.170 F 
ATOM     15  F   LIG    1       13.006  -1.338   2.535  0.00  0.00    -0.170 F 
ENDBRANCH   7  12
ENDBRANCH   3   5
BRANCH   2  16
ATOM     16  C   LIG    1        5.965   1.587   0.602  0.00  0.00    +0.110 C 
BRANCH  16  17
ATOM     17  S   LIG    1        6.167   3.356   0.927  0.00  0.00    +0.180 S 
BRANCH  17  18
ATOM     18  C   LIG    1        4.494   3.888   0.770  0.00  0.00    +0.030 A 
ATOM     19  N   LIG    1        3.460   3.153   0.495  0.00  0.00    -0.260 NA
ATOM     20  N   LIG    1        2.227   3.759   0.415  0.00  0.00    -0.300 N 
ATOM     21  C   LIG    1        2.190   5.088   0.627  0.00  0.00    +0.220 A 
ATOM     22  S   LIG    1        0.821   6.116   0.590  0.00  0.00    -0.390 S 
ATOM     23  S   LIG    1        3.874   5.539   0.955  0.00  0.00    +0.160 S 
BRANCH  20  24
ATOM     24  C   LIG    1        1.068   3.030   0.122  0.00  0.00    +0.100 A 
ATOM     25  C   LIG    1       -0.071   3.194   0.899  0.00  0.00    +0.100 A 
ATOM     26  C   LIG    1       -1.213   2.473   0.609  0.00  0.00    +0.010 A 
ATOM     27  C   LIG    1       -1.220   1.584  -0.453  0.00  0.00    +0.120 A 
ATOM     28  C   LIG    1       -0.087   1.423  -1.232  0.00  0.00    +0.000 A 
ATOM     29  F   LIG    1       -2.337   0.876  -0.731  0.00  0.00    -0.130 F 
ATOM     30  C   LIG    1        1.057   2.141  -0.945  0.00  0.00    +0.080 A 
ENDBRANCH  20  24
ENDBRANCH  17  18
ENDBRANCH  16  17
ENDBRANCH   2  16
TORSDOF 6
