REMARK  Name = ZINCrH000004pVBJ.0
REMARK                            x       y       z     vdW  Elec       q    Type
REMARK                         _______ _______ _______ _____ _____    ______ ____
ROOT
ATOM      1  C   LIG    1        2.415   3.934   0.003  0.00  0.00    +0.570 C 
ATOM      2  N   LIG    1        3.587   3.278  -0.112  0.00  0.00    -0.610 N 
ATOM      3  C   LIG    1        3.625   1.812  -0.227  0.00  0.00    +0.310 C 
ATOM      4  C   LIG    1        4.196   1.437  -1.604  0.00  0.00    +0.100 C 
ATOM      5  C   LIG    1        5.424   2.275  -1.873  0.00  0.00    +0.090 A 
ATOM      6  C   LIG    1        5.718   3.418  -1.218  0.00  0.00    -0.190 A 
ATOM      7  C   LIG    1        6.957   3.922  -1.770  0.00  0.00    -0.090 A 
ATOM      8  C   LIG    1        7.731   5.053  -1.492  0.00  0.00    +0.060 A 
ATOM      9  C   LIG    1        8.876   5.220  -2.230  0.00  0.00    -0.030 A 
ATOM     10  C   LIG    1        9.259   4.316  -3.208  0.00  0.00    +0.020 A 
ATOM     11  C   LIG    1        8.513   3.188  -3.504  0.00  0.00    +0.000 A 
ATOM     12  C   LIG    1        7.345   2.993  -2.770  0.00  0.00    +0.100 A 
ATOM     13  N   LIG    1        6.397   2.012  -2.803  0.00  0.00    -0.580 N 
ATOM     14  H   LIG    1        6.410   1.244  -3.394  0.00  0.00    +0.420 HD
ATOM     15  C   LIG    1        4.867   4.010  -0.121  0.00  0.00    +0.360 C 
ATOM     16  O   LIG    1        1.374   3.310   0.074  0.00  0.00    -0.530 OA
ENDROOT
BRANCH   1  23
ATOM     17  C   LIG    1        1.295  11.807  -1.550  0.00  0.00    +0.120 C 
ATOM     18  C   LIG    1        1.743  10.345  -1.507  0.00  0.00    +0.030 C 
ATOM     19  S   LIG    1        2.336   9.940   0.163  0.00  0.00    -0.070 S 
ATOM     20  C   LIG    1        2.361   8.176   0.119  0.00  0.00    -0.110 A 
ATOM     21  C   LIG    1        3.290   7.474   0.876  0.00  0.00    +0.090 A 
ATOM     22  C   LIG    1        3.310   6.097   0.843  0.00  0.00    +0.040 A 
ATOM     23  C   LIG    1        2.396   5.408   0.042  0.00  0.00    -0.090 A 
ATOM     24  C   LIG    1        1.464   6.114  -0.723  0.00  0.00    +0.050 A 
ATOM     25  C   LIG    1        1.442   7.498  -0.690  0.00  0.00    +0.160 A 
ATOM     26  N   LIG    1        0.499   8.184  -1.453  0.00  0.00    -0.650 N 
ATOM     27  H   LIG    1       -0.298   7.696  -1.713  0.00  0.00    +0.420 HD
ATOM     28  C   LIG    1        0.583   9.450  -1.844  0.00  0.00    +0.520 C 
ATOM     29  O   LIG    1       -0.318   9.906  -2.516  0.00  0.00    -0.510 OA
ENDBRANCH   1  23
TORSDOF 1
