REMARK  Name = ZINCrD0000072ph8.0
REMARK                            x       y       z     vdW  Elec       q    Type
REMARK                         _______ _______ _______ _____ _____    ______ ____
ROOT
ATOM      1  C   LIG    1        3.711  -0.707  -0.037  0.00  0.00    +0.260 C 
ENDROOT
BRANCH   1   2
ATOM      2  C   LIG    1        2.396   0.029  -0.021  0.00  0.00    -0.130 A 
ATOM      3  C   LIG    1        1.208  -0.679  -0.013  0.00  0.00    +0.030 A 
ATOM      4  C   LIG    1        0.002  -0.004   0.002  0.00  0.00    +0.010 A 
ATOM      5  C   LIG    1       -0.017   1.378   0.010  0.00  0.00    +0.030 A 
ATOM      6  C   LIG    1        1.171   2.086   0.002  0.00  0.00    +0.010 A 
ATOM      7  C   LIG    1        2.377   1.411  -0.015  0.00  0.00    +0.040 A 
ENDBRANCH   1   2
BRANCH   1   8
ATOM      8  C   LIG    1        4.257  -0.731  -1.441  0.00  0.00    +0.540 C 
ATOM      9  N   LIG    1        3.597  -1.397  -2.409  0.00  0.00    -0.620 N 
ATOM     10  H   LIG    1        2.771  -1.862  -2.202  0.00  0.00    +0.420 HD
ATOM     11  O   LIG    1        5.290  -0.150  -1.700  0.00  0.00    -0.480 OA
BRANCH   9  12
ATOM     12  C   LIG    1        4.102  -1.419  -3.710  0.00  0.00    +0.250 A 
ATOM     13  N   LIG    1        3.577  -2.019  -4.746  0.00  0.00    -0.380 NA
ATOM     14  O   LIG    1        4.248  -1.857  -5.738  0.00  0.00    +0.100 OA
ATOM     15  C   LIG    1        5.334  -1.111  -5.488  0.00  0.00    -0.020 A 
ATOM     16  C   LIG    1        6.394  -0.703  -6.478  0.00  0.00    +0.190 C 
ATOM     17  C   LIG    1        5.287  -0.790  -4.175  0.00  0.00    -0.040 A 
ENDBRANCH   9  12
ENDBRANCH   1   8
BRANCH   1  18
ATOM     18  O   LIG    1        4.654  -0.032   0.837  0.00  0.00    -0.310 OA
BRANCH  18  19
ATOM     19  C   LIG    1        4.683  -0.425   2.126  0.00  0.00    +0.560 C 
ATOM     20  O   LIG    1        3.941  -1.308   2.509  0.00  0.00    -0.470 OA
BRANCH  19  26
ATOM     21  C   LIG    1        5.395   1.402   3.912  0.00  0.00    +0.070 A 
ATOM     22  N   LIG    1        6.506   1.569   4.566  0.00  0.00    -0.350 NA
ATOM     23  O   LIG    1        7.333   0.737   4.284  0.00  0.00    +0.100 OA
ATOM     24  C   LIG    1        6.904  -0.145   3.379  0.00  0.00    +0.040 A 
ATOM     25  C   LIG    1        7.679  -1.305   2.809  0.00  0.00    +0.200 C 
ATOM     26  C   LIG    1        5.614   0.215   3.070  0.00  0.00    -0.240 A 
BRANCH  21  28
ATOM     27  C   LIG    1        3.230   1.686   5.088  0.00  0.00    +0.040 C 
ATOM     28  C   LIG    1        4.148   2.244   3.998  0.00  0.00    +0.130 C 
ENDBRANCH  21  28
ENDBRANCH  19  26
ENDBRANCH  18  19
ENDBRANCH   1  18
TORSDOF 7
