REMARK  Name = ZINCrH000004nh6p.0
REMARK                            x       y       z     vdW  Elec       q    Type
REMARK                         _______ _______ _______ _____ _____    ______ ____
ROOT
ATOM      1  C   LIG    1       -2.507   1.000  -0.050  0.00  0.00    +0.380 A 
ATOM      2  N   LIG    1       -3.640   1.674   0.026  0.00  0.00    -0.500 NA
ATOM      3  C   LIG    1       -4.811   1.027   0.101  0.00  0.00    +0.170 A 
ATOM      4  C   LIG    1       -6.031   1.711   0.183  0.00  0.00    +0.030 A 
ATOM      5  C   LIG    1       -7.195   1.004   0.257  0.00  0.00    +0.070 A 
ATOM      6  C   LIG    1       -7.191  -0.387   0.254  0.00  0.00    +0.000 A 
ATOM      7  C   LIG    1       -6.020  -1.084   0.175  0.00  0.00    +0.090 A 
ATOM      8  C   LIG    1       -4.809  -0.390   0.098  0.00  0.00    -0.140 A 
ATOM      9  C   LIG    1       -3.562  -1.061   0.015  0.00  0.00    +0.400 A 
ATOM     10  N   LIG    1       -2.460  -0.330  -0.062  0.00  0.00    -0.550 NA
ENDROOT
BRANCH   9  11
ATOM     11  N   LIG    1       -3.499  -2.438   0.007  0.00  0.00    -0.480 N 
ATOM     12  C   LIG    1       -2.734  -2.938   1.160  0.00  0.00    +0.200 C 
ATOM     13  C   LIG    1       -2.879  -4.457   1.218  0.00  0.00    +0.050 C 
ATOM     14  C   LIG    1       -2.313  -5.101  -0.050  0.00  0.00    -0.020 C 
ATOM     15  C   LIG    1       -2.968  -6.511  -0.160  0.00  0.00    +0.200 C 
ATOM     16  O   LIG    1       -4.311  -6.252  -0.607  0.00  0.00    -0.380 OA
ATOM     17  C   LIG    1       -4.348  -5.010  -1.332  0.00  0.00    +0.210 C 
ATOM     18  C   LIG    1       -2.921  -4.440  -1.307  0.00  0.00    -0.030 C 
ATOM     19  C   LIG    1       -2.903  -2.930  -1.240  0.00  0.00    +0.210 C 
ENDBRANCH   9  11
BRANCH   1  24
ATOM     20  C   LIG    1       -0.056   3.851  -0.204  0.00  0.00    +0.120 A 
ATOM     21  C   LIG    1        1.148   3.166  -0.290  0.00  0.00    -0.060 A 
ATOM     22  C   LIG    1        1.162   1.783  -0.295  0.00  0.00    +0.040 A 
ATOM     23  C   LIG    1       -0.020   1.077  -0.213  0.00  0.00    +0.030 A 
ATOM     24  C   LIG    1       -1.235   1.757  -0.132  0.00  0.00    -0.010 A 
ATOM     25  C   LIG    1       -1.248   3.150  -0.122  0.00  0.00    +0.050 A 
BRANCH  20  27
ATOM     26  C   LIG    1        1.200   5.868  -0.288  0.00  0.00    +0.250 C 
ATOM     27  O   LIG    1       -0.066   5.210  -0.201  0.00  0.00    -0.320 OA
ENDBRANCH  20  27
ENDBRANCH   1  24
TORSDOF 3
