REMARK  Name = ZINCrH000004tnFh.0
REMARK                            x       y       z     vdW  Elec       q    Type
REMARK                         _______ _______ _______ _____ _____    ______ ____
ROOT
ATOM      1  N   LIG    1       -1.875   4.458  -4.708  0.00  0.00    -0.740 N 
ATOM      2  H   LIG    1       -0.934   4.230  -4.666  0.00  0.00    +0.400 HD
ATOM      3  C   LIG    1       -2.553   4.733  -3.576  0.00  0.00    +0.710 C 
ATOM      4  N   LIG    1       -1.923   4.692  -2.386  0.00  0.00    -0.710 N 
ATOM      5  H   LIG    1       -0.981   4.465  -2.344  0.00  0.00    +0.400 HD
ATOM      6  O   LIG    1       -3.734   5.019  -3.629  0.00  0.00    -0.580 OA
ENDROOT
BRANCH   4   7
ATOM      7  C   LIG    1       -2.659   4.992  -1.156  0.00  0.00    +0.310 C 
ATOM      8  C   LIG    1       -1.856   5.508   0.041  0.00  0.00    -0.030 C 
ATOM      9  C   LIG    1       -0.332   5.331   0.033  0.00  0.00    +0.120 C 
ATOM     10  C   LIG    1       -0.059   3.846   0.023  0.00  0.00    -0.080 A 
ATOM     11  C   LIG    1        1.151   3.168   0.008  0.00  0.00    +0.000 A 
ATOM     12  C   LIG    1        1.176   1.786   0.000  0.00  0.00    +0.100 A 
ATOM     13  C   LIG    1       -0.013   1.076   0.008  0.00  0.00    -0.010 A 
ATOM     14  C   LIG    1       -1.216   1.751   0.017  0.00  0.00    +0.060 A 
ATOM     15  F   LIG    1        2.357   1.129  -0.015  0.00  0.00    -0.140 F 
ATOM     16  C   LIG    1       -1.242   3.138   0.031  0.00  0.00    -0.070 A 
ATOM     17  C   LIG    1       -2.421   4.081   0.049  0.00  0.00    -0.010 C 
ENDBRANCH   4   7
BRANCH   1  26
ATOM     18  C   LIG    1       -4.594   0.772  -6.552  0.00  0.00    -0.020 A 
ATOM     19  C   LIG    1       -4.596   1.416  -5.313  0.00  0.00    +0.050 A 
ATOM     20  C   LIG    1       -3.932   2.613  -5.168  0.00  0.00    +0.050 A 
ATOM     21  C   LIG    1       -3.259   3.188  -6.240  0.00  0.00    -0.070 A 
ATOM     22  C   LIG    1       -3.250   2.556  -7.465  0.00  0.00    -0.070 A 
ATOM     23  C   LIG    1       -2.535   3.122  -8.664  0.00  0.00    +0.080 C 
ATOM     24  C   LIG    1       -2.235   4.605  -8.460  0.00  0.00    +0.030 C 
ATOM     25  C   LIG    1       -1.540   4.775  -7.104  0.00  0.00    +0.020 C 
ATOM     26  C   LIG    1       -2.561   4.502  -6.002  0.00  0.00    +0.310 C 
ATOM     27  C   LIG    1       -3.917   1.351  -7.624  0.00  0.00    +0.050 A 
BRANCH  18  29
ATOM     28  N   LIG    1       -5.826  -1.461  -6.853  0.00  0.00    -0.410 NA
ATOM     29  C   LIG    1       -5.281  -0.473  -6.720  0.00  0.00    +0.250 C 
ENDBRANCH  18  29
ENDBRANCH   1  26
TORSDOF 3
