REMARK  Name = ZINCrD00000F5LAC.0
REMARK                            x       y       z     vdW  Elec       q    Type
REMARK                         _______ _______ _______ _____ _____    ______ ____
ROOT
ATOM      1  C   LIG    1        3.027   0.995  -1.402  0.00  0.00    +0.520 C 
ATOM      2  N   LIG    1        4.200   0.380  -1.655  0.00  0.00    -0.620 N 
ATOM      3  C   LIG    1        4.983  -0.243  -0.578  0.00  0.00    +0.320 C 
ATOM      4  C   LIG    1        6.435   0.102  -0.762  0.00  0.00    -0.040 C 
ATOM      5  C   LIG    1        6.913   0.663  -1.847  0.00  0.00    -0.070 C 
ATOM      6  C   LIG    1        6.083   1.051  -3.035  0.00  0.00    +0.070 C 
ATOM      7  C   LIG    1        4.744   0.300  -3.021  0.00  0.00    +0.280 C 
ATOM      8  O   LIG    1        2.400   1.500  -2.309  0.00  0.00    -0.520 OA
ENDROOT
BRANCH   5   9
ATOM      9  C   LIG    1        8.365   0.930  -1.903  0.00  0.00    -0.070 A 
ATOM     10  C   LIG    1        8.833   2.244  -1.963  0.00  0.00    +0.040 A 
ATOM     11  C   LIG    1       10.188   2.489  -2.010  0.00  0.00    -0.010 A 
ATOM     12  C   LIG    1       11.088   1.432  -2.008  0.00  0.00    +0.110 A 
ATOM     13  C   LIG    1       10.626   0.123  -1.953  0.00  0.00    -0.010 A 
ATOM     14  C   LIG    1        9.272  -0.131  -1.901  0.00  0.00    +0.040 A 
BRANCH  12  15
ATOM     15  O   LIG    1       12.423   1.677  -2.060  0.00  0.00    -0.500 OA
ATOM     16  H   LIG    1       12.780   1.722  -2.958  0.00  0.00    +0.390 HD
ENDBRANCH  12  15
ENDBRANCH   5   9
BRANCH   1  17
ATOM     17  C   LIG    1        2.495   1.053   0.006  0.00  0.00    +0.100 C 
BRANCH  17  21
ATOM     18  C   LIG    1       -1.235   3.140   0.035  0.00  0.00    +0.150 A 
ATOM     19  C   LIG    1       -1.209   1.764  -0.152  0.00  0.00    -0.010 A 
ATOM     20  C   LIG    1       -0.002   1.092  -0.155  0.00  0.00    +0.040 A 
ATOM     21  C   LIG    1        1.180   1.789   0.016  0.00  0.00    -0.080 A 
ATOM     22  C   LIG    1        1.157   3.160   0.197  0.00  0.00    +0.040 A 
ATOM     23  C   LIG    1       -0.046   3.837   0.207  0.00  0.00    +0.010 A 
BRANCH  18  25
ATOM     24  C   LIG    1       -2.529   5.078  -0.443  0.00  0.00    +0.540 C 
ATOM     25  N   LIG    1       -2.455   3.823   0.044  0.00  0.00    -0.670 N 
ATOM     26  H   LIG    1       -3.248   3.394   0.400  0.00  0.00    +0.410 HD
ATOM     27  O   LIG    1       -1.559   5.581  -0.977  0.00  0.00    -0.520 OA
BRANCH  24  29
ATOM     28  C   LIG    1       -3.855   7.077  -0.809  0.00  0.00    +0.160 C 
ATOM     29  C   LIG    1       -3.782   5.838  -0.328  0.00  0.00    -0.090 C 
ENDBRANCH  24  29
ENDBRANCH  18  25
ENDBRANCH  17  21
ENDBRANCH   1  17
TORSDOF 6
