REMARK  Name = ZINCnE000004wPFk.2
REMARK                            x       y       z     vdW  Elec       q    Type
REMARK                         _______ _______ _______ _____ _____    ______ ____
ROOT
ATOM      1  C   LIG    1       -0.013   1.086   0.008  0.00  0.00    +0.250 C 
ENDROOT
BRANCH   1   2
ATOM      2  C   LIG    1       -0.742   1.585  -1.213  0.00  0.00    -0.030 A 
ATOM      3  C   LIG    1       -1.587   0.760  -1.888  0.00  0.00    +0.040 A 
ATOM      4  C   LIG    1       -2.276   1.204  -3.017  0.00  0.00    -0.020 A 
ATOM      5  C   LIG    1       -2.111   2.474  -3.482  0.00  0.00    +0.050 A 
ATOM      6  C   LIG    1       -1.242   3.350  -2.813  0.00  0.00    -0.100 A 
ATOM      7  C   LIG    1       -1.044   4.670  -3.260  0.00  0.00    +0.080 A 
ATOM      8  C   LIG    1       -0.183   5.466  -2.559  0.00  0.00    -0.030 A 
ATOM      9  C   LIG    1        0.469   4.963  -1.435  0.00  0.00    +0.290 A 
ATOM     10  N   LIG    1        0.283   3.734  -1.021  0.00  0.00    -0.440 NA
ATOM     11 CL   LIG    1       -3.351   0.121  -3.845  0.00  0.00    -0.070 Cl
ATOM     12  C   LIG    1       -0.546   2.903  -1.662  0.00  0.00    +0.140 A 
ENDBRANCH   1   2
BRANCH   1  15
ATOM     13  C   LIG    1       -0.800   1.525   3.664  0.00  0.00    -0.090 C 
ATOM     14  C   LIG    1       -0.165   0.905   2.417  0.00  0.00    +0.210 C 
ATOM     15  N   LIG    1       -0.700   1.560   1.217  0.00  0.00    -0.530 NA
ATOM     16  C   LIG    1       -2.152   1.364   1.107  0.00  0.00    +0.180 C 
ATOM     17  C   LIG    1       -2.845   1.998   2.315  0.00  0.00    +0.030 C 
ATOM     18  C   LIG    1       -2.320   1.350   3.598  0.00  0.00    +0.300 C 
ATOM     19  F   LIG    1       -2.910   1.964   4.708  0.00  0.00    -0.200 F 
ATOM     20  F   LIG    1       -2.633  -0.014   3.595  0.00  0.00    -0.200 F 
BRANCH  13  22
ATOM     21  O   LIG    1       -0.003   1.490   5.891  0.00  0.00    -0.690 OA
ATOM     22  C   LIG    1       -0.267   0.838   4.895  0.00  0.00    +0.500 C 
ATOM     23  O   LIG    1       -0.100  -0.369   4.895  0.00  0.00    -0.680 OA
ENDBRANCH  13  22
ENDBRANCH   1  15
TORSDOF 3
