REMARK  Name = ZINCpk00000y6vSC.0
REMARK                            x       y       z     vdW  Elec       q    Type
REMARK                         _______ _______ _______ _____ _____    ______ ____
ROOT
ATOM      1  C   LIG    1        5.878  -2.614  -0.141  0.00  0.00    +0.190 C 
ENDROOT
BRANCH   1   8
ATOM      2  C   LIG    1        8.065   0.623   2.796  0.00  0.00    +0.020 A 
ATOM      3  N   LIG    1        8.121  -0.671   2.587  0.00  0.00    -0.180 NA
ATOM      4  N   LIG    1        7.420  -1.252   1.680  0.00  0.00    -0.470 N 
ATOM      5  H   LIG    1        7.492  -2.212   1.566  0.00  0.00    +0.440 HD
ATOM      6  C   LIG    1        6.573  -0.539   0.866  0.00  0.00    +0.350 A 
ATOM      7  C   LIG    1        6.469   0.869   1.036  0.00  0.00    +0.070 A 
ATOM      8  N   LIG    1        5.868  -1.151  -0.060  0.00  0.00    -0.560 NA
ATOM      9  C   LIG    1        7.221   1.448   2.008  0.00  0.00    +0.100 A 
BRANCH   2  13
ATOM     10  C   LIG    1       10.514   1.049   5.670  0.00  0.00    +0.280 C 
ATOM     11  N   LIG    1        9.697   0.450   4.612  0.00  0.00    -0.720 N 
ATOM     12  H   LIG    1        9.731  -0.507   4.455  0.00  0.00    +0.410 HD
ATOM     13  C   LIG    1        8.893   1.227   3.860  0.00  0.00    +0.590 C 
ATOM     14  O   LIG    1        8.850   2.426   4.056  0.00  0.00    -0.520 OA
ENDBRANCH   2  13
ENDBRANCH   1   8
BRANCH   1  15
ATOM     15  C   LIG    1        6.537  -3.047  -1.451  0.00  0.00    +0.000 C 
ATOM     16  C   LIG    1        5.644  -2.694  -2.663  0.00  0.00    +0.080 C 
ATOM     17  C   LIG    1        5.833  -3.856  -3.614  0.00  0.00    +0.520 C 
ATOM     18  N   LIG    1        6.379  -4.899  -2.966  0.00  0.00    -0.620 N 
ATOM     19  C   LIG    1        6.704  -6.183  -3.593  0.00  0.00    +0.300 C 
ATOM     20  O   LIG    1        5.535  -3.847  -4.790  0.00  0.00    -0.530 OA
ATOM     21  C   LIG    1        6.609  -4.587  -1.551  0.00  0.00    +0.270 C 
BRANCH  21  22
ATOM     22  C   LIG    1        7.969  -5.075  -1.124  0.00  0.00    -0.100 A 
ATOM     23  C   LIG    1        9.032  -5.018  -2.005  0.00  0.00    +0.020 A 
ATOM     24  C   LIG    1       10.281  -5.460  -1.612  0.00  0.00    +0.000 A 
ATOM     25  C   LIG    1       10.465  -5.970  -0.340  0.00  0.00    +0.010 A 
ATOM     26  C   LIG    1        9.401  -6.031   0.540  0.00  0.00    +0.010 A 
ATOM     27  C   LIG    1        8.153  -5.584   0.148  0.00  0.00    +0.010 A 
ENDBRANCH  21  22
ENDBRANCH   1  15
TORSDOF 4
