REMARK  Name = ZINCqH0000008g13.0
REMARK                            x       y       z     vdW  Elec       q    Type
REMARK                         _______ _______ _______ _____ _____    ______ ____
ROOT
ATOM      1  C   LIG    1       -1.173   1.780   0.293  0.00  0.00    +0.530 C 
ATOM      2  N   LIG    1       -0.110   1.310  -0.390  0.00  0.00    -0.610 N 
ATOM      3  C   LIG    1       -0.098  -0.067  -0.901  0.00  0.00    +0.260 C 
ATOM      4  C   LIG    1        1.173  -0.766  -0.408  0.00  0.00    +0.010 C 
ATOM      5  C   LIG    1        2.394   0.064  -0.809  0.00  0.00    +0.010 C 
ATOM      6  C   LIG    1        2.315   1.443  -0.150  0.00  0.00    +0.020 C 
ATOM      7  C   LIG    1        1.057   2.167  -0.641  0.00  0.00    +0.220 C 
ATOM      8  O   LIG    1       -1.130   2.881   0.799  0.00  0.00    -0.520 OA
ENDROOT
BRANCH   1  10
ATOM      9  C   LIG    1       -2.126  -0.256   1.339  0.00  0.00    +0.060 C 
ATOM     10  C   LIG    1       -2.415   0.937   0.427  0.00  0.00    -0.030 C 
BRANCH  10  11
ATOM     11  C   LIG    1       -3.540   1.780   1.030  0.00  0.00    +0.320 C 
BRANCH  11  12
ATOM     12  N   LIG    1       -4.779   0.998   1.050  0.00  0.00    -0.710 N 
ATOM     13  H   LIG    1       -4.785   0.090   0.709  0.00  0.00    +0.400 HD
ATOM     14  C   LIG    1       -5.910   1.540   1.542  0.00  0.00    +0.650 C 
ATOM     15  O   LIG    1       -5.903   2.678   1.970  0.00  0.00    -0.560 OA
BRANCH  14  16
ATOM     16  O   LIG    1       -7.049   0.822   1.561  0.00  0.00    -0.370 OA
BRANCH  16  17
ATOM     17  C   LIG    1       -8.229   1.469   2.105  0.00  0.00    +0.140 C 
ATOM     18  C   LIG    1       -7.968   1.864   3.560  0.00  0.00    +0.040 C 
ATOM     19  C   LIG    1       -9.415   0.505   2.043  0.00  0.00    +0.080 C 
ATOM     20  C   LIG    1       -8.547   2.722   1.286  0.00  0.00    +0.040 C 
ENDBRANCH  16  17
ENDBRANCH  14  16
ENDBRANCH  11  12
ENDBRANCH  10  11
ENDBRANCH   1  10
BRANCH   7  21
ATOM     21  C   LIG    1        0.896   3.487   0.116  0.00  0.00    +0.120 C 
BRANCH  21  22
ATOM     22  C   LIG    1        2.102   4.357  -0.130  0.00  0.00    -0.080 A 
ATOM     23  C   LIG    1        3.141   4.372   0.781  0.00  0.00    +0.000 A 
ATOM     24  C   LIG    1        4.249   5.167   0.552  0.00  0.00    +0.000 A 
ATOM     25  C   LIG    1        4.313   5.954  -0.582  0.00  0.00    -0.010 A 
ATOM     26  C   LIG    1        3.271   5.943  -1.491  0.00  0.00    +0.000 A 
ATOM     27  C   LIG    1        2.165   5.144  -1.265  0.00  0.00    +0.000 A 
ENDBRANCH  21  22
ENDBRANCH   7  21
TORSDOF 7
