REMARK  Name = ZINCpk000000pSIE.0
REMARK                            x       y       z     vdW  Elec       q    Type
REMARK                         _______ _______ _______ _____ _____    ______ ____
ROOT
ATOM      1  C   LIG    1        1.831  -2.484  -0.756  0.00  0.00    -0.010 C 
ATOM      2  C   LIG    1        1.186  -1.294  -0.013  0.00  0.00    +0.270 C 
ATOM      3  N   LIG    1        2.254  -0.269   0.050  0.00  0.00    -0.620 N 
ATOM      4  C   LIG    1        3.489  -1.043   0.320  0.00  0.00    +0.290 C 
ATOM      5  C   LIG    1        2.132   1.064  -0.108  0.00  0.00    +0.590 C 
ATOM      6  O   LIG    1        3.123   1.767  -0.129  0.00  0.00    -0.530 OA
ATOM      7  C   LIG    1        3.348  -2.318  -0.532  0.00  0.00    +0.130 C 
ENDROOT
BRANCH   5   8
ATOM      8  C   LIG    1        0.795   1.669  -0.256  0.00  0.00    -0.230 A 
ATOM      9  C   LIG    1       -0.325   0.999   0.220  0.00  0.00    +0.200 A 
ATOM     10  C   LIG    1       -1.579   1.615   0.056  0.00  0.00    -0.280 A 
ATOM     11  C   LIG    1       -2.882   1.280   0.384  0.00  0.00    +0.160 A 
ATOM     12  N   LIG    1       -3.675   2.275  -0.027  0.00  0.00    -0.410 N 
ATOM     13  H   LIG    1       -4.639   2.297   0.077  0.00  0.00    +0.450 HD
ATOM     14  N   LIG    1       -2.911   3.279  -0.630  0.00  0.00    -0.290 NA
ATOM     15  C   LIG    1       -3.328   0.019   1.079  0.00  0.00    +0.190 C 
ATOM     16  C   LIG    1       -1.639   2.929  -0.605  0.00  0.00    +0.290 A 
ATOM     17  N   LIG    1       -0.501   3.506  -1.030  0.00  0.00    -0.470 NA
ATOM     18  C   LIG    1        0.657   2.925  -0.878  0.00  0.00    +0.420 A 
ENDBRANCH   5   8
BRANCH   7  19
ATOM     19  N   LIG    1        3.888  -3.479   0.188  0.00  0.00    -0.520 NA
ATOM     20  C   LIG    1        5.088  -3.113   0.954  0.00  0.00    +0.150 C 
ATOM     21  C   LIG    1        5.582  -4.334   1.734  0.00  0.00    +0.220 C 
ATOM     22  O   LIG    1        5.829  -5.408   0.822  0.00  0.00    -0.380 OA
ATOM     23  C   LIG    1        4.681  -5.791   0.059  0.00  0.00    +0.220 C 
ATOM     24  C   LIG    1        4.178  -4.584  -0.738  0.00  0.00    +0.150 C 
ENDBRANCH   7  19
BRANCH   1  26
ATOM     25  C   LIG    1       -0.160  -3.947  -0.384  0.00  0.00    +0.000 C 
ATOM     26  C   LIG    1        1.347  -3.808  -0.161  0.00  0.00    +0.050 C 
ENDBRANCH   1  26
TORSDOF 3
