REMARK  Name = ZINCrH000004vCY2.0
REMARK                            x       y       z     vdW  Elec       q    Type
REMARK                         _______ _______ _______ _____ _____    ______ ____
ROOT
ATOM      1  O   LIG    1       -4.358   7.454  -1.658  0.00  0.00    -0.520 OA
ATOM      2  C   LIG    1       -3.944   6.818  -2.607  0.00  0.00    +0.560 C 
ATOM      3  N   LIG    1       -3.447   5.579  -2.423  0.00  0.00    -0.610 N 
ATOM      4  C   LIG    1       -3.033   4.761  -3.571  0.00  0.00    +0.270 C 
ATOM      5  C   LIG    1       -3.746   3.407  -3.493  0.00  0.00    +0.030 C 
ATOM      6  C   LIG    1       -3.469   2.766  -2.131  0.00  0.00    +0.240 C 
ATOM      7  C   LIG    1       -4.018   3.665  -1.022  0.00  0.00    +0.030 C 
ATOM      8  C   LIG    1       -3.308   5.022  -1.071  0.00  0.00    +0.290 C 
ENDROOT
BRANCH   2   9
ATOM      9  C   LIG    1       -3.985   7.404  -3.962  0.00  0.00    -0.170 A 
ATOM     10  C   LIG    1       -2.930   7.190  -4.851  0.00  0.00    +0.070 A 
ATOM     11  C   LIG    1       -2.974   7.739  -6.115  0.00  0.00    +0.000 A 
ATOM     12  C   LIG    1       -4.061   8.502  -6.506  0.00  0.00    +0.080 A 
ATOM     13  C   LIG    1       -5.111   8.720  -5.633  0.00  0.00    -0.020 A 
ATOM     14  C   LIG    1       -5.083   8.171  -4.364  0.00  0.00    +0.150 A 
ATOM     15  F   LIG    1       -6.112   8.379  -3.513  0.00  0.00    -0.120 F 
ENDBRANCH   2   9
BRANCH   6  16
ATOM     16  N   LIG    1       -4.122   1.456  -2.067  0.00  0.00    -1.110 NA
ATOM     17  H   LIG    1       -4.984   1.322  -2.493  0.00  0.00    +0.420 HD
BRANCH  16  18
ATOM     18  S   LIG    1       -3.391   0.205  -1.266  0.00  0.00    +2.690 S 
ATOM     19  O   LIG    1       -4.236  -0.926  -1.431  0.00  0.00    -0.940 OA
ATOM     20  O   LIG    1       -3.009   0.711   0.006  0.00  0.00    -0.940 OA
BRANCH  18  21
ATOM     21  C   LIG    1       -1.896  -0.161  -2.125  0.00  0.00    -0.670 A 
ATOM     22  C   LIG    1       -0.678   0.024  -1.500  0.00  0.00    +0.160 A 
ATOM     23  C   LIG    1        0.496  -0.268  -2.173  0.00  0.00    -0.050 A 
ATOM     24  C   LIG    1        0.450  -0.734  -3.474  0.00  0.00    +0.110 A 
ATOM     25  C   LIG    1       -0.769  -0.914  -4.101  0.00  0.00    +0.050 A 
ATOM     26 CL   LIG    1        2.027  -0.043  -1.385  0.00  0.00    -0.040 Cl
ATOM     27  C   LIG    1       -1.943  -0.628  -3.426  0.00  0.00    +0.060 A 
ATOM     28 CL   LIG    1       -3.474  -0.854  -4.213  0.00  0.00    -0.030 Cl
ENDBRANCH  18  21
ENDBRANCH  16  18
ENDBRANCH   6  16
TORSDOF 4
