REMARK  Name = ZINCrD00000F5LwB.2
REMARK                            x       y       z     vdW  Elec       q    Type
REMARK                         _______ _______ _______ _____ _____    ______ ____
ROOT
ATOM      1  N   LIG    1        0.161   4.246  -2.696  0.00  0.00    -0.510 NA
ENDROOT
BRANCH   1   2
ATOM      2  C   LIG    1       -0.081   3.162  -3.658  0.00  0.00    +0.260 C 
BRANCH   2   6
ATOM      3  C   LIG    1        3.158   3.027  -6.324  0.00  0.00    +0.260 A 
ATOM      4  C   LIG    1        2.401   1.868  -6.180  0.00  0.00    +0.010 A 
ATOM      5  C   LIG    1        1.331   1.896  -5.299  0.00  0.00    +0.060 A 
ATOM      6  C   LIG    1        1.074   3.080  -4.623  0.00  0.00    +0.040 A 
ATOM      7  N   LIG    1        1.844   4.131  -4.821  0.00  0.00    -0.150 NA
ATOM      8  N   LIG    1        2.839   4.109  -5.631  0.00  0.00    -0.290 NA
BRANCH   3  10
ATOM      9  C   LIG    1        4.948   4.273  -7.266  0.00  0.00    +0.260 C 
ATOM     10  O   LIG    1        4.218   3.048  -7.170  0.00  0.00    -0.300 OA
ENDBRANCH   3  10
ENDBRANCH   2   6
ENDBRANCH   1   2
BRANCH   1  11
ATOM     11  C   LIG    1       -1.105   4.826  -2.228  0.00  0.00    +0.160 C 
BRANCH  11  12
ATOM     12  C   LIG    1       -0.900   6.309  -1.912  0.00  0.00    +0.170 C 
BRANCH  12  13
ATOM     13  O   LIG    1       -0.736   7.037  -3.130  0.00  0.00    -0.390 OA
ATOM     14  C   LIG    1        0.609   7.069  -3.611  0.00  0.00    +0.210 C 
ENDBRANCH  12  13
BRANCH  12  15
ATOM     15  C   LIG    1       -2.120   6.843  -1.159  0.00  0.00    +0.030 C 
BRANCH  15  16
ATOM     16  C   LIG    1       -1.869   8.294  -0.745  0.00  0.00    +0.000 C 
ATOM     17  C   LIG    1       -1.116   8.433   0.589  0.00  0.00    -0.000 C 
ATOM     18  C   LIG    1       -2.055   9.608   0.907  0.00  0.00    -0.000 C 
ATOM     19  C   LIG    1       -3.070   8.952  -0.044  0.00  0.00    -0.000 C 
ENDBRANCH  15  16
ENDBRANCH  12  15
ENDBRANCH  11  12
ENDBRANCH   1  11
BRANCH   1  20
ATOM     20  C   LIG    1        0.974   3.776  -1.567  0.00  0.00    +0.220 C 
BRANCH  20  21
ATOM     21  C   LIG    1        2.416   3.677  -1.994  0.00  0.00    -0.100 A 
ATOM     22  C   LIG    1        2.963   2.447  -2.304  0.00  0.00    +0.000 A 
ATOM     23  C   LIG    1        4.286   2.356  -2.694  0.00  0.00    -0.010 A 
ATOM     24  C   LIG    1        5.066   3.495  -2.775  0.00  0.00    +0.020 A 
ATOM     25  C   LIG    1        4.522   4.728  -2.472  0.00  0.00    -0.020 A 
ATOM     26  C   LIG    1        3.196   4.822  -2.075  0.00  0.00    +0.150 A 
BRANCH  26  27
ATOM     27  O   LIG    1        2.661   6.033  -1.770  0.00  0.00    -0.480 OA
ATOM     28  H   LIG    1        2.748   6.279  -0.839  0.00  0.00    +0.380 HD
ENDBRANCH  26  27
ENDBRANCH  20  21
ENDBRANCH   1  20
TORSDOF 11
