REMARK  Name = ZINCrH000004ne8O.0
REMARK                            x       y       z     vdW  Elec       q    Type
REMARK                         _______ _______ _______ _____ _____    ______ ____
ROOT
ATOM      1  N   LIG    1        1.293  -2.645  -2.235  0.00  0.00    -0.520 NA
ATOM      2  C   LIG    1        2.715  -2.276  -2.210  0.00  0.00    +0.190 C 
ENDROOT
BRANCH   1   3
ATOM      3  C   LIG    1        1.128  -4.095  -2.400  0.00  0.00    +0.230 C 
BRANCH   3   9
ATOM      4  C   LIG    1        4.285  -5.999  -7.706  0.00  0.00    +0.130 A 
ATOM      5  C   LIG    1        2.977  -5.640  -7.550  0.00  0.00    -0.020 A 
ATOM      6  C   LIG    1        2.508  -5.256  -6.282  0.00  0.00    -0.010 A 
ATOM      7  C   LIG    1        1.169  -4.881  -6.084  0.00  0.00    +0.010 A 
ATOM      8  C   LIG    1        0.748  -4.520  -4.840  0.00  0.00    +0.040 A 
ATOM      9  C   LIG    1        1.628  -4.506  -3.761  0.00  0.00    -0.080 A 
ATOM     10  C   LIG    1        2.933  -4.863  -3.916  0.00  0.00    +0.030 A 
ATOM     11  C   LIG    1        3.403  -5.247  -5.183  0.00  0.00    -0.080 A 
ATOM     12  C   LIG    1        4.744  -5.623  -5.380  0.00  0.00    +0.070 A 
ATOM     13  C   LIG    1        5.166  -5.989  -6.620  0.00  0.00    -0.060 A 
BRANCH   4  15
ATOM     14  C   LIG    1        6.115  -6.735  -9.033  0.00  0.00    +0.250 C 
ATOM     15  O   LIG    1        4.737  -6.370  -8.932  0.00  0.00    -0.320 OA
ENDBRANCH   4  15
ENDBRANCH   3   9
ENDBRANCH   1   3
BRANCH   1  16
ATOM     16  C   LIG    1        0.606  -2.171  -1.026  0.00  0.00    +0.220 C 
BRANCH  16  17
ATOM     17  C   LIG    1        0.585  -0.664  -1.018  0.00  0.00    +0.520 C 
ATOM     18  N   LIG    1        0.002  -0.004   0.002  0.00  0.00    -0.730 N 
ATOM     19  H   LIG    1       -0.404  -0.499   0.731  0.00  0.00    +0.400 HD
ATOM     20  O   LIG    1        1.093  -0.046  -1.929  0.00  0.00    -0.520 OA
BRANCH  18  21
ATOM     21  C   LIG    1       -0.018   1.461   0.010  0.00  0.00    +0.330 C 
BRANCH  21  22
ATOM     22  C   LIG    1       -0.723   1.947   1.250  0.00  0.00    -0.150 A 
ATOM     23  C   LIG    1        0.006   2.473   2.299  0.00  0.00    +0.070 A 
ATOM     24  C   LIG    1       -0.640   2.920   3.436  0.00  0.00    +0.000 A 
ATOM     25  C   LIG    1       -2.018   2.839   3.526  0.00  0.00    +0.060 A 
ATOM     26  C   LIG    1       -2.749   2.312   2.479  0.00  0.00    -0.020 A 
ATOM     27  C   LIG    1       -2.103   1.871   1.336  0.00  0.00    +0.110 A 
ATOM     28  F   LIG    1       -2.818   1.362   0.309  0.00  0.00    -0.130 F 
ENDBRANCH  21  22
ENDBRANCH  18  21
ENDBRANCH  16  17
ENDBRANCH   1  16
TORSDOF 7
