REMARK  Name = ZINCqH0000008W9e.0
REMARK                            x       y       z     vdW  Elec       q    Type
REMARK                         _______ _______ _______ _____ _____    ______ ____
ROOT
ATOM      1  C   LIG    1        2.900   5.787  -1.151  0.00  0.00    +0.520 C 
ATOM      2  N   LIG    1        3.514   6.954  -1.429  0.00  0.00    -0.670 N 
ATOM      3  H   LIG    1        4.158   7.324  -0.806  0.00  0.00    +0.410 HD
ATOM      4  O   LIG    1        2.026   5.372  -1.883  0.00  0.00    -0.500 OA
ENDROOT
BRANCH   2   5
ATOM      5  C   LIG    1        3.222   7.632  -2.618  0.00  0.00    +0.180 A 
ATOM      6  C   LIG    1        2.914   6.917  -3.769  0.00  0.00    -0.020 A 
ATOM      7  C   LIG    1        2.621   7.586  -4.942  0.00  0.00    +0.060 A 
ATOM      8  C   LIG    1        2.644   8.967  -4.977  0.00  0.00    -0.040 A 
ATOM      9  C   LIG    1        2.957   9.687  -3.831  0.00  0.00    +0.210 A 
ATOM     10  C   LIG    1        3.246   9.019  -2.651  0.00  0.00    -0.020 A 
BRANCH   9  11
ATOM     11  N   LIG    1        2.981  11.086  -3.868  0.00  0.00    -0.570 N 
ATOM     12  C   LIG    1        2.586  11.915  -5.017  0.00  0.00    +0.260 C 
ATOM     13  C   LIG    1        2.801  13.358  -4.521  0.00  0.00    +0.270 C 
ATOM     14  N   LIG    1        3.302  13.189  -3.149  0.00  0.00    -0.740 N 
ATOM     15  H   LIG    1        3.544  13.910  -2.546  0.00  0.00    +0.430 HD
ATOM     16  C   LIG    1        3.372  11.882  -2.865  0.00  0.00    +0.700 C 
ATOM     17  O   LIG    1        3.757  11.457  -1.792  0.00  0.00    -0.570 OA
ENDBRANCH   9  11
ENDBRANCH   2   5
BRANCH   1  19
ATOM     18  C   LIG    1        3.069   5.844   1.322  0.00  0.00    +0.070 C 
ATOM     19  C   LIG    1        3.299   4.997   0.069  0.00  0.00    +0.100 C 
BRANCH  19  20
ATOM     20  C   LIG    1        2.468   3.743   0.150  0.00  0.00    +0.060 A 
ATOM     21  C   LIG    1        2.957   2.496   0.138  0.00  0.00    -0.040 A 
ATOM     22  C   LIG    1        1.798   1.600   0.236  0.00  0.00    -0.130 A 
ATOM     23  C   LIG    1        1.637   0.216   0.272  0.00  0.00    +0.060 A 
ATOM     24  C   LIG    1        0.371  -0.319   0.371  0.00  0.00    -0.010 A 
ATOM     25  C   LIG    1       -0.737   0.513   0.434  0.00  0.00    +0.050 A 
ATOM     26  C   LIG    1       -0.591   1.884   0.399  0.00  0.00    +0.020 A 
ATOM     27  C   LIG    1        0.676   2.444   0.300  0.00  0.00    +0.060 A 
ATOM     28  O   LIG    1        1.127   3.713   0.245  0.00  0.00    -0.180 OA
ENDBRANCH  19  20
ENDBRANCH   1  19
TORSDOF 4
