REMARK  Name = ZINCrH000008uzli.0
REMARK                            x       y       z     vdW  Elec       q    Type
REMARK                         _______ _______ _______ _____ _____    ______ ____
ROOT
ATOM      1  C   LIG    1       -0.277   1.278   8.752  0.00  0.00    +0.380 C 
ATOM      2  C   LIG    1        0.249   2.660   9.143  0.00  0.00    +0.070 C 
ENDROOT
BRANCH   1   3
ATOM      3  C   LIG    1        0.128   0.272   9.800  0.00  0.00    +0.170 A 
ATOM      4  N   LIG    1       -0.650  -0.260  10.709  0.00  0.00    -0.450 NA
ATOM      5  C   LIG    1        0.141  -1.097  11.418  0.00  0.00    +0.220 A 
ATOM      6  N   LIG    1        1.340  -1.025  10.902  0.00  0.00    -0.360 NA
ATOM      7  O   LIG    1        1.347  -0.248   9.971  0.00  0.00    +0.090 OA
BRANCH   5   8
ATOM      8  C   LIG    1       -0.275  -1.940  12.566  0.00  0.00    -0.010 A 
ATOM      9  C   LIG    1       -1.595  -1.911  13.014  0.00  0.00    +0.060 A 
ATOM     10  C   LIG    1       -1.978  -2.699  14.080  0.00  0.00    +0.050 A 
ATOM     11  C   LIG    1       -1.054  -3.512  14.711  0.00  0.00    -0.090 A 
ATOM     12  C   LIG    1        0.260  -3.542  14.274  0.00  0.00    +0.100 A 
ATOM     13  F   LIG    1        1.159  -4.337  14.895  0.00  0.00    -0.130 F 
ATOM     14  C   LIG    1       -1.479  -4.366  15.877  0.00  0.00    +0.110 C 
ATOM     15  C   LIG    1        0.653  -2.760  13.205  0.00  0.00    +0.030 A 
ENDBRANCH   5   8
ENDBRANCH   1   3
BRANCH   1  17
ATOM     16  C   LIG    1       -0.304   1.293   6.316  0.00  0.00    +0.530 C 
ATOM     17  N   LIG    1        0.287   0.889   7.458  0.00  0.00    -0.730 N 
ATOM     18  H   LIG    1        1.086   0.340   7.422  0.00  0.00    +0.410 HD
ATOM     19  O   LIG    1       -1.303   1.980   6.361  0.00  0.00    -0.520 OA
BRANCH  16  20
ATOM     20  C   LIG    1        0.277   0.893   4.984  0.00  0.00    +0.050 C 
BRANCH  20  21
ATOM     21  C   LIG    1       -0.578   1.479   3.859  0.00  0.00    +0.130 C 
BRANCH  21  22
ATOM     22  C   LIG    1        0.011   1.072   2.506  0.00  0.00    +0.030 C 
ATOM     23  N   LIG    1        1.454   0.835   2.413  0.00  0.00    -0.120 NA
ATOM     24  N   LIG    1        0.751  -0.189   2.414  0.00  0.00    -0.120 NA
BRANCH  22  25
ATOM     25  C   LIG    1       -0.729   1.579   1.267  0.00  0.00    +0.120 C 
BRANCH  25  26
ATOM     26  C   LIG    1       -0.013   1.086   0.008  0.00  0.00    +0.160 C 
BRANCH  26  28
ATOM     27  C   LIG    1       -1.292   1.962  -2.136  0.00  0.00    +0.030 C 
ATOM     28  C   LIG    1       -0.725   1.573  -1.185  0.00  0.00    -0.190 C 
ENDBRANCH  26  28
ENDBRANCH  25  26
ENDBRANCH  22  25
ENDBRANCH  21  22
ENDBRANCH  20  21
ENDBRANCH  16  20
ENDBRANCH   1  17
TORSDOF 9
