REMARK  Name = ZINCpe000000XMhc.0
REMARK                            x       y       z     vdW  Elec       q    Type
REMARK                         _______ _______ _______ _____ _____    ______ ____
ROOT
ATOM      1  C   LIG    1       -1.187   2.135   0.019  0.00  0.00    +0.520 C 
ATOM      2  N   LIG    1       -0.018   1.465   0.010  0.00  0.00    -0.610 N 
ATOM      3  C   LIG    1        1.260   2.191   0.002  0.00  0.00    +0.270 C 
ATOM      4  C   LIG    1        2.107   1.706   1.185  0.00  0.00    +0.300 C 
ATOM      5  N   LIG    1        2.127   0.236   1.177  0.00  0.00    -0.990 NA
ATOM      6  C   LIG    1        0.849  -0.489   1.185  0.00  0.00    +0.300 C 
ATOM      7  C   LIG    1        0.002  -0.004   0.002  0.00  0.00    +0.280 C 
ATOM      8  O   LIG    1       -2.236   1.526   0.021  0.00  0.00    -0.520 OA
ENDROOT
BRANCH   5   9
ATOM      9  S   LIG    1        3.563  -0.587   1.158  0.00  0.00    +2.730 S 
ATOM     10  O   LIG    1        3.296  -1.874   1.698  0.00  0.00    -0.920 OA
ATOM     11  O   LIG    1        4.538   0.295   1.698  0.00  0.00    -0.920 OA
BRANCH   9  12
ATOM     12  C   LIG    1        4.000  -0.837  -0.531  0.00  0.00    -0.310 A 
ATOM     13  N   LIG    1        3.663  -1.870  -1.257  0.00  0.00    -0.210 NA
ATOM     14  N   LIG    1        4.212  -1.664  -2.534  0.00  0.00    -0.460 N 
ATOM     15  H   LIG    1        4.137  -2.254  -3.300  0.00  0.00    +0.450 HD
ATOM     16  C   LIG    1        4.866  -0.491  -2.480  0.00  0.00    +0.500 A 
ATOM     17  N   LIG    1        4.730  -0.005  -1.273  0.00  0.00    -0.470 NA
ENDBRANCH   9  12
ENDBRANCH   5   9
BRANCH   1  18
ATOM     18  C   LIG    1       -1.192   3.643   0.028  0.00  0.00    +0.110 C 
BRANCH  18  23
ATOM     19  C   LIG    1       -6.647   5.552   0.065  0.00  0.00    +0.090 C 
ATOM     20  C   LIG    1       -5.224   5.054   0.054  0.00  0.00    -0.070 A 
ATOM     21  C   LIG    1       -4.497   5.015   1.229  0.00  0.00    +0.020 A 
ATOM     22  C   LIG    1       -3.192   4.558   1.220  0.00  0.00    +0.040 A 
ATOM     23  C   LIG    1       -2.614   4.140   0.037  0.00  0.00    -0.070 A 
ATOM     24  C   LIG    1       -3.340   4.184  -1.140  0.00  0.00    -0.010 A 
ATOM     25 CL   LIG    1       -2.612   3.666  -2.629  0.00  0.00    -0.070 Cl
ATOM     26  C   LIG    1       -4.647   4.636  -1.130  0.00  0.00    +0.020 A 
ENDBRANCH  18  23
ENDBRANCH   1  18
TORSDOF 4
