REMARK  Name = ZINCtj00000mhXS5.1
REMARK                            x       y       z     vdW  Elec       q    Type
REMARK                         _______ _______ _______ _____ _____    ______ ____
ROOT
ATOM      1  O   LIG    1        0.908   0.306   2.369  0.00  0.00    -0.530 OA
ATOM      2  C   LIG    1       -0.049   1.038   2.503  0.00  0.00    +0.510 C 
ATOM      3  N   LIG    1       -0.505   1.332   3.737  0.00  0.00    -0.720 N 
ATOM      4  H   LIG    1       -1.271   1.917   3.844  0.00  0.00    +0.400 HD
ENDROOT
BRANCH   2   5
ATOM      5  C   LIG    1       -0.730   1.619   1.290  0.00  0.00    +0.000 C 
ATOM      6  C   LIG    1       -0.021   1.131   0.023  0.00  0.00    +0.090 C 
ATOM      7  C   LIG    1       -0.764   1.660  -1.206  0.00  0.00    +0.260 C 
ATOM      8  N   LIG    1       -2.146   1.167  -1.197  0.00  0.00    -0.380 N 
ATOM      9  C   LIG    1       -2.854   1.690  -0.022  0.00  0.00    +0.270 C 
ATOM     10  H   LIG    1       -2.142   0.159  -1.164  0.00  0.00    +0.430 HD
ATOM     11  C   LIG    1       -2.192   1.162   1.253  0.00  0.00    +0.080 C 
BRANCH   8  12
ATOM     12  C   LIG    1       -2.832   1.613  -2.417  0.00  0.00    +0.200 C 
ATOM     13  C   LIG    1       -4.282   1.100  -2.413  0.00  0.00    +0.090 C 
ATOM     14  C   LIG    1       -4.833   1.313  -3.847  0.00  0.00    -0.280 C 
ATOM     15  S   LIG    1       -3.427   0.782  -4.897  0.00  0.00    +2.410 S 
ATOM     16  O   LIG    1       -3.260   1.707  -5.962  0.00  0.00    -0.900 OA
ATOM     17  O   LIG    1       -3.544  -0.607  -5.174  0.00  0.00    -0.900 OA
ATOM     18  C   LIG    1       -2.110   1.044  -3.655  0.00  0.00    -0.320 C 
ENDBRANCH   8  12
ENDBRANCH   2   5
BRANCH   3  19
ATOM     19  C   LIG    1        0.156   0.767   4.916  0.00  0.00    +0.320 C 
BRANCH  19  20
ATOM     20  C   LIG    1       -0.542   1.248   6.162  0.00  0.00    -0.150 A 
ATOM     21  C   LIG    1       -0.126   2.413   6.780  0.00  0.00    +0.060 A 
ATOM     22  C   LIG    1       -0.767   2.858   7.919  0.00  0.00    +0.000 A 
ATOM     23  C   LIG    1       -1.822   2.129   8.451  0.00  0.00    +0.180 A 
ATOM     24  C   LIG    1       -2.234   0.957   7.831  0.00  0.00    -0.030 A 
ATOM     25  C   LIG    1       -1.593   0.519   6.688  0.00  0.00    +0.060 A 
BRANCH  23  26
ATOM     26  N   LIG    1       -2.470   2.575   9.608  0.00  0.00    -0.560 N 
ATOM     27  C   LIG    1       -3.513   1.822  10.316  0.00  0.00    +0.270 C 
ATOM     28  C   LIG    1       -4.218   2.852  11.227  0.00  0.00    +0.060 C 
ATOM     29  C   LIG    1       -3.106   3.908  11.428  0.00  0.00    +0.070 C 
ATOM     30  C   LIG    1       -2.214   3.745  10.217  0.00  0.00    +0.520 C 
ATOM     31  O   LIG    1       -1.389   4.555   9.849  0.00  0.00    -0.500 OA
ENDBRANCH  23  26
ENDBRANCH  19  20
ENDBRANCH   3  19
TORSDOF 5
