REMARK  Name = ZINCrD00000F5Lqw.0
REMARK                            x       y       z     vdW  Elec       q    Type
REMARK                         _______ _______ _______ _____ _____    ______ ____
ROOT
ATOM      1  C   LIG    1       -0.018   1.458   0.010  0.00  0.00    +0.550 C 
ATOM      2  N   LIG    1        1.140   2.148   0.003  0.00  0.00    -0.720 N 
ATOM      3  H   LIG    1        1.987   1.675  -0.008  0.00  0.00    +0.410 HD
ATOM      4  O   LIG    1       -1.080   2.053   0.018  0.00  0.00    -0.540 OA
ENDROOT
BRANCH   1   6
ATOM      5  C   LIG    1       -1.158  -0.695   0.009  0.00  0.00    +0.120 C 
ATOM      6  C   LIG    1        0.002  -0.004   0.002  0.00  0.00    -0.070 C 
BRANCH   5   9
ATOM      7  C   LIG    1       -2.315  -4.263   0.001  0.00  0.00    +0.120 A 
ATOM      8  C   LIG    1       -2.339  -2.883   0.009  0.00  0.00    -0.020 A 
ATOM      9  C   LIG    1       -1.138  -2.165   0.001  0.00  0.00    -0.030 A 
ATOM     10  C   LIG    1        0.082  -2.850  -0.020  0.00  0.00    +0.030 A 
ATOM     11  C   LIG    1        0.098  -4.228  -0.022  0.00  0.00    -0.020 A 
ATOM     12 CL   LIG    1        1.612  -5.077  -0.042  0.00  0.00    -0.040 Cl
ATOM     13  C   LIG    1       -1.095  -4.940  -0.015  0.00  0.00    +0.080 A 
BRANCH   7  15
ATOM     14  C   LIG    1       -4.692  -4.207   0.024  0.00  0.00    +0.250 C 
ATOM     15  O   LIG    1       -3.480  -4.964   0.008  0.00  0.00    -0.300 OA
ENDBRANCH   7  15
BRANCH  13  16
ATOM     16  O   LIG    1       -1.074  -6.298  -0.022  0.00  0.00    -0.320 OA
ATOM     17  C   LIG    1       -1.077  -6.940  -1.298  0.00  0.00    +0.230 C 
ENDBRANCH  13  16
ENDBRANCH   5   9
ENDBRANCH   1   6
BRANCH   2  18
ATOM     18  C   LIG    1        1.120   3.613   0.011  0.00  0.00    +0.310 C 
BRANCH  18  19
ATOM     19  C   LIG    1        2.556   4.142  -0.000  0.00  0.00    +0.130 C 
ATOM     20  C   LIG    1        2.541   5.677   0.008  0.00  0.00    +0.240 C 
ATOM     21  O   LIG    1        3.897   6.138   0.011  0.00  0.00    -0.300 OA
ATOM     22  C   LIG    1        4.747   5.534   0.885  0.00  0.00    +0.050 A 
ATOM     23  C   LIG    1        5.949   6.148   1.201  0.00  0.00    +0.030 A 
ATOM     24  C   LIG    1        6.824   5.544   2.084  0.00  0.00    +0.020 A 
ATOM     25  C   LIG    1        6.504   4.327   2.655  0.00  0.00    +0.020 A 
ATOM     26  C   LIG    1        5.306   3.710   2.346  0.00  0.00    +0.030 A 
ATOM     27  C   LIG    1        4.423   4.311   1.462  0.00  0.00    +0.050 A 
ATOM     28  O   LIG    1        3.245   3.694   1.172  0.00  0.00    -0.300 OA
ENDBRANCH  18  19
ENDBRANCH   2  18
TORSDOF 6
