REMARK  Name = ZINCpk00000eaUnN.0
REMARK                            x       y       z     vdW  Elec       q    Type
REMARK                         _______ _______ _______ _____ _____    ______ ____
ROOT
ATOM      1  C   LIG    1       -0.010   1.453   0.001  0.00  0.00    +0.250 C 
ATOM      2  C   LIG    1       -0.752   1.961  -1.237  0.00  0.00    +0.010 C 
ATOM      3  C   LIG    1       -0.805   3.492  -1.204  0.00  0.00    +0.270 C 
ATOM      4  N   LIG    1        0.563   4.009  -1.066  0.00  0.00    -0.620 N 
ATOM      5  C   LIG    1        1.396   3.518   0.040  0.00  0.00    +0.320 C 
ATOM      6  C   LIG    1        1.044   4.918  -1.937  0.00  0.00    +0.720 C 
ATOM      7  N   LIG    1        0.307   5.285  -3.004  0.00  0.00    -0.660 N 
ATOM      8  H   LIG    1       -0.598   4.953  -3.105  0.00  0.00    +0.400 HD
ATOM      9  O   LIG    1        2.143   5.407  -1.760  0.00  0.00    -0.550 OA
ATOM     10  C   LIG    1        1.425   1.987  -0.007  0.00  0.00    +0.020 C 
ENDROOT
BRANCH   7  11
ATOM     11  C   LIG    1        0.847   6.142  -3.963  0.00  0.00    +0.320 A 
ATOM     12  C   LIG    1        2.097   6.680  -3.949  0.00  0.00    -0.100 A 
ATOM     13  C   LIG    1        2.234   7.477  -5.089  0.00  0.00    +0.090 A 
ATOM     14  N   LIG    1        1.115   7.423  -5.764  0.00  0.00    -0.290 NA
ATOM     15  C   LIG    1        3.460   8.264  -5.474  0.00  0.00    +0.160 C 
ATOM     16  N   LIG    1        0.226   6.585  -5.080  0.00  0.00    -0.390 N 
ATOM     17  C   LIG    1       -1.137   6.249  -5.499  0.00  0.00    +0.360 C 
ENDBRANCH   7  11
BRANCH   1  19
ATOM     18  C   LIG    1       -1.028  -0.706   0.487  0.00  0.00    +0.610 C 
ATOM     19  N   LIG    1        0.014  -0.011  -0.010  0.00  0.00    -0.710 N 
ATOM     20  H   LIG    1        0.780  -0.481  -0.376  0.00  0.00    +0.410 HD
ATOM     21  O   LIG    1       -1.988  -0.117   0.945  0.00  0.00    -0.510 OA
BRANCH  18  26
ATOM     22  C   LIG    1       -2.119  -5.628   1.008  0.00  0.00    +0.180 C 
ATOM     23  C   LIG    1       -1.456  -4.312   0.692  0.00  0.00    +0.010 A 
ATOM     24  N   LIG    1       -0.292  -4.141   0.136  0.00  0.00    -0.340 NA
ATOM     25  O   LIG    1       -0.020  -2.971   0.006  0.00  0.00    +0.120 OA
ATOM     26  C   LIG    1       -1.004  -2.181   0.475  0.00  0.00    -0.090 A 
ATOM     27  C   LIG    1       -1.975  -3.023   0.945  0.00  0.00    +0.050 A 
ENDBRANCH  18  26
ENDBRANCH   1  19
TORSDOF 3
