REMARK  Name = ZINCrg000000sUCb.1
REMARK                            x       y       z     vdW  Elec       q    Type
REMARK                         _______ _______ _______ _____ _____    ______ ____
ROOT
ATOM      1  C   LIG    1       -0.048   3.850   0.022  0.00  0.00    -0.090 A 
ATOM      2  C   LIG    1        1.165   3.161   0.007  0.00  0.00    -0.020 A 
ATOM      3  C   LIG    1        1.176   1.781   0.000  0.00  0.00    +0.050 A 
ATOM      4  C   LIG    1       -0.013   1.076   0.008  0.00  0.00    -0.040 A 
ATOM      5  C   LIG    1       -1.227   1.752   0.017  0.00  0.00    +0.190 A 
ATOM      6  C   LIG    1       -1.248   3.138   0.030  0.00  0.00    +0.020 A 
ENDROOT
BRANCH   1   9
ATOM      7  N   LIG    1        1.098   6.013   0.023  0.00  0.00    -0.730 N 
ATOM      8  H   LIG    1        1.943   5.536   0.013  0.00  0.00    +0.400 HD
ATOM      9  C   LIG    1       -0.062   5.328   0.030  0.00  0.00    +0.560 C 
ATOM     10  O   LIG    1       -1.121   5.926   0.043  0.00  0.00    -0.530 OA
BRANCH   7  11
ATOM     11  C   LIG    1        1.084   7.478   0.031  0.00  0.00    +0.290 C 
BRANCH  11  12
ATOM     12  C   LIG    1        2.522   8.002   0.021  0.00  0.00    +0.040 C 
BRANCH  12  16
ATOM     13  N   LIG    1        3.668  10.194   0.022  0.00  0.00    -0.860 N 
ATOM     14  H   LIG    1        3.659  11.164   0.028  0.00  0.00    +0.400 HD
ATOM     15  H   LIG    1        4.513   9.717   0.012  0.00  0.00    +0.400 HD
ATOM     16  C   LIG    1        2.508   9.509   0.029  0.00  0.00    +0.520 C 
ATOM     17  O   LIG    1        1.452  10.105   0.042  0.00  0.00    -0.540 OA
ENDBRANCH  12  16
ENDBRANCH  11  12
ENDBRANCH   7  11
ENDBRANCH   1   9
BRANCH   5  18
ATOM     18  N   LIG    1       -2.426   1.035   0.020  0.00  0.00    -0.750 N 
ATOM     19  H   LIG    1       -3.274   1.507   0.026  0.00  0.00    +0.410 HD
BRANCH  18  20
ATOM     20  C   LIG    1       -2.404  -0.430   0.012  0.00  0.00    +0.420 C 
BRANCH  20  21
ATOM     21  C   LIG    1       -2.279  -0.923  -1.406  0.00  0.00    +0.160 A 
ATOM     22  N   LIG    1       -2.320  -2.167  -1.799  0.00  0.00    -0.280 NA
ATOM     23  N   LIG    1       -2.182  -2.222  -3.077  0.00  0.00    -0.290 NA
ATOM     24  C   LIG    1       -2.047  -1.016  -3.557  0.00  0.00    +0.380 A 
ATOM     25  N   LIG    1       -2.109  -0.157  -2.511  0.00  0.00    -0.570 N 
ATOM     26  H   LIG    1       -2.044   0.810  -2.546  0.00  0.00    +0.430 HD
ENDBRANCH  20  21
BRANCH  20  27
ATOM     27  C   LIG    1       -3.680  -0.955   0.616  0.00  0.00    -0.150 A 
ATOM     28  C   LIG    1       -3.658  -2.060   1.453  0.00  0.00    +0.100 A 
ATOM     29  C   LIG    1       -4.857  -2.505   1.991  0.00  0.00    -0.030 A 
ATOM     30  C   LIG    1       -6.026  -1.844   1.667  0.00  0.00    +0.270 A 
ATOM     31  N   LIG    1       -6.010  -0.799   0.863  0.00  0.00    -0.480 NA
ATOM     32  C   LIG    1       -4.889  -0.344   0.338  0.00  0.00    +0.260 A 
ENDBRANCH  20  27
ENDBRANCH  18  20
ENDBRANCH   5  18
TORSDOF 8
