REMARK  Name = ZINCrg000000sUCb.0
REMARK                            x       y       z     vdW  Elec       q    Type
REMARK                         _______ _______ _______ _____ _____    ______ ____
ROOT
ATOM      1  C   LIG    1       -1.240   3.143   0.030  0.00  0.00    -0.090 A 
ATOM      2  C   LIG    1       -1.218   1.747   0.017  0.00  0.00    -0.020 A 
ATOM      3  C   LIG    1       -0.013   1.076   0.008  0.00  0.00    +0.050 A 
ATOM      4  C   LIG    1        1.176   1.781   0.000  0.00  0.00    -0.050 A 
ATOM      5  C   LIG    1        1.165   3.171   0.007  0.00  0.00    +0.210 A 
ATOM      6  C   LIG    1       -0.041   3.854   0.022  0.00  0.00    +0.010 A 
ENDROOT
BRANCH   1   9
ATOM      7  N   LIG    1       -3.689   3.175   0.053  0.00  0.00    -0.730 N 
ATOM      8  H   LIG    1       -3.675   2.205   0.048  0.00  0.00    +0.400 HD
ATOM      9  C   LIG    1       -2.531   3.864   0.046  0.00  0.00    +0.560 C 
ATOM     10  O   LIG    1       -2.547   5.080   0.052  0.00  0.00    -0.530 OA
BRANCH   7  11
ATOM     11  C   LIG    1       -4.967   3.889   0.069  0.00  0.00    +0.290 C 
BRANCH  11  12
ATOM     12  C   LIG    1       -6.116   2.879   0.074  0.00  0.00    +0.040 C 
BRANCH  12  16
ATOM     13  N   LIG    1       -8.589   2.925   0.098  0.00  0.00    -0.860 N 
ATOM     14  H   LIG    1       -9.436   3.398   0.108  0.00  0.00    +0.400 HD
ATOM     15  H   LIG    1       -8.576   1.955   0.092  0.00  0.00    +0.400 HD
ATOM     16  C   LIG    1       -7.432   3.615   0.090  0.00  0.00    +0.520 C 
ATOM     17  O   LIG    1       -7.448   4.827   0.097  0.00  0.00    -0.540 OA
ENDBRANCH  12  16
ENDBRANCH  11  12
ENDBRANCH   7  11
ENDBRANCH   1   9
BRANCH   5  18
ATOM     18  N   LIG    1        2.370   3.879   0.000  0.00  0.00    -0.730 N 
ATOM     19  H   LIG    1        2.362   4.849   0.005  0.00  0.00    +0.410 HD
BRANCH  18  20
ATOM     20  C   LIG    1        3.644   3.156  -0.015  0.00  0.00    +0.410 C 
BRANCH  20  21
ATOM     21  C   LIG    1        4.033   2.794   1.395  0.00  0.00    +0.210 A 
ATOM     22  N   LIG    1        4.484   1.630   1.784  0.00  0.00    -0.310 NA
ATOM     23  N   LIG    1        4.719   1.726   3.165  0.00  0.00    -0.480 N 
ATOM     24  H   LIG    1        5.057   1.028   3.747  0.00  0.00    +0.440 HD
ATOM     25  C   LIG    1        4.383   2.978   3.520  0.00  0.00    +0.480 A 
ATOM     26  N   LIG    1        3.978   3.609   2.448  0.00  0.00    -0.530 NA
ENDBRANCH  20  21
BRANCH  20  27
ATOM     27  C   LIG    1        4.711   4.032  -0.621  0.00  0.00    -0.150 A 
ATOM     28  C   LIG    1        5.657   3.494  -1.479  0.00  0.00    +0.090 A 
ATOM     29  C   LIG    1        6.619   4.337  -2.013  0.00  0.00    -0.030 A 
ATOM     30  C   LIG    1        6.604   5.677  -1.674  0.00  0.00    +0.270 A 
ATOM     31  N   LIG    1        5.688   6.154  -0.854  0.00  0.00    -0.480 NA
ATOM     32  C   LIG    1        4.755   5.383  -0.332  0.00  0.00    +0.290 A 
ENDBRANCH  20  27
ENDBRANCH  18  20
ENDBRANCH   5  18
TORSDOF 8
