REMARK  Name = ZINCkj000005hre6.1
REMARK                            x       y       z     vdW  Elec       q    Type
REMARK                         _______ _______ _______ _____ _____    ______ ____
ROOT
ATOM      1  C   LIG    1        3.725  -0.688  -0.027  0.00  0.00    +0.300 C 
ATOM      2  C   LIG    1        3.537  -2.150  -0.432  0.00  0.00    +0.280 C 
ATOM      3  N   LIG    1        2.469  -2.733   0.394  0.00  0.00    -0.380 N 
ATOM      4  C   LIG    1        1.179  -2.191  -0.043  0.00  0.00    +0.330 C 
ATOM      5  C   LIG    1        1.207  -0.685  -0.035  0.00  0.00    -0.130 A 
ATOM      6  C   LIG    1        0.001   0.000  -0.034  0.00  0.00    +0.040 A 
ATOM      7  C   LIG    1       -0.016   1.381  -0.035  0.00  0.00    +0.040 A 
ATOM      8  C   LIG    1        1.173   2.085  -0.037  0.00  0.00    +0.040 A 
ATOM      9  C   LIG    1        2.375   1.404  -0.037  0.00  0.00    +0.050 A 
ATOM     10  C   LIG    1        2.467  -4.193   0.236  0.00  0.00    +0.340 C 
ATOM     11  H   LIG    1        2.624  -2.497   1.362  0.00  0.00    +0.430 HD
ATOM     12  C   LIG    1        2.393   0.018  -0.034  0.00  0.00    -0.120 A 
ENDROOT
BRANCH   1  14
ATOM     13  C   LIG    1        5.343   1.045  -0.589  0.00  0.00    +0.610 C 
ATOM     14  N   LIG    1        4.629  -0.031  -0.974  0.00  0.00    -0.710 N 
ATOM     15  H   LIG    1        4.715  -0.372  -1.878  0.00  0.00    +0.410 HD
ATOM     16  O   LIG    1        5.178   1.519   0.519  0.00  0.00    -0.520 OA
BRANCH  13  22
ATOM     17  C   LIG    1        7.274   3.377   0.045  0.00  0.00    +0.370 C 
ATOM     18  N   LIG    1        7.177   2.676  -1.238  0.00  0.00    -0.250 N 
ATOM     19  N   LIG    1        7.886   2.934  -2.277  0.00  0.00    -0.260 NA
ATOM     20  C   LIG    1        7.565   2.143  -3.269  0.00  0.00    +0.190 A 
ATOM     21  C   LIG    1        6.553   1.288  -2.826  0.00  0.00    -0.020 A 
ATOM     22  C   LIG    1        6.321   1.647  -1.509  0.00  0.00    -0.060 A 
ENDBRANCH  13  22
ENDBRANCH   1  14
TORSDOF 2
