REMARK  Name = ZINCkj000005hre6.2
REMARK                            x       y       z     vdW  Elec       q    Type
REMARK                         _______ _______ _______ _____ _____    ______ ____
ROOT
ATOM      1  C   LIG    1       -2.586   3.843   0.046  0.00  0.00    +0.310 C 
ATOM      2  C   LIG    1       -2.404   5.304   0.459  0.00  0.00    +0.290 C 
ATOM      3  N   LIG    1       -1.351   5.901  -0.376  0.00  0.00    -0.390 N 
ATOM      4  C   LIG    1       -0.051   5.366   0.041  0.00  0.00    +0.320 C 
ATOM      5  C   LIG    1       -0.068   3.861   0.025  0.00  0.00    -0.120 A 
ATOM      6  C   LIG    1        1.143   3.185   0.006  0.00  0.00    +0.040 A 
ATOM      7  C   LIG    1        1.171   1.804  -0.005  0.00  0.00    +0.050 A 
ATOM      8  C   LIG    1       -0.013   1.091   0.003  0.00  0.00    +0.040 A 
ATOM      9  C   LIG    1       -1.219   1.763   0.015  0.00  0.00    +0.070 A 
ATOM     10  C   LIG    1       -1.358   7.360  -0.210  0.00  0.00    +0.340 C 
ATOM     11  H   LIG    1       -1.516   5.669  -1.344  0.00  0.00    +0.420 HD
ATOM     12  C   LIG    1       -1.248   3.148   0.031  0.00  0.00    -0.120 A 
ENDROOT
BRANCH   1  14
ATOM     13  C   LIG    1       -3.886   2.701  -1.668  0.00  0.00    +0.610 C 
ATOM     14  N   LIG    1       -3.180   3.785  -1.291  0.00  0.00    -0.730 N 
ATOM     15  H   LIG    1       -3.066   4.527  -1.905  0.00  0.00    +0.400 HD
ATOM     16  O   LIG    1       -3.959   1.736  -0.931  0.00  0.00    -0.520 OA
BRANCH  13  22
ATOM     17  C   LIG    1       -5.741   0.472  -2.746  0.00  0.00    +0.380 C 
ATOM     18  N   LIG    1       -5.389   1.704  -3.455  0.00  0.00    -0.250 N 
ATOM     19  N   LIG    1       -5.807   2.031  -4.625  0.00  0.00    -0.260 NA
ATOM     20  C   LIG    1       -5.315   3.186  -4.992  0.00  0.00    +0.190 A 
ATOM     21  C   LIG    1       -4.504   3.655  -3.956  0.00  0.00    -0.030 A 
ATOM     22  C   LIG    1       -4.569   2.684  -2.972  0.00  0.00    -0.060 A 
ENDBRANCH  13  22
ENDBRANCH   1  14
TORSDOF 2
