REMARK  Name = ZINCtV00001bB3Dq.0
REMARK                            x       y       z     vdW  Elec       q    Type
REMARK                         _______ _______ _______ _____ _____    ______ ____
ROOT
ATOM      1  C   LIG    1        3.746   1.709   0.010  0.00  0.00    -0.190 A 
ATOM      2  C   LIG    1        4.920   0.942  -0.057  0.00  0.00    +0.060 A 
ATOM      3  C   LIG    1        6.157   1.632  -0.093  0.00  0.00    -0.100 A 
ATOM      4  C   LIG    1        7.373   0.939  -0.161  0.00  0.00    +0.040 A 
ATOM      5  C   LIG    1        8.545   1.636  -0.194  0.00  0.00    +0.010 A 
ATOM      6  C   LIG    1        8.547   3.028  -0.161  0.00  0.00    +0.040 A 
ATOM      7  C   LIG    1        7.382   3.731  -0.095  0.00  0.00    +0.040 A 
ATOM      8  C   LIG    1        6.155   3.048  -0.059  0.00  0.00    +0.140 A 
ATOM      9  N   LIG    1        4.998   3.720   0.005  0.00  0.00    -0.470 NA
ATOM     10  C   LIG    1        3.842   3.110   0.033  0.00  0.00    +0.190 A 
ATOM     11  C   LIG    1        2.580   3.931   0.098  0.00  0.00    +0.140 C 
ENDROOT
BRANCH   2  12
ATOM     12  C   LIG    1        4.867  -0.535  -0.090  0.00  0.00    -0.070 A 
ATOM     13  C   LIG    1        4.384  -1.244   1.012  0.00  0.00    +0.040 A 
ATOM     14  C   LIG    1        4.333  -2.622   0.973  0.00  0.00    +0.010 A 
ATOM     15  C   LIG    1        4.769  -3.302  -0.151  0.00  0.00    +0.020 A 
ATOM     16  C   LIG    1        5.255  -2.606  -1.244  0.00  0.00    +0.010 A 
ATOM     17  C   LIG    1        5.306  -1.228  -1.220  0.00  0.00    +0.040 A 
ENDBRANCH   2  12
BRANCH   1  18
ATOM     18  C   LIG    1        2.426   1.051   0.050  0.00  0.00    +0.440 C 
ATOM     19  O   LIG    1        1.881   0.844   1.119  0.00  0.00    -0.440 OA
BRANCH  18  21
ATOM     20  C   LIG    1        0.618  -0.052  -1.155  0.00  0.00    +0.130 C 
ATOM     21  C   LIG    1        1.773   0.646  -1.195  0.00  0.00    -0.090 C 
BRANCH  20  26
ATOM     22  C   LIG    1       -1.838  -1.576  -3.552  0.00  0.00    +0.130 A 
ATOM     23  C   LIG    1       -1.265  -1.238  -4.771  0.00  0.00    -0.060 A 
ATOM     24  C   LIG    1       -0.084  -0.517  -4.811  0.00  0.00    +0.050 A 
ATOM     25  C   LIG    1        0.532  -0.129  -3.640  0.00  0.00    +0.000 A 
ATOM     26  C   LIG    1       -0.036  -0.464  -2.407  0.00  0.00    -0.040 A 
ATOM     27  C   LIG    1       -1.226  -1.197  -2.369  0.00  0.00    +0.010 A 
BRANCH  22  29
ATOM     28  C   LIG    1       -3.570  -2.648  -4.777  0.00  0.00    +0.250 C 
ATOM     29  O   LIG    1       -2.997  -2.285  -3.520  0.00  0.00    -0.320 OA
ENDBRANCH  22  29
ENDBRANCH  20  26
ENDBRANCH  18  21
ENDBRANCH   1  18
TORSDOF 5
