REMARK  Name = ZINCqH0000005gsJ.0
REMARK                            x       y       z     vdW  Elec       q    Type
REMARK                         _______ _______ _______ _____ _____    ______ ____
ROOT
ATOM      1  C   LIG    1       -0.709   8.066  -0.110  0.00  0.00    +0.110 A 
ATOM      2  N   LIG    1        0.562   8.000   0.217  0.00  0.00    -0.280 NA
ATOM      3  N   LIG    1        0.931   6.772   0.307  0.00  0.00    -0.260 NA
ATOM      4  C   LIG    1       -0.079   5.979   0.034  0.00  0.00    +0.260 A 
ATOM      5  N   LIG    1       -1.162   6.784  -0.237  0.00  0.00    -0.300 N 
ENDROOT
BRANCH   4   6
ATOM      6  C   LIG    1       -0.059   4.501   0.027  0.00  0.00    -0.020 A 
ATOM      7  C   LIG    1        1.157   3.817   0.011  0.00  0.00    +0.090 A 
ATOM      8  C   LIG    1        1.170   2.438   0.004  0.00  0.00    +0.030 A 
ATOM      9  C   LIG    1       -0.021   1.732   0.012  0.00  0.00    -0.020 A 
ATOM     10  C   LIG    1       -1.232   2.405   0.021  0.00  0.00    +0.030 A 
ATOM     11 CL   LIG    1        0.002  -0.004   0.002  0.00  0.00    -0.060 Cl
ATOM     12  C   LIG    1       -1.257   3.784   0.034  0.00  0.00    +0.080 A 
ENDBRANCH   4   6
BRANCH   5  13
ATOM     13  N   LIG    1       -2.426   6.383  -0.566  0.00  0.00    -0.580 N 
ATOM     14  H   LIG    1       -2.852   7.029  -1.214  0.00  0.00    +0.380 HD
ATOM     15  H   LIG    1       -2.995   6.270   0.259  0.00  0.00    +0.370 HD
ENDBRANCH   5  13
BRANCH   1  16
ATOM     16  S   LIG    1       -1.653   9.536  -0.341  0.00  0.00    +0.080 S 
BRANCH  16  17
ATOM     17  C   LIG    1       -0.384  10.781  -0.003  0.00  0.00    +0.120 C 
BRANCH  17  20
ATOM     18  C   LIG    1        1.195  13.095   0.424  0.00  0.00    +0.300 C 
ATOM     19  N   LIG    1       -0.216  13.248   0.062  0.00  0.00    -0.600 N 
ATOM     20  C   LIG    1       -0.981  12.158  -0.145  0.00  0.00    +0.530 C 
ATOM     21  O   LIG    1       -2.149  12.284  -0.445  0.00  0.00    -0.520 OA
BRANCH  19  22
ATOM     22  C   LIG    1       -0.796  14.586  -0.077  0.00  0.00    +0.400 C 
BRANCH  22  23
ATOM     23  C   LIG    1       -1.350  15.033   1.252  0.00  0.00    -0.210 A 
ATOM     24  C   LIG    1       -0.667  15.700   2.183  0.00  0.00    +0.040 A 
ATOM     25  C   LIG    1       -1.388  16.009   3.325  0.00  0.00    +0.030 A 
ATOM     26  C   LIG    1       -2.653  15.583   3.324  0.00  0.00    -0.150 A 
ATOM     27 CL   LIG    1       -3.789  15.817   4.615  0.00  0.00    -0.010 Cl
ATOM     28  S   LIG    1       -2.992  14.749   1.813  0.00  0.00    +0.190 S 
ENDBRANCH  22  23
ENDBRANCH  19  22
ENDBRANCH  17  20
ENDBRANCH  16  17
ENDBRANCH   1  16
TORSDOF 7
