REMARK  Name = ZINCrH000004pHSp.0
REMARK                            x       y       z     vdW  Elec       q    Type
REMARK                         _______ _______ _______ _____ _____    ______ ____
ROOT
ATOM      1  C   LIG    1        0.498   0.332   0.137  0.00  0.00    +0.080 C 
ATOM      2  C   LIG    1        0.321   1.849   0.042  0.00  0.00    +0.030 C 
ATOM      3  C   LIG    1       -0.531   2.181  -1.173  0.00  0.00    +0.030 C 
ATOM      4  C   LIG    1       -0.571   3.637  -1.556  0.00  0.00    +0.300 C 
ATOM      5  N   LIG    1       -1.267   4.432  -0.531  0.00  0.00    -0.570 N 
ATOM      6  C   LIG    1       -0.514   4.969   0.516  0.00  0.00    +0.160 A 
ATOM      7  C   LIG    1       -0.215   6.327   0.520  0.00  0.00    +0.010 A 
ATOM      8  C   LIG    1        0.587   6.853   1.516  0.00  0.00    +0.040 A 
ATOM      9  C   LIG    1        1.094   6.044   2.517  0.00  0.00    +0.010 A 
ATOM     10  C   LIG    1        0.783   4.694   2.537  0.00  0.00    +0.080 A 
ATOM     11  C   LIG    1       -0.025   4.175   1.546  0.00  0.00    -0.110 A 
ATOM     12  C   LIG    1       -2.597   4.638  -0.603  0.00  0.00    +0.580 C 
ATOM     13  O   LIG    1       -3.222   4.250  -1.571  0.00  0.00    -0.510 OA
ATOM     14  S   LIG    1       -0.482   2.456   1.553  0.00  0.00    -0.150 S 
ENDROOT
BRANCH  12  15
ATOM     15  C   LIG    1       -3.297   5.337   0.497  0.00  0.00    -0.090 A 
ATOM     16  C   LIG    1       -2.854   5.192   1.812  0.00  0.00    +0.030 A 
ATOM     17  C   LIG    1       -3.509   5.845   2.837  0.00  0.00    +0.040 A 
ATOM     18  C   LIG    1       -4.604   6.644   2.565  0.00  0.00    +0.000 A 
ATOM     19  C   LIG    1       -5.053   6.794   1.258  0.00  0.00    +0.200 A 
ATOM     20  C   LIG    1       -4.399   6.147   0.222  0.00  0.00    +0.020 A 
BRANCH  19  21
ATOM     21  N   LIG    1       -6.161   7.602   0.989  0.00  0.00    -0.930 N 
ATOM     22  C   LIG    1       -6.639   8.725   1.810  0.00  0.00    +0.260 C 
ATOM     23  C   LIG    1       -8.163   8.888   1.647  0.00  0.00    +0.090 C 
ATOM     24  C   LIG    1       -8.400   8.774   0.113  0.00  0.00    -0.290 C 
ATOM     25  S   LIG    1       -7.181   7.475  -0.327  0.00  0.00    +2.560 S 
ATOM     26  O   LIG    1       -7.753   6.179  -0.229  0.00  0.00    -0.940 OA
ATOM     27  O   LIG    1       -6.393   7.863  -1.445  0.00  0.00    -0.940 OA
ENDBRANCH  19  21
ENDBRANCH  12  15
TORSDOF 2
