REMARK  Name = ZINCbw0000001gW3.0
REMARK                            x       y       z     vdW  Elec       q    Type
REMARK                         _______ _______ _______ _____ _____    ______ ____
ROOT
ATOM      1  F   LIG    1       -3.720   4.236   0.264  0.00  0.00    -0.120 F 
ATOM      2  C   LIG    1       -2.968   3.280   0.853  0.00  0.00    +0.130 A 
ATOM      3  C   LIG    1       -1.918   2.702   0.162  0.00  0.00    +0.020 A 
ATOM      4  C   LIG    1       -1.152   1.720   0.763  0.00  0.00    -0.040 A 
ATOM      5  C   LIG    1       -1.428   1.324   2.058  0.00  0.00    +0.040 A 
ATOM      6  C   LIG    1       -2.473   1.905   2.752  0.00  0.00    +0.090 A 
ATOM      7  C   LIG    1       -3.244   2.883   2.151  0.00  0.00    -0.130 A 
ATOM      8 BR   LIG    1       -4.674   3.677   3.100  0.00  0.00    -0.020 Br
ENDROOT
BRANCH   4   9
ATOM      9  C   LIG    1       -0.013   1.086   0.008  0.00  0.00    +0.170 C 
ATOM     10  C   LIG    1        1.331   1.817  -0.001  0.00  0.00    +0.210 C 
ATOM     11  O   LIG    1        0.481   1.765  -1.148  0.00  0.00    -0.340 OA
ENDBRANCH   4   9
TORSDOF 1
