REMARK  Name = ZINCpe00000gMw4G.2
REMARK                            x       y       z     vdW  Elec       q    Type
REMARK                         _______ _______ _______ _____ _____    ______ ____
ROOT
ATOM      1  C   LIG    1        1.248   1.716  -0.001  0.00  0.00    +0.410 C 
ENDROOT
BRANCH   1   2
ATOM      2  C   LIG    1        2.406   0.752  -0.017  0.00  0.00    +0.160 A 
ATOM      3  N   LIG    1        2.952   0.181   1.022  0.00  0.00    -0.260 NA
ATOM      4  N   LIG    1        3.916  -0.581   0.641  0.00  0.00    -0.250 NA
ATOM      5  C   LIG    1        4.028  -0.530  -0.658  0.00  0.00    +0.190 A 
ATOM      6  N   LIG    1        3.070   0.313  -1.113  0.00  0.00    -0.570 N 
ATOM      7  H   LIG    1        2.897   0.555  -2.036  0.00  0.00    +0.430 HD
BRANCH   5   8
ATOM      8  C   LIG    1        5.034  -1.275  -1.497  0.00  0.00    +0.210 C 
ATOM      9  C   LIG    1        6.245  -0.377  -1.763  0.00  0.00    +0.240 C 
ATOM     10  O   LIG    1        7.228  -1.114  -2.495  0.00  0.00    -0.380 OA
ATOM     11  C   LIG    1        7.678  -2.295  -1.826  0.00  0.00    +0.240 C 
ATOM     12  C   LIG    1        6.482  -3.213  -1.561  0.00  0.00    +0.170 C 
ATOM     13  N   LIG    1        5.473  -2.482  -0.780  0.00  0.00    -0.520 NA
ATOM     14  C   LIG    1        4.331  -3.346  -0.456  0.00  0.00    +0.200 C 
ENDBRANCH   5   8
ENDBRANCH   1   2
BRANCH   1  16
ATOM     15  C   LIG    1       -1.187   1.624   0.017  0.00  0.00    +0.570 C 
ATOM     16  N   LIG    1       -0.011   0.966   0.007  0.00  0.00    -0.720 N 
ATOM     17  H   LIG    1        0.002  -0.004   0.002  0.00  0.00    +0.400 HD
ATOM     18  O   LIG    1       -1.204   2.839   0.023  0.00  0.00    -0.530 OA
BRANCH  15  21
ATOM     19  C   LIG    1       -4.861   0.834   0.030  0.00  0.00    +0.090 A 
ATOM     20  C   LIG    1       -3.676   1.547   0.034  0.00  0.00    +0.030 A 
ATOM     21  C   LIG    1       -2.457   0.868   0.018  0.00  0.00    -0.110 A 
ATOM     22  C   LIG    1       -2.440  -0.528   0.011  0.00  0.00    +0.050 A 
ATOM     23  C   LIG    1       -3.626  -1.232   0.013  0.00  0.00    +0.030 A 
ATOM     24  C   LIG    1       -4.836  -0.557   0.023  0.00  0.00    +0.100 A 
ATOM     25  F   LIG    1       -5.995  -1.252   0.025  0.00  0.00    -0.120 F 
BRANCH  19  27
ATOM     26  C   LIG    1       -6.002   2.920   0.046  0.00  0.00    +0.250 C 
ATOM     27  O   LIG    1       -6.051   1.492   0.039  0.00  0.00    -0.310 OA
ENDBRANCH  19  27
ENDBRANCH  15  21
ENDBRANCH   1  16
TORSDOF 5
