REMARK  Name = ZINCpe00000gMw4G.0
REMARK                            x       y       z     vdW  Elec       q    Type
REMARK                         _______ _______ _______ _____ _____    ______ ____
ROOT
ATOM      1  C   LIG    1       -0.018   1.503   0.010  0.00  0.00    +0.410 C 
ENDROOT
BRANCH   1   2
ATOM      2  C   LIG    1        0.002  -0.004   0.002  0.00  0.00    +0.260 A 
ATOM      3  N   LIG    1        0.889  -0.764   0.593  0.00  0.00    -0.510 NA
ATOM      4  C   LIG    1        0.598  -2.046   0.380  0.00  0.00    +0.230 A 
ATOM      5  N   LIG    1       -0.477  -2.121  -0.359  0.00  0.00    -0.270 NA
ATOM      6  N   LIG    1       -0.884  -0.802  -0.618  0.00  0.00    -0.470 N 
ATOM      7  H   LIG    1       -1.652  -0.523  -1.141  0.00  0.00    +0.450 HD
BRANCH   4   8
ATOM      8  C   LIG    1        1.385  -3.221   0.902  0.00  0.00    +0.220 C 
ATOM      9  C   LIG    1        0.625  -3.873   2.060  0.00  0.00    +0.250 C 
ATOM     10  O   LIG    1        1.339  -5.031   2.500  0.00  0.00    -0.380 OA
ATOM     11  C   LIG    1        1.535  -6.011   1.478  0.00  0.00    +0.220 C 
ATOM     12  C   LIG    1        2.305  -5.380   0.315  0.00  0.00    +0.160 C 
ATOM     13  N   LIG    1        1.569  -4.206  -0.174  0.00  0.00    -0.530 NA
ATOM     14  C   LIG    1        2.247  -3.603  -1.330  0.00  0.00    +0.200 C 
ENDBRANCH   4   8
ENDBRANCH   1   2
BRANCH   1  16
ATOM     15  C   LIG    1       -0.843   3.297   1.437  0.00  0.00    +0.570 C 
ATOM     16  N   LIG    1       -0.704   1.975   1.216  0.00  0.00    -0.720 N 
ATOM     17  H   LIG    1       -1.058   1.337   1.854  0.00  0.00    +0.410 HD
ATOM     18  O   LIG    1       -0.400   4.098   0.637  0.00  0.00    -0.520 OA
BRANCH  15  21
ATOM     19  C   LIG    1       -2.328   5.583   4.024  0.00  0.00    +0.090 A 
ATOM     20  C   LIG    1       -1.675   5.143   2.888  0.00  0.00    +0.030 A 
ATOM     21  C   LIG    1       -1.535   3.774   2.653  0.00  0.00    -0.110 A 
ATOM     22  C   LIG    1       -2.045   2.856   3.573  0.00  0.00    +0.050 A 
ATOM     23  C   LIG    1       -2.690   3.304   4.707  0.00  0.00    +0.030 A 
ATOM     24  C   LIG    1       -2.833   4.662   4.937  0.00  0.00    +0.100 A 
ATOM     25  F   LIG    1       -3.465   5.094   6.050  0.00  0.00    -0.120 F 
BRANCH  19  27
ATOM     26  C   LIG    1       -1.928   7.804   3.275  0.00  0.00    +0.250 C 
ATOM     27  O   LIG    1       -2.471   6.915   4.253  0.00  0.00    -0.310 OA
ENDBRANCH  19  27
ENDBRANCH  15  21
ENDBRANCH   1  16
TORSDOF 5
