REMARK  Name = ZINCpe00000gMw4G.1
REMARK                            x       y       z     vdW  Elec       q    Type
REMARK                         _______ _______ _______ _____ _____    ______ ____
ROOT
ATOM      1  C   LIG    1       -3.741   2.145   0.032  0.00  0.00    +0.420 C 
ENDROOT
BRANCH   1   2
ATOM      2  C   LIG    1       -4.875   1.152   0.032  0.00  0.00    +0.200 A 
ATOM      3  N   LIG    1       -5.442   0.646   1.095  0.00  0.00    -0.280 NA
ATOM      4  N   LIG    1       -6.445  -0.227   0.644  0.00  0.00    -0.470 N 
ATOM      5  H   LIG    1       -7.044  -0.757   1.193  0.00  0.00    +0.440 HD
ATOM      6  C   LIG    1       -6.409  -0.183  -0.699  0.00  0.00    +0.290 A 
ATOM      7  N   LIG    1       -5.466   0.652  -1.053  0.00  0.00    -0.490 NA
BRANCH   6   8
ATOM      8  C   LIG    1       -7.302  -0.958  -1.634  0.00  0.00    +0.210 C 
ATOM      9  C   LIG    1       -8.611  -0.191  -1.842  0.00  0.00    +0.240 C 
ATOM     10  O   LIG    1       -9.423  -0.892  -2.788  0.00  0.00    -0.380 OA
ATOM     11  C   LIG    1       -8.797  -1.074  -4.061  0.00  0.00    +0.240 C 
ATOM     12  C   LIG    1       -7.490  -1.850  -3.875  0.00  0.00    +0.170 C 
ATOM     13  N   LIG    1       -6.628  -1.127  -2.929  0.00  0.00    -0.520 NA
ATOM     14  C   LIG    1       -5.338  -1.810  -2.766  0.00  0.00    +0.200 C 
ENDBRANCH   6   8
ENDBRANCH   1   2
BRANCH   1  16
ATOM     15  C   LIG    1       -1.305   2.115   0.020  0.00  0.00    +0.570 C 
ATOM     16  N   LIG    1       -2.464   1.427   0.021  0.00  0.00    -0.720 N 
ATOM     17  H   LIG    1       -2.453   0.458   0.016  0.00  0.00    +0.400 HD
ATOM     18  O   LIG    1       -1.319   3.331   0.026  0.00  0.00    -0.530 OA
BRANCH  15  21
ATOM     19  C   LIG    1        2.388   1.419  -0.013  0.00  0.00    +0.090 A 
ATOM     20  C   LIG    1        1.185   2.102   0.002  0.00  0.00    +0.030 A 
ATOM     21  C   LIG    1       -0.017   1.392   0.010  0.00  0.00    -0.110 A 
ATOM     22  C   LIG    1        0.002  -0.004   0.002  0.00  0.00    +0.050 A 
ATOM     23  C   LIG    1        1.206  -0.677  -0.013  0.00  0.00    +0.030 A 
ATOM     24  C   LIG    1        2.398   0.028  -0.021  0.00  0.00    +0.100 A 
ATOM     25  F   LIG    1        3.574  -0.636  -0.035  0.00  0.00    -0.120 F 
BRANCH  19  27
ATOM     26  C   LIG    1        3.475   3.534  -0.013  0.00  0.00    +0.250 C 
ATOM     27  O   LIG    1        3.560   2.108  -0.021  0.00  0.00    -0.310 OA
ENDBRANCH  19  27
ENDBRANCH  15  21
ENDBRANCH   1  16
TORSDOF 5
