REMARK  Name = ZINCrD0000072Vk7.0
REMARK                            x       y       z     vdW  Elec       q    Type
REMARK                         _______ _______ _______ _____ _____    ______ ____
ROOT
ATOM      1  N   LIG    1       -7.182   3.063   0.046  0.00  0.00    -0.670 N 
ATOM      2  H   LIG    1       -7.487   2.143   0.091  0.00  0.00    +0.420 HD
ATOM      3  C   LIG    1       -5.873   3.331  -0.128  0.00  0.00    +0.520 C 
ATOM      4  O   LIG    1       -5.503   4.476  -0.281  0.00  0.00    -0.480 OA
ENDROOT
BRANCH   1   8
ATOM      5  C   LIG    1       -9.919   6.184   0.389  0.00  0.00    -0.140 A 
ATOM      6  C   LIG    1      -10.295   4.987  -0.227  0.00  0.00    +0.110 A 
ATOM      7  C   LIG    1       -9.388   3.957  -0.338  0.00  0.00    -0.020 A 
ATOM      8  C   LIG    1       -8.098   4.107   0.161  0.00  0.00    +0.190 A 
ATOM      9  C   LIG    1       -7.722   5.296   0.779  0.00  0.00    +0.000 A 
ATOM     10  C   LIG    1       -8.622   6.331   0.889  0.00  0.00    +0.100 A 
BRANCH   5  11
ATOM     11  C   LIG    1      -10.888   7.289   0.511  0.00  0.00    +0.510 C 
ATOM     12  O   LIG    1      -12.015   7.159   0.076  0.00  0.00    -0.510 OA
BRANCH  11  14
ATOM     13  C   LIG    1      -11.529   9.486   1.190  0.00  0.00    +0.260 C 
ATOM     14  O   LIG    1      -10.524   8.442   1.105  0.00  0.00    -0.360 OA
ENDBRANCH  11  14
ENDBRANCH   5  11
ENDBRANCH   1   8
BRANCH   3  15
ATOM     15  C   LIG    1       -4.868   2.208  -0.133  0.00  0.00    +0.270 C 
BRANCH  15  16
ATOM     16  O   LIG    1       -3.537   2.751  -0.337  0.00  0.00    -0.320 OA
BRANCH  16  17
ATOM     17  C   LIG    1       -2.515   1.871  -0.367  0.00  0.00    +0.560 C 
ATOM     18  O   LIG    1       -2.731   0.683  -0.228  0.00  0.00    -0.480 OA
BRANCH  17  19
ATOM     19  C   LIG    1       -1.141   2.348  -0.569  0.00  0.00    -0.030 A 
ATOM     20  C   LIG    1       -0.037   1.556  -0.618  0.00  0.00    -0.050 A 
ATOM     21  C   LIG    1        1.095   2.454  -0.840  0.00  0.00    -0.150 A 
ATOM     22  C   LIG    1        2.471   2.267  -0.987  0.00  0.00    +0.080 A 
ATOM     23  C   LIG    1        3.284   3.347  -1.189  0.00  0.00    +0.000 A 
ATOM     24  C   LIG    1        2.751   4.627  -1.250  0.00  0.00    +0.070 A 
ATOM     25  C   LIG    1        1.395   4.833  -1.109  0.00  0.00    +0.030 A 
ATOM     26  C   LIG    1        0.548   3.750  -0.902  0.00  0.00    +0.080 A 
ATOM     27  C   LIG    1        0.009   0.057  -0.477  0.00  0.00    +0.150 C 
ATOM     28  O   LIG    1       -0.783   3.639  -0.732  0.00  0.00    -0.170 OA
ENDBRANCH  17  19
ENDBRANCH  16  17
ENDBRANCH  15  16
ENDBRANCH   3  15
TORSDOF 7
