REMARK  Name = ZINCpe00000VVGmz.0
REMARK                            x       y       z     vdW  Elec       q    Type
REMARK                         _______ _______ _______ _____ _____    ______ ____
ROOT
ATOM      1  C   LIG    1        2.152   2.207   4.342  0.00  0.00    +0.210 C 
ENDROOT
BRANCH   1   2
ATOM      2  N   LIG    1        2.601   3.483   4.914  0.00  0.00    -0.520 NA
ATOM      3  C   LIG    1        4.060   3.625   4.804  0.00  0.00    +0.160 C 
ATOM      4  C   LIG    1        4.478   4.991   5.357  0.00  0.00    +0.230 C 
ATOM      5  O   LIG    1        4.022   5.113   6.707  0.00  0.00    -0.380 OA
ATOM      6  C   LIG    1        2.605   4.981   6.850  0.00  0.00    +0.220 C 
ATOM      7  C   LIG    1        2.168   3.615   6.313  0.00  0.00    +0.170 C 
BRANCH   6   8
ATOM      8  C   LIG    1        2.233   5.091   8.306  0.00  0.00    -0.100 A 
ATOM      9  C   LIG    1        3.078   4.582   9.275  0.00  0.00    +0.080 A 
ATOM     10  C   LIG    1        2.740   4.687  10.611  0.00  0.00    -0.020 A 
ATOM     11  C   LIG    1        1.550   5.292  10.979  0.00  0.00    +0.100 A 
ATOM     12  C   LIG    1        0.703   5.797  10.007  0.00  0.00    -0.010 A 
ATOM     13  F   LIG    1        1.217   5.391  12.284  0.00  0.00    -0.140 F 
ATOM     14  C   LIG    1        1.045   5.696   8.672  0.00  0.00    +0.060 A 
ENDBRANCH   6   8
ENDBRANCH   1   2
BRANCH   1  17
ATOM     15  N   LIG    1        2.058   1.135   2.114  0.00  0.00    -0.740 N 
ATOM     16  H   LIG    1        1.659   0.360   2.539  0.00  0.00    +0.410 HD
ATOM     17  C   LIG    1        2.394   2.211   2.854  0.00  0.00    +0.520 C 
ATOM     18  O   LIG    1        2.892   3.180   2.323  0.00  0.00    -0.510 OA
BRANCH  15  20
ATOM     19  C   LIG    1        3.780   1.356   0.381  0.00  0.00    +0.060 C 
ATOM     20  C   LIG    1        2.293   1.139   0.668  0.00  0.00    +0.180 C 
ATOM     21  C   LIG    1        1.460   2.246   0.000  0.00  0.00    +0.080 C 
ATOM     22  C   LIG    1       -0.023   1.825   0.012  0.00  0.00    -0.310 C 
ATOM     23  S   LIG    1        0.002  -0.004   0.002  0.00  0.00    +2.380 S 
ATOM     24  O   LIG    1       -0.493  -0.475  -1.244  0.00  0.00    -0.930 OA
ATOM     25  O   LIG    1       -0.558  -0.489   1.215  0.00  0.00    -0.930 OA
ATOM     26  C   LIG    1        1.823  -0.204   0.051  0.00  0.00    -0.290 C 
ENDBRANCH  15  20
ENDBRANCH   1  17
TORSDOF 4
