REMARK  Name = ZINCpk000000oxSn.0
REMARK                            x       y       z     vdW  Elec       q    Type
REMARK                         _______ _______ _______ _____ _____    ______ ____
ROOT
ATOM      1  C   LIG    1       -0.832  -0.872  -0.683  0.00  0.00    +0.560 C 
ATOM      2  N   LIG    1       -0.711  -2.203  -0.852  0.00  0.00    -0.730 N 
ATOM      3  H   LIG    1        0.169  -2.607  -0.913  0.00  0.00    +0.400 HD
ATOM      4  O   LIG    1       -1.935  -0.366  -0.607  0.00  0.00    -0.530 OA
ENDROOT
BRANCH   1   9
ATOM      5  C   LIG    1        1.399   2.141  -0.329  0.00  0.00    -0.140 A 
ATOM      6  C   LIG    1        2.661   1.549  -0.419  0.00  0.00    +0.070 A 
ATOM      7  C   LIG    1        2.776   0.184  -0.592  0.00  0.00    +0.010 A 
ATOM      8  C   LIG    1        1.646  -0.605  -0.678  0.00  0.00    +0.070 A 
ATOM      9  C   LIG    1        0.377  -0.025  -0.590  0.00  0.00    -0.140 A 
ATOM     10  C   LIG    1        0.254   1.351  -0.415  0.00  0.00    +0.150 A 
BRANCH   5  12
ATOM     11  N   LIG    1        2.131   4.252   0.673  0.00  0.00    -0.610 N 
ATOM     12  C   LIG    1        1.278   3.603  -0.144  0.00  0.00    +0.560 C 
ATOM     13  O   LIG    1        0.409   4.220  -0.729  0.00  0.00    -0.520 OA
ATOM     14  C   LIG    1        3.243   3.528   1.295  0.00  0.00    +0.290 C 
BRANCH  11  16
ATOM     15  C   LIG    1        1.042   5.858   2.162  0.00  0.00    +0.020 C 
ATOM     16  C   LIG    1        1.946   5.680   0.940  0.00  0.00    +0.280 C 
ENDBRANCH  11  16
ENDBRANCH   5  12
ENDBRANCH   1   9
BRANCH   2  17
ATOM     17  C   LIG    1       -1.909  -3.041  -0.944  0.00  0.00    +0.380 C 
BRANCH  17  18
ATOM     18  C   LIG    1       -1.502  -4.480  -1.131  0.00  0.00    -0.040 A 
ATOM     19  C   LIG    1       -1.364  -5.411  -0.163  0.00  0.00    +0.180 A 
ATOM     20  N   LIG    1       -0.989  -6.564  -0.742  0.00  0.00    -0.470 NA
ATOM     21  C   LIG    1       -0.891  -6.385  -2.024  0.00  0.00    +0.180 A 
ATOM     22  C   LIG    1       -0.505  -7.387  -3.086  0.00  0.00    +0.370 C 
ATOM     23  O   LIG    1       -0.865  -6.835  -4.360  0.00  0.00    -0.370 OA
ATOM     24  C   LIG    1       -0.408  -5.495  -4.566  0.00  0.00    +0.240 C 
ATOM     25  C   LIG    1       -1.195  -4.537  -3.661  0.00  0.00    +0.270 C 
ATOM     26  N   LIG    1       -1.209  -5.096  -2.307  0.00  0.00    -0.450 N 
ENDBRANCH  17  18
ENDBRANCH   2  17
TORSDOF 5
