REMARK  Name = ZINCpe000000YgD4.1
REMARK                            x       y       z     vdW  Elec       q    Type
REMARK                         _______ _______ _______ _____ _____    ______ ____
ROOT
ATOM      1  N   LIG    1       -3.298   3.664   2.866  0.00  0.00    -0.540 NA
ATOM      2  C   LIG    1       -3.737   2.435   3.542  0.00  0.00    +0.190 C 
ATOM      3  C   LIG    1       -4.061   2.749   5.005  0.00  0.00    +0.210 C 
ATOM      4  N   LIG    1       -5.106   3.780   5.062  0.00  0.00    -0.470 N 
ATOM      5  C   LIG    1       -4.668   5.009   4.385  0.00  0.00    +0.240 C 
ATOM      6  C   LIG    1       -4.344   4.695   2.923  0.00  0.00    +0.180 C 
ENDROOT
BRANCH   4   7
ATOM      7  C   LIG    1       -5.476   4.039   6.367  0.00  0.00    +0.450 A 
ATOM      8  C   LIG    1       -5.931   3.004   7.207  0.00  0.00    -0.300 A 
ATOM      9  C   LIG    1       -6.133   1.616   7.051  0.00  0.00    +0.310 A 
ATOM     10  N   LIG    1       -6.580   1.135   8.176  0.00  0.00    -0.240 NA
ATOM     11  N   LIG    1       -6.693   2.166   9.118  0.00  0.00    -0.380 N 
ATOM     12  C   LIG    1       -7.160   2.019  10.499  0.00  0.00    +0.370 C 
ATOM     13  C   LIG    1       -6.294   3.328   8.529  0.00  0.00    +0.360 A 
ATOM     14  N   LIG    1       -6.193   4.594   8.931  0.00  0.00    -0.560 NA
ATOM     15  C   LIG    1       -5.762   5.526   8.109  0.00  0.00    +0.580 A 
ATOM     16  N   LIG    1       -5.405   5.269   6.863  0.00  0.00    -0.590 NA
ENDBRANCH   4   7
BRANCH   1  17
ATOM     17  C   LIG    1       -2.905   3.389   1.477  0.00  0.00    +0.180 C 
BRANCH  17  18
ATOM     18  C   LIG    1       -1.656   2.506   1.466  0.00  0.00    +0.020 C 
BRANCH  18  19
ATOM     19  C   LIG    1       -1.247   2.219   0.020  0.00  0.00    +0.100 C 
BRANCH  19  23
ATOM     20  C   LIG    1        1.771  -1.782  -0.025  0.00  0.00    +0.360 C 
ATOM     21  N   LIG    1        1.293  -0.398  -0.012  0.00  0.00    -0.380 N 
ATOM     22  C   LIG    1        0.002  -0.004   0.002  0.00  0.00    +0.220 A 
ATOM     23  C   LIG    1       -0.016   1.349   0.009  0.00  0.00    -0.240 A 
ATOM     24  C   LIG    1        1.308   1.797  -0.001  0.00  0.00    +0.230 A 
ATOM     25  N   LIG    1        2.094   0.751  -0.014  0.00  0.00    -0.300 NA
ENDBRANCH  19  23
ENDBRANCH  18  19
ENDBRANCH  17  18
ENDBRANCH   1  17
TORSDOF 5
