REMARK  Name = ZINCb70000002D9t.0
REMARK                            x       y       z     vdW  Elec       q    Type
REMARK                         _______ _______ _______ _____ _____    ______ ____
ROOT
ATOM      1  C   LIG    1        1.441   3.383   0.006  0.00  0.00    +0.030 A 
ATOM      2  N   LIG    1        2.744   3.500  -0.006  0.00  0.00    -0.190 NA
ATOM      3  N   LIG    1        3.296   2.337  -0.017  0.00  0.00    -0.270 NA
ATOM      4  C   LIG    1        2.359   1.403  -0.013  0.00  0.00    +0.220 A 
ATOM      5  C   LIG    1        2.394  -0.004  -0.020  0.00  0.00    +0.100 A 
ATOM      6  C   LIG    1        1.224  -0.698  -0.013  0.00  0.00    +0.090 A 
ATOM      7  C   LIG    1        0.002  -0.004   0.002  0.00  0.00    +0.070 A 
ATOM      8  C   LIG    1       -0.016   1.345   0.009  0.00  0.00    +0.210 A 
ATOM      9  N   LIG    1        1.149   2.054   0.002  0.00  0.00    -0.380 N 
ENDROOT
BRANCH   1  10
ATOM     10  C   LIG    1        0.445   4.513   0.021  0.00  0.00    +0.430 C 
BRANCH  10  11
ATOM     11  N   LIG    1        0.134   4.874   1.411  0.00  0.00    -0.640 N 
ATOM     12  H   LIG    1       -0.533   5.631   1.421  0.00  0.00    +0.450 HD
ATOM     13  H   LIG    1        0.979   5.164   1.880  0.00  0.00    +0.440 HD
ATOM     14  H   LIG    1       -0.257   4.075   1.886  0.00  0.00    +0.430 HD
ENDBRANCH  10  11
ENDBRANCH   1  10
TORSDOF 2
