REMARK  Name = ZINCtV00000L6kM4.0
REMARK                            x       y       z     vdW  Elec       q    Type
REMARK                         _______ _______ _______ _____ _____    ______ ____
ROOT
ATOM      1  O   LIG    1       -1.813  -0.058   0.284  0.00  0.00    -0.230 OA
ENDROOT
BRANCH   1   2
ATOM      2  C   LIG    1       -2.295   1.068   0.861  0.00  0.00    +0.410 A 
ATOM      3  C   LIG    1       -3.688   1.331   0.875  0.00  0.00    -0.190 A 
ATOM      4  C   LIG    1       -4.794   0.554   0.357  0.00  0.00    +0.080 A 
ATOM      5  C   LIG    1       -5.995   1.100   0.550  0.00  0.00    -0.140 A 
ATOM      6  S   LIG    1       -5.868   2.628   1.401  0.00  0.00    +0.200 S 
ATOM      7  C   LIG    1       -4.117   2.512   1.492  0.00  0.00    +0.110 A 
ATOM      8  N   LIG    1       -3.206   3.335   2.025  0.00  0.00    -0.510 NA
ATOM      9  C   LIG    1       -1.926   3.048   1.981  0.00  0.00    +0.560 A 
ATOM     10  N   LIG    1       -1.472   1.944   1.415  0.00  0.00    -0.570 NA
BRANCH   5  11
ATOM     11  C   LIG    1       -7.268   0.495   0.106  0.00  0.00    -0.020 A 
ATOM     12  C   LIG    1       -7.266  -0.726  -0.570  0.00  0.00    +0.030 A 
ATOM     13  C   LIG    1       -8.458  -1.288  -0.977  0.00  0.00    +0.020 A 
ATOM     14  C   LIG    1       -9.653  -0.639  -0.727  0.00  0.00    +0.020 A 
ATOM     15  C   LIG    1       -9.663   0.575  -0.062  0.00  0.00    +0.020 A 
ATOM     16  C   LIG    1       -8.478   1.145   0.356  0.00  0.00    +0.010 A 
ENDBRANCH   5  11
ENDBRANCH   1   2
BRANCH   1  20
ATOM     17  C   LIG    1        2.228  -0.841   0.610  0.00  0.00    +0.200 A 
ATOM     18  C   LIG    1        1.321  -1.526   1.408  0.00  0.00    -0.030 A 
ATOM     19  C   LIG    1       -0.030  -1.262   1.299  0.00  0.00    +0.060 A 
ATOM     20  C   LIG    1       -0.482  -0.313   0.394  0.00  0.00    +0.040 A 
ATOM     21  C   LIG    1        0.423   0.372  -0.404  0.00  0.00    +0.060 A 
ATOM     22  C   LIG    1        1.775   0.109  -0.297  0.00  0.00    -0.020 A 
BRANCH  17  23
ATOM     23  N   LIG    1        3.597  -1.107   0.718  0.00  0.00    -0.680 N 
ATOM     24  H   LIG    1        3.963  -1.430   1.557  0.00  0.00    +0.410 HD
BRANCH  23  28
ATOM     25  C   LIG    1        6.100  -0.519  -2.557  0.00  0.00    -0.030 A 
ATOM     26  C   LIG    1        6.594  -0.366  -1.275  0.00  0.00    +0.040 A 
ATOM     27  C   LIG    1        5.767  -0.561  -0.186  0.00  0.00    -0.040 A 
ATOM     28  C   LIG    1        4.436  -0.909  -0.381  0.00  0.00    +0.180 A 
ATOM     29  C   LIG    1        3.944  -1.067  -1.670  0.00  0.00    -0.030 A 
ATOM     30  C   LIG    1        4.776  -0.866  -2.754  0.00  0.00    +0.040 A 
ENDBRANCH  23  28
ENDBRANCH  17  23
ENDBRANCH   1  20
TORSDOF 5
