REMARK  Name = ZINCrH000004k8M5.1
REMARK                            x       y       z     vdW  Elec       q    Type
REMARK                         _______ _______ _______ _____ _____    ______ ____
ROOT
ATOM      1  N   LIG    1        1.233  -2.082  -0.020  0.00  0.00    -0.660 N 
ATOM      2  H   LIG    1        1.929  -2.554  -0.504  0.00  0.00    +0.420 HD
ATOM      3  C   LIG    1        0.294  -2.774   0.656  0.00  0.00    +0.510 C 
ATOM      4  O   LIG    1       -0.622  -2.187   1.194  0.00  0.00    -0.510 OA
ENDROOT
BRANCH   1  10
ATOM      5  C   LIG    1        2.398   0.043  -0.036  0.00  0.00    +0.060 A 
ATOM      6  C   LIG    1        2.363   1.429  -0.039  0.00  0.00    -0.010 A 
ATOM      7  C   LIG    1        1.149   2.090  -0.026  0.00  0.00    +0.000 A 
ATOM      8  C   LIG    1       -0.033   1.373  -0.012  0.00  0.00    +0.030 A 
ATOM      9  C   LIG    1       -0.008  -0.010  -0.010  0.00  0.00    +0.020 A 
ATOM     10  C   LIG    1        1.205  -0.681  -0.022  0.00  0.00    +0.170 A 
BRANCH   5  15
ATOM     11  C   LIG    1        7.755  -1.517  -0.054  0.00  0.00    +0.190 C 
ATOM     12  N   LIG    1        6.466  -0.813  -0.041  0.00  0.00    -0.550 NA
ATOM     13  C   LIG    1        5.700  -1.093  -1.263  0.00  0.00    +0.180 C 
ATOM     14  C   LIG    1        4.403  -0.281  -1.247  0.00  0.00    +0.190 C 
ATOM     15  N   LIG    1        3.625  -0.628  -0.049  0.00  0.00    -0.500 N 
ATOM     16  C   LIG    1        4.391  -0.348   1.173  0.00  0.00    +0.190 C 
ATOM     17  C   LIG    1        5.688  -1.160   1.157  0.00  0.00    +0.180 C 
ENDBRANCH   5  15
ENDBRANCH   1  10
BRANCH   3  18
ATOM     18  C   LIG    1        0.381  -4.276   0.742  0.00  0.00    +0.120 C 
BRANCH  18  19
ATOM     19  C   LIG    1       -0.781  -4.801   1.546  0.00  0.00    -0.060 A 
ATOM     20  C   LIG    1       -0.637  -5.046   2.877  0.00  0.00    +0.020 A 
ATOM     21  C   LIG    1       -1.701  -5.527   3.638  0.00  0.00    +0.010 A 
ATOM     22  C   LIG    1       -2.913  -5.774   3.070  0.00  0.00    +0.030 A 
ATOM     23  C   LIG    1       -3.099  -5.538   1.697  0.00  0.00    -0.050 A 
ATOM     24  C   LIG    1       -4.335  -5.781   1.075  0.00  0.00    +0.030 A 
ATOM     25  C   LIG    1       -4.478  -5.540  -0.257  0.00  0.00    +0.000 A 
ATOM     26  C   LIG    1       -3.416  -5.055  -1.016  0.00  0.00    +0.010 A 
ATOM     27  C   LIG    1       -2.204  -4.808  -0.448  0.00  0.00    +0.010 A 
ATOM     28  C   LIG    1       -2.018  -5.044   0.924  0.00  0.00    -0.030 A 
ENDBRANCH  18  19
ENDBRANCH   3  18
TORSDOF 4
