REMARK  Name = ZINCrD0000075s6H.0
REMARK                            x       y       z     vdW  Elec       q    Type
REMARK                         _______ _______ _______ _____ _____    ______ ____
ROOT
ATOM      1  C   LIG    1        3.798   5.239  -0.004  0.00  0.00    -0.070 A 
ATOM      2  C   LIG    1        2.953   4.140  -0.011  0.00  0.00    +0.080 A 
ATOM      3  C   LIG    1        1.561   4.339  -0.002  0.00  0.00    +0.230 A 
ATOM      4  N   LIG    1        1.023   5.543   0.023  0.00  0.00    -0.430 NA
ATOM      5  C   LIG    1        1.762   6.654   0.037  0.00  0.00    +0.130 A 
ATOM      6  C   LIG    1        1.160   7.925   0.063  0.00  0.00    +0.060 A 
ATOM      7  C   LIG    1        1.940   9.041   0.076  0.00  0.00    +0.040 A 
ATOM      8  C   LIG    1        3.329   8.947   0.062  0.00  0.00    +0.030 A 
ATOM      9  C   LIG    1        3.947   7.732   0.037  0.00  0.00    +0.050 A 
ATOM     10  C   LIG    1        3.177   6.565   0.024  0.00  0.00    -0.060 A 
ENDROOT
BRANCH   3  11
ATOM     11  C   LIG    1        0.672   3.162  -0.016  0.00  0.00    -0.000 A 
ATOM     12  C   LIG    1       -0.689   3.187  -0.004  0.00  0.00    +0.020 A 
ATOM     13  C   LIG    1       -1.119   1.847  -0.029  0.00  0.00    -0.060 A 
ATOM     14  C   LIG    1       -0.013   1.076  -0.046  0.00  0.00    +0.200 A 
ATOM     15  O   LIG    1        1.067   1.873  -0.041  0.00  0.00    -0.170 OA
ENDBRANCH   3  11
BRANCH   1  16
ATOM     16  C   LIG    1        5.267   5.079  -0.018  0.00  0.00    +0.520 C 
ATOM     17  O   LIG    1        5.983   6.055  -0.116  0.00  0.00    -0.490 OA
BRANCH  16  18
ATOM     18  O   LIG    1        5.812   3.851   0.076  0.00  0.00    -0.320 OA
BRANCH  18  19
ATOM     19  C   LIG    1        7.261   3.769   0.055  0.00  0.00    +0.270 C 
BRANCH  19  21
ATOM     20  O   LIG    1        6.848   1.455   0.261  0.00  0.00    -0.500 OA
ATOM     21  C   LIG    1        7.685   2.328   0.171  0.00  0.00    +0.530 C 
ATOM     22  N   LIG    1        8.994   2.008   0.173  0.00  0.00    -0.730 N 
ATOM     23  H   LIG    1        9.664   2.706   0.100  0.00  0.00    +0.410 HD
BRANCH  22  24
ATOM     24  C   LIG    1        9.406   0.607   0.285  0.00  0.00    +0.320 C 
BRANCH  24  25
ATOM     25  C   LIG    1       10.934   0.521   0.263  0.00  0.00    +0.450 C 
ATOM     26  F   LIG    1       11.414   1.053  -0.939  0.00  0.00    -0.180 F 
ATOM     27  F   LIG    1       11.327  -0.818   0.370  0.00  0.00    -0.170 F 
ATOM     28  F   LIG    1       11.457   1.248   1.337  0.00  0.00    -0.180 F 
ENDBRANCH  24  25
ENDBRANCH  22  24
ENDBRANCH  19  21
ENDBRANCH  18  19
ENDBRANCH  16  18
ENDBRANCH   1  16
TORSDOF 7
