REMARK  Name = ZINCrg00001Jdv6W.0
REMARK                            x       y       z     vdW  Elec       q    Type
REMARK                         _______ _______ _______ _____ _____    ______ ____
ROOT
ATOM      1  C   LIG    1       -0.016   1.354   0.009  0.00  0.00    +0.510 C 
ATOM      2  N   LIG    1        0.002  -0.004   0.002  0.00  0.00    -0.590 N 
ATOM      3  C   LIG    1        1.425  -0.523  -0.160  0.00  0.00    +0.270 C 
ATOM      4  C   LIG    1        1.817  -1.171   1.228  0.00  0.00    +0.230 C 
ATOM      5  N   LIG    1        0.929  -1.088   2.291  0.00  0.00    -0.540 N 
ATOM      6  C   LIG    1       -0.383  -1.781   2.245  0.00  0.00    +0.270 C 
ATOM      7  C   LIG    1       -1.488  -0.982   1.589  0.00  0.00    +0.010 C 
ATOM      8  C   LIG    1        1.249  -0.404   3.307  0.00  0.00    +0.520 C 
ATOM      9  O   LIG    1        0.484  -0.314   4.243  0.00  0.00    -0.540 OA
ATOM     10  C   LIG    1       -1.101  -0.762   0.106  0.00  0.00    +0.190 C 
ATOM     11  C   LIG    1       -0.915  -2.184  -0.470  0.00  0.00    +0.050 C 
ATOM     12  C   LIG    1       -0.823  -2.020  -2.006  0.00  0.00    +0.170 C 
ATOM     13  O   LIG    1       -2.044  -1.414  -2.550  0.00  0.00    -0.360 OA
ATOM     14  C   LIG    1       -2.261  -0.149  -2.064  0.00  0.00    +0.190 C 
ATOM     15  C   LIG    1       -2.420  -0.122  -0.535  0.00  0.00    +0.040 C 
ATOM     16  O   LIG    1       -1.075   1.946   0.029  0.00  0.00    -0.490 OA
ENDROOT
BRANCH   1  17
ATOM     17  C   LIG    1        1.278   2.125  -0.013  0.00  0.00    +0.190 C 
BRANCH  17  19
ATOM     18  C   LIG    1        2.164   4.353  -0.020  0.00  0.00    +0.210 C 
ATOM     19  O   LIG    1        0.998   3.527   0.000  0.00  0.00    -0.360 OA
ENDBRANCH  17  19
ENDBRANCH   1  17
BRANCH   8  20
ATOM     20  C   LIG    1        2.581   0.299   3.352  0.00  0.00    +0.040 C 
BRANCH  20  21
ATOM     21  C   LIG    1        2.718   1.049   4.679  0.00  0.00    +0.290 C 
ATOM     22  C   LIG    1        2.751   0.043   5.832  0.00  0.00    +0.060 C 
BRANCH  21  23
ATOM     23  N   LIG    1        3.958   1.828   4.675  0.00  0.00    -0.370 N 
ATOM     24  C   LIG    1        5.183   1.374   5.013  0.00  0.00    +0.220 A 
ATOM     25  C   LIG    1        6.056   2.398   4.873  0.00  0.00    -0.120 A 
ATOM     26  C   LIG    1        5.339   3.519   4.443  0.00  0.00    +0.220 A 
ATOM     27  N   LIG    1        4.081   3.179   4.324  0.00  0.00    -0.300 NA
ENDBRANCH  21  23
ENDBRANCH  20  21
ENDBRANCH   8  20
TORSDOF 5
