REMARK  Name = ZINCtV00000vzOPQ.0
REMARK                            x       y       z     vdW  Elec       q    Type
REMARK                         _______ _______ _______ _____ _____    ______ ____
ROOT
ATOM      1  C   LIG    1       -4.885   0.865   0.031  0.00  0.00    +0.210 C 
ENDROOT
BRANCH   1   2
ATOM      2  C   LIG    1       -5.296   0.580   1.452  0.00  0.00    -0.110 A 
ATOM      3  C   LIG    1       -5.184   1.566   2.415  0.00  0.00    +0.040 A 
ATOM      4  C   LIG    1       -5.565   1.305   3.718  0.00  0.00    +0.010 A 
ATOM      5  C   LIG    1       -6.051   0.057   4.060  0.00  0.00    +0.020 A 
ATOM      6  C   LIG    1       -6.159  -0.930   3.098  0.00  0.00    +0.010 A 
ATOM      7  C   LIG    1       -5.781  -0.668   1.794  0.00  0.00    +0.020 A 
ENDBRANCH   1   2
BRANCH   1   8
ATOM      8  C   LIG    1       -5.987   1.616  -0.670  0.00  0.00    +0.440 C 
ATOM      9  O   LIG    1       -5.871   2.805  -0.885  0.00  0.00    -0.440 OA
BRANCH   8  10
ATOM     10  C   LIG    1       -7.160   0.934  -1.080  0.00  0.00    -0.270 A 
ATOM     11  C   LIG    1       -7.438  -0.407  -0.915  0.00  0.00    +0.320 A 
ATOM     12  N   LIG    1       -8.652  -0.683  -1.430  0.00  0.00    -0.560 N 
ATOM     13  H   LIG    1       -9.064  -1.562  -1.429  0.00  0.00    +0.420 HD
ATOM     14  C   LIG    1       -9.226   0.452  -1.964  0.00  0.00    +0.080 A 
ATOM     15  C   LIG    1      -10.438   0.693  -2.602  0.00  0.00    +0.000 A 
ATOM     16  C   LIG    1      -10.745   1.963  -3.039  0.00  0.00    +0.030 A 
ATOM     17  C   LIG    1       -9.856   3.010  -2.849  0.00  0.00    +0.000 A 
ATOM     18  C   LIG    1       -8.650   2.792  -2.219  0.00  0.00    +0.060 A 
ATOM     19  C   LIG    1       -8.327   1.514  -1.773  0.00  0.00    -0.050 A 
ENDBRANCH   8  10
ENDBRANCH   1   8
BRANCH   1  20
ATOM     20  O   LIG    1       -3.675   1.669   0.029  0.00  0.00    -0.320 OA
BRANCH  20  22
ATOM     21  O   LIG    1       -2.489  -0.207   0.014  0.00  0.00    -0.490 OA
ATOM     22  C   LIG    1       -2.502   1.007   0.020  0.00  0.00    +0.510 C 
BRANCH  22  23
ATOM     23  C   LIG    1       -1.231   1.759   0.017  0.00  0.00    -0.110 A 
ATOM     24  C   LIG    1       -0.013   1.076   0.008  0.00  0.00    +0.120 A 
ATOM     25  C   LIG    1        1.172   1.783   0.000  0.00  0.00    +0.050 A 
ATOM     26  C   LIG    1        1.155   3.167   0.008  0.00  0.00    +0.000 A 
ATOM     27  C   LIG    1       -0.051   3.852   0.023  0.00  0.00    -0.050 A 
ATOM     28 CL   LIG    1       -0.062   5.588   0.032  0.00  0.00    -0.030 Cl
ATOM     29 CL   LIG    1        2.650   4.050  -0.002  0.00  0.00    -0.030 Cl
ATOM     30  C   LIG    1       -1.242   3.155   0.030  0.00  0.00    +0.120 A 
ENDBRANCH  22  23
ENDBRANCH  20  22
ENDBRANCH   1  20
TORSDOF 6
