REMARK  Name = ZINCpe000000XN8j.0
REMARK                            x       y       z     vdW  Elec       q    Type
REMARK                         _______ _______ _______ _____ _____    ______ ____
ROOT
ATOM      1  C   LIG    1        4.981   4.468  -2.584  0.00  0.00    +0.530 C 
ATOM      2  N   LIG    1        6.309   4.373  -2.372  0.00  0.00    -0.610 N 
ATOM      3  C   LIG    1        7.239   4.043  -3.465  0.00  0.00    +0.300 C 
ATOM      4  C   LIG    1        8.172   5.237  -3.659  0.00  0.00    +0.120 C 
ATOM      5  C   LIG    1        8.710   5.718  -2.338  0.00  0.00    -0.230 A 
ATOM      6  C   LIG    1        8.124   5.448  -1.160  0.00  0.00    +0.170 A 
ATOM      7  N   LIG    1        8.669   5.950  -0.003  0.00  0.00    -0.640 N 
ATOM      8  H   LIG    1        8.238   5.767   0.846  0.00  0.00    +0.440 HD
ATOM      9  C   LIG    1        9.789   6.691  -0.029  0.00  0.00    +0.700 A 
ATOM     10  N   LIG    1       10.407   6.962  -1.193  0.00  0.00    -0.660 N 
ATOM     11  H   LIG    1       11.219   7.493  -1.199  0.00  0.00    +0.430 HD
ATOM     12  O   LIG    1       10.250   7.121   1.011  0.00  0.00    -0.530 OA
ATOM     13  C   LIG    1        9.899   6.498  -2.350  0.00  0.00    +0.550 A 
ATOM     14  O   LIG    1       10.456   6.745  -3.404  0.00  0.00    -0.500 OA
ATOM     15  C   LIG    1        6.888   4.599  -1.044  0.00  0.00    +0.360 C 
ATOM     16  O   LIG    1        4.519   4.186  -3.669  0.00  0.00    -0.500 OA
ENDROOT
BRANCH   1  17
ATOM     17  C   LIG    1        4.071   4.925  -1.473  0.00  0.00    +0.160 C 
ATOM     18  C   LIG    1        4.271   6.423  -1.235  0.00  0.00    +0.050 C 
BRANCH  17  19
ATOM     19  O   LIG    1        2.712   4.678  -1.839  0.00  0.00    -0.350 OA
BRANCH  19  20
ATOM     20  C   LIG    1        1.850   4.418  -0.729  0.00  0.00    +0.220 C 
BRANCH  20  25
ATOM     21  C   LIG    1       -3.517   3.478  -2.651  0.00  0.00    +0.090 C 
ATOM     22  C   LIG    1       -2.119   3.722  -2.147  0.00  0.00    -0.080 A 
ATOM     23  C   LIG    1       -1.241   2.664  -2.003  0.00  0.00    +0.000 A 
ATOM     24  C   LIG    1        0.044   2.890  -1.546  0.00  0.00    +0.030 A 
ATOM     25  C   LIG    1        0.450   4.172  -1.227  0.00  0.00    -0.100 A 
ATOM     26  C   LIG    1       -0.430   5.230  -1.366  0.00  0.00    +0.030 A 
ATOM     27  C   LIG    1       -1.715   5.004  -1.823  0.00  0.00    +0.000 A 
ENDBRANCH  20  25
ENDBRANCH  19  20
ENDBRANCH  17  19
ENDBRANCH   1  17
TORSDOF 4
