REMARK  Name = ZINCAx0000000fhP.0
REMARK                            x       y       z     vdW  Elec       q    Type
REMARK                         _______ _______ _______ _____ _____    ______ ____
ROOT
ATOM      1  N   LIG    1        2.937  -2.203  -0.121  0.00  0.00    -0.510 N 
ATOM      2  C   LIG    1        1.592  -2.076  -0.139  0.00  0.00    +0.530 C 
ATOM      3  C   LIG    1        1.332  -0.631  -0.084  0.00  0.00    -0.080 C 
ATOM      4  N   LIG    1        2.558  -0.029  -0.043  0.00  0.00    -0.480 NA
ATOM      5  C   LIG    1        0.098  -0.007  -0.080  0.00  0.00    +0.260 C 
ATOM      6  O   LIG    1        0.768  -2.973  -0.191  0.00  0.00    -0.480 OA
ATOM      7  C   LIG    1        3.489  -0.946  -0.059  0.00  0.00    +0.310 C 
ENDROOT
BRANCH   1  11
ATOM      8  C   LIG    1        5.053  -5.797  -0.233  0.00  0.00    +0.150 A 
ATOM      9  C   LIG    1        4.282  -5.481   0.875  0.00  0.00    -0.040 A 
ATOM     10  C   LIG    1        3.582  -4.291   0.913  0.00  0.00    +0.090 A 
ATOM     11  C   LIG    1        3.649  -3.412  -0.159  0.00  0.00    +0.100 A 
ATOM     12  C   LIG    1        4.417  -3.731  -1.271  0.00  0.00    +0.090 A 
ATOM     13  C   LIG    1        5.122  -4.918  -1.305  0.00  0.00    -0.060 A 
ATOM     14 CL   LIG    1        6.088  -5.315  -2.692  0.00  0.00    -0.040 Cl
BRANCH   8  16
ATOM     15  C   LIG    1        5.627  -7.825   0.869  0.00  0.00    +0.250 C 
ATOM     16  O   LIG    1        5.743  -6.969  -0.269  0.00  0.00    -0.300 OA
ENDBRANCH   8  16
ENDBRANCH   1  11
BRANCH   5  17
ATOM     17  C   LIG    1        0.019   1.399  -0.024  0.00  0.00    -0.240 A 
ATOM     18  C   LIG    1       -1.142   2.133  -0.019  0.00  0.00    +0.070 A 
ATOM     19  C   LIG    1       -0.925   3.488   0.045  0.00  0.00    -0.020 A 
ATOM     20  C   LIG    1        0.362   3.857   0.083  0.00  0.00    -0.110 A 
ATOM     21  S   LIG    1        1.391   2.497   0.045  0.00  0.00    +0.330 S 
ENDBRANCH   5  17
BRANCH   7  22
ATOM     22  S   LIG    1        5.219  -0.616  -0.017  0.00  0.00    +0.060 S 
BRANCH  22  23
ATOM     23  C   LIG    1        5.191   1.192   0.058  0.00  0.00    +0.120 C 
BRANCH  23  24
ATOM     24  C   LIG    1        6.604   1.715   0.103  0.00  0.00    +0.460 C 
ATOM     25  O   LIG    1        7.539   0.939   0.087  0.00  0.00    -0.490 OA
BRANCH  24  26
ATOM     26  C   LIG    1        6.841   3.104   0.165  0.00  0.00    -0.440 A 
ATOM     27  C   LIG    1        8.148   3.620   0.115  0.00  0.00    +0.560 A 
ATOM     28  N   LIG    1        8.327   4.973   0.178  0.00  0.00    -0.540 N 
ATOM     29  C   LIG    1        7.284   5.810   0.287  0.00  0.00    +0.710 A 
ATOM     30  N   LIG    1        6.014   5.376   0.339  0.00  0.00    -0.560 N 
ATOM     31  C   LIG    1        4.922   6.346   0.459  0.00  0.00    +0.340 C 
ATOM     32  O   LIG    1        7.496   7.006   0.339  0.00  0.00    -0.520 OA
ATOM     33  C   LIG    1        9.684   5.521   0.126  0.00  0.00    +0.350 C 
ATOM     34  C   LIG    1        5.730   4.058   0.278  0.00  0.00    +0.580 A 
ATOM     35  O   LIG    1        4.578   3.668   0.320  0.00  0.00    -0.490 OA
BRANCH  27  36
ATOM     36  N   LIG    1        9.217   2.786   0.005  0.00  0.00    -0.800 N 
ATOM     37  H   LIG    1        9.153   1.872   0.323  0.00  0.00    +0.440 HD
ATOM     38  H   LIG    1       10.043   3.106  -0.391  0.00  0.00    +0.410 HD
ENDBRANCH  27  36
ENDBRANCH  24  26
ENDBRANCH  23  24
ENDBRANCH  22  23
ENDBRANCH   7  22
TORSDOF 8
