REMARK  Name = ZINCpk00000eavMC.0
REMARK                            x       y       z     vdW  Elec       q    Type
REMARK                         _______ _______ _______ _____ _____    ______ ____
ROOT
ATOM      1  C   LIG    1        1.865   5.391   1.413  0.00  0.00    +0.440 C 
ATOM      2  O   LIG    1        1.455   6.134   0.553  0.00  0.00    -0.490 OA
ENDROOT
BRANCH   1   3
ATOM      3  C   LIG    1        2.468   5.957   2.673  0.00  0.00    +0.320 C 
BRANCH   3   8
ATOM      4  C   LIG    1        5.667   4.128   3.511  0.00  0.00    +0.130 A 
ATOM      5  C   LIG    1        6.609   4.913   2.863  0.00  0.00    -0.070 A 
ATOM      6  C   LIG    1        6.208   6.031   2.158  0.00  0.00    +0.060 A 
ATOM      7  C   LIG    1        4.868   6.365   2.092  0.00  0.00    -0.020 A 
ATOM      8  C   LIG    1        3.927   5.587   2.741  0.00  0.00    -0.090 A 
ATOM      9  C   LIG    1        4.323   4.468   3.448  0.00  0.00    +0.020 A 
BRANCH   4  11
ATOM     10  C   LIG    1        7.457   2.738   4.227  0.00  0.00    +0.250 C 
ATOM     11  O   LIG    1        6.058   3.028   4.205  0.00  0.00    -0.310 OA
ENDBRANCH   4  11
ENDBRANCH   3   8
BRANCH   3  12
ATOM     12  O   LIG    1        2.337   7.380   2.665  0.00  0.00    -0.520 OA
ATOM     13  H   LIG    1        2.776   7.812   1.920  0.00  0.00    +0.390 HD
ENDBRANCH   3  12
ENDBRANCH   1   3
BRANCH   1  14
ATOM     14  O   LIG    1        1.782   4.061   1.248  0.00  0.00    -0.340 OA
BRANCH  14  15
ATOM     15  C   LIG    1        1.190   3.587   0.010  0.00  0.00    +0.320 C 
BRANCH  15  16
ATOM     16  C   LIG    1        1.183   2.080   0.002  0.00  0.00    +0.210 A 
ATOM     17  C   LIG    1       -0.017   1.395   0.010  0.00  0.00    -0.150 A 
ATOM     18  C   LIG    1        0.002  -0.004   0.002  0.00  0.00    +0.510 A 
ATOM     19  N   LIG    1        1.192  -0.642  -0.013  0.00  0.00    -0.430 N 
ATOM     20  C   LIG    1        1.227  -2.003  -0.020  0.00  0.00    +0.280 A 
ATOM     21  C   LIG    1        2.407  -2.664  -0.036  0.00  0.00    +0.000 A 
ATOM     22  C   LIG    1        3.614  -1.950  -0.043  0.00  0.00    +0.130 A 
ATOM     23  C   LIG    1        3.589  -0.588  -0.035  0.00  0.00    +0.040 A 
ATOM     24  C   LIG    1        2.352   0.082  -0.019  0.00  0.00    +0.390 A 
ATOM     25  O   LIG    1       -1.041  -0.638   0.008  0.00  0.00    -0.530 OA
ATOM     26  N   LIG    1        2.326   1.413  -0.011  0.00  0.00    -0.530 NA
ENDBRANCH  15  16
ENDBRANCH  14  15
ENDBRANCH   1  14
TORSDOF 7
