REMARK  Name = ZINCqH00000363lY.0
REMARK                            x       y       z     vdW  Elec       q    Type
REMARK                         _______ _______ _______ _____ _____    ______ ____
ROOT
ATOM      1  N   LIG    1       -3.550  -0.829  -0.535  0.00  0.00    -0.730 N 
ATOM      2  H   LIG    1       -3.488  -1.794  -0.456  0.00  0.00    +0.400 HD
ATOM      3  C   LIG    1       -4.599  -0.271  -1.171  0.00  0.00    +0.530 C 
ATOM      4  O   LIG    1       -4.677   0.935  -1.270  0.00  0.00    -0.520 OA
ENDROOT
BRANCH   3   5
ATOM      5  C   LIG    1       -5.675  -1.147  -1.761  0.00  0.00    -0.030 C 
ATOM      6  C   LIG    1       -6.342  -1.966  -0.649  0.00  0.00    +0.260 C 
ATOM      7  O   LIG    1       -7.282  -2.858  -1.250  0.00  0.00    -0.300 OA
ATOM      8  C   LIG    1       -8.161  -2.343  -2.149  0.00  0.00    +0.130 A 
ATOM      9  C   LIG    1       -9.292  -3.086  -2.472  0.00  0.00    +0.010 A 
ATOM     10  C   LIG    1      -10.204  -2.602  -3.388  0.00  0.00    +0.060 A 
ATOM     11  C   LIG    1       -9.993  -1.373  -3.988  0.00  0.00    -0.060 A 
ATOM     12  C   LIG    1       -8.871  -0.632  -3.668  0.00  0.00    +0.070 A 
ATOM     13 CL   LIG    1      -11.138  -0.763  -5.142  0.00  0.00    -0.070 Cl
ATOM     14  C   LIG    1       -7.954  -1.113  -2.749  0.00  0.00    -0.140 A 
ATOM     15  C   LIG    1       -6.744  -0.274  -2.424  0.00  0.00    +0.130 C 
ENDBRANCH   3   5
BRANCH   1  16
ATOM     16  C   LIG    1       -2.505   0.022   0.039  0.00  0.00    +0.300 C 
ATOM     17  C   LIG    1       -2.901   0.430   1.459  0.00  0.00    +0.040 C 
BRANCH  16  22
ATOM     18  C   LIG    1       -0.015  -2.817   0.209  0.00  0.00    +0.100 A 
ATOM     19  C   LIG    1        1.190  -2.132   0.159  0.00  0.00    -0.040 A 
ATOM     20  C   LIG    1        1.198  -0.754   0.066  0.00  0.00    -0.020 A 
ATOM     21  C   LIG    1        0.001  -0.055   0.023  0.00  0.00    +0.100 A 
ATOM     22  C   LIG    1       -1.204  -0.739   0.079  0.00  0.00    -0.090 A 
ATOM     23  C   LIG    1       -1.213  -2.117   0.166  0.00  0.00    +0.020 A 
BRANCH  18  25
ATOM     24  C   LIG    1        1.246  -4.829   0.341  0.00  0.00    +0.250 C 
ATOM     25  O   LIG    1       -0.024  -4.173   0.300  0.00  0.00    -0.320 OA
ENDBRANCH  18  25
BRANCH  21  26
ATOM     26  O   LIG    1        0.009   1.302  -0.069  0.00  0.00    -0.310 OA
ATOM     27  C   LIG    1        1.287   1.941  -0.116  0.00  0.00    +0.250 C 
ENDBRANCH  21  26
ENDBRANCH  16  22
ENDBRANCH   1  16
TORSDOF 5
