REMARK  Name = ZINCpk000000nPMo.0
REMARK                            x       y       z     vdW  Elec       q    Type
REMARK                         _______ _______ _______ _____ _____    ______ ____
ROOT
ATOM      1  N   LIG    1        1.237   1.988   0.001  0.00  0.00    -0.560 N 
ATOM      2  C   LIG    1        2.223   0.901  -0.039  0.00  0.00    +0.310 C 
ATOM      3  C   LIG    1        1.455  -0.367   0.396  0.00  0.00    +0.010 C 
ATOM      4  C   LIG    1        0.002  -0.004   0.011  0.00  0.00    +0.100 C 
ATOM      5  C   LIG    1       -0.018   1.508   0.024  0.00  0.00    +0.520 C 
ATOM      6  O   LIG    1       -1.022   2.189   0.047  0.00  0.00    -0.500 OA
ENDROOT
BRANCH   1  11
ATOM      7  C   LIG    1        0.884   5.648  -0.055  0.00  0.00    -0.050 A 
ATOM      8  C   LIG    1        2.207   6.040   0.038  0.00  0.00    -0.020 A 
ATOM      9  C   LIG    1        3.209   5.090   0.119  0.00  0.00    +0.040 A 
ATOM     10  C   LIG    1        2.891   3.746   0.107  0.00  0.00    -0.030 A 
ATOM     11  C   LIG    1        1.563   3.349   0.013  0.00  0.00    +0.160 A 
ATOM     12  C   LIG    1        0.560   4.305  -0.073  0.00  0.00    +0.000 A 
BRANCH   7  14
ATOM     13  C   LIG    1       -0.167   7.570   1.106  0.00  0.00    +0.040 C 
ATOM     14  C   LIG    1       -0.204   6.686  -0.143  0.00  0.00    +0.020 C 
ATOM     15  C   LIG    1        0.014   7.550  -1.386  0.00  0.00    +0.040 C 
ENDBRANCH   7  14
ENDBRANCH   1  11
BRANCH   3  16
ATOM     16  C   LIG    1        1.930  -1.575  -0.369  0.00  0.00    +0.530 C 
ATOM     17  N   LIG    1        1.299  -2.757  -0.222  0.00  0.00    -0.720 N 
ATOM     18  H   LIG    1        0.539  -2.830   0.376  0.00  0.00    +0.410 HD
ATOM     19  O   LIG    1        2.881  -1.484  -1.117  0.00  0.00    -0.520 OA
BRANCH  17  20
ATOM     20  C   LIG    1        1.761  -3.931  -0.966  0.00  0.00    +0.260 C 
ATOM     21  C   LIG    1        0.598  -4.924  -1.140  0.00  0.00    +0.080 C 
ATOM     22  C   LIG    1        1.221  -6.258  -1.626  0.00  0.00    -0.300 C 
ATOM     23  S   LIG    1        2.714  -6.407  -0.573  0.00  0.00    +2.390 S 
ATOM     24  O   LIG    1        3.813  -6.827  -1.370  0.00  0.00    -0.930 OA
ATOM     25  O   LIG    1        2.385  -7.117   0.613  0.00  0.00    -0.930 OA
ATOM     26  C   LIG    1        2.892  -4.628  -0.185  0.00  0.00    -0.330 C 
ENDBRANCH  17  20
ENDBRANCH   3  16
TORSDOF 4
