REMARK  Name = ZINCkj00000y7Mik.0
REMARK                            x       y       z     vdW  Elec       q    Type
REMARK                         _______ _______ _______ _____ _____    ______ ____
ROOT
ATOM      1  N   LIG    1       -2.720   1.479  -0.084  0.00  0.00    -0.630 N 
ATOM      2  H   LIG    1       -2.829   0.548   0.169  0.00  0.00    +0.420 HD
ATOM      3  C   LIG    1       -3.788   2.202  -0.473  0.00  0.00    +0.500 C 
ATOM      4  O   LIG    1       -3.637   3.331  -0.890  0.00  0.00    -0.510 OA
ENDROOT
BRANCH   1   8
ATOM      5  C   LIG    1        1.052   3.147   0.021  0.00  0.00    +0.360 A 
ATOM      6  C   LIG    1       -0.038   3.961   0.304  0.00  0.00    +0.000 A 
ATOM      7  C   LIG    1       -1.311   3.421   0.271  0.00  0.00    +0.100 A 
ATOM      8  C   LIG    1       -1.450   2.070  -0.043  0.00  0.00    +0.030 A 
ATOM      9  C   LIG    1       -0.317   1.320  -0.320  0.00  0.00    +0.300 A 
ATOM     10  N   LIG    1        0.882   1.869  -0.279  0.00  0.00    -0.490 NA
BRANCH   5  13
ATOM     11  C   LIG    1        3.889   5.575   0.423  0.00  0.00    +0.130 C 
ATOM     12  C   LIG    1        2.550   4.903   0.584  0.00  0.00    +0.520 C 
ATOM     13  N   LIG    1        2.340   3.682   0.052  0.00  0.00    -0.550 N 
ATOM     14  C   LIG    1        3.465   2.918  -0.492  0.00  0.00    +0.320 C 
ATOM     15  O   LIG    1        1.660   5.461   1.191  0.00  0.00    -0.510 OA
ENDBRANCH   5  13
ENDBRANCH   1   8
BRANCH   3  16
ATOM     16  C   LIG    1       -5.171   1.609  -0.389  0.00  0.00    +0.180 C 
BRANCH  16  17
ATOM     17  N   LIG    1       -6.168   2.687  -0.397  0.00  0.00    -0.620 N 
ATOM     18  H   LIG    1       -7.094   2.290  -0.341  0.00  0.00    +0.440 HD
ATOM     19  H   LIG    1       -6.081   3.219  -1.250  0.00  0.00    +0.440 HD
ATOM     20  H   LIG    1       -6.014   3.294   0.394  0.00  0.00    +0.440 HD
ENDBRANCH  16  17
BRANCH  16  21
ATOM     21  C   LIG    1       -5.405   0.689  -1.589  0.00  0.00    +0.080 C 
BRANCH  21  22
ATOM     22  C   LIG    1       -6.758  -0.010  -1.440  0.00  0.00    -0.030 C 
ATOM     23  C   LIG    1       -6.723  -0.935  -0.222  0.00  0.00    +0.020 C 
ATOM     24  C   LIG    1       -7.048  -0.833  -2.697  0.00  0.00    +0.040 C 
ENDBRANCH  21  22
ENDBRANCH  16  21
ENDBRANCH   3  16
TORSDOF 6
