REMARK  Name = ZINCue00000006eA.0
REMARK                            x       y       z     vdW  Elec       q    Type
REMARK                         _______ _______ _______ _____ _____    ______ ____
ROOT
ATOM      1  S   LIG    1        1.424   2.168   0.169  0.00  0.00    +2.560 S 
ATOM      2  O   LIG    1        1.933   1.988  -1.146  0.00  0.00    -1.010 OA
ATOM      3  O   LIG    1        2.127   1.675   1.300  0.00  0.00    -1.010 OA
ENDROOT
BRANCH   1   5
ATOM      4  C   LIG    1        0.007  -0.013   0.002  0.00  0.00    +0.570 C 
ATOM      5  N   LIG    1       -0.001   1.323   0.174  0.00  0.00    -1.090 NA
ATOM      6  O   LIG    1        1.061  -0.599  -0.157  0.00  0.00    -0.620 OA
BRANCH   4  10
ATOM      7  C   LIG    1       -3.625  -2.131   0.020  0.00  0.00    +0.080 A 
ATOM      8  C   LIG    1       -2.443  -2.846  -0.165  0.00  0.00    +0.050 A 
ATOM      9  C   LIG    1       -1.248  -2.151  -0.172  0.00  0.00    +0.040 A 
ATOM     10  C   LIG    1       -1.265  -0.768   0.007  0.00  0.00    +0.120 A 
ATOM     11  N   LIG    1       -2.411  -0.121   0.186  0.00  0.00    -0.400 NA
ATOM     12  C   LIG    1       -3.565  -0.749   0.192  0.00  0.00    +0.220 A 
BRANCH   7  15
ATOM     13  C   LIG    1       -6.240  -4.801   0.426  0.00  0.00    +0.110 C 
ATOM     14  C   LIG    1       -4.941  -4.045   0.520  0.00  0.00    +0.510 C 
ATOM     15  N   LIG    1       -4.854  -2.791   0.033  0.00  0.00    -0.660 N 
ATOM     16  H   LIG    1       -5.646  -2.347  -0.309  0.00  0.00    +0.410 HD
ATOM     17  O   LIG    1       -3.973  -4.564   1.034  0.00  0.00    -0.530 OA
ENDBRANCH   7  15
ENDBRANCH   4  10
ENDBRANCH   1   5
BRANCH   1  18
ATOM     18  C   LIG    1        0.928   3.893   0.429  0.00  0.00    -0.340 C 
BRANCH  18  19
ATOM     19  C   LIG    1        2.171   4.784   0.444  0.00  0.00    +0.030 C 
BRANCH  19  20
ATOM     20  C   LIG    1        1.754   6.240   0.663  0.00  0.00    +0.290 C 
BRANCH  20  21
ATOM     21  N   LIG    1        2.944   7.093   0.678  0.00  0.00    -0.690 N 
ATOM     22  H   LIG    1        3.823   6.701   0.558  0.00  0.00    +0.410 HD
BRANCH  21  23
ATOM     23  C   LIG    1        2.815   8.455   0.862  0.00  0.00    +0.520 A 
ATOM     24  C   LIG    1        3.938   9.286   0.885  0.00  0.00    -0.340 A 
ATOM     25  C   LIG    1        5.386   9.153   0.748  0.00  0.00    +0.090 A 
ATOM     26  N   LIG    1        5.854  10.362   0.866  0.00  0.00    -0.330 NA
ATOM     27  O   LIG    1        4.994  11.195   1.041  0.00  0.00    +0.080 OA
ATOM     28  C   LIG    1        6.171   7.886   0.523  0.00  0.00    +0.180 C 
ATOM     29  C   LIG    1        3.760  10.674   1.072  0.00  0.00    +0.290 A 
ATOM     30  N   LIG    1        2.526  11.135   1.229  0.00  0.00    -0.550 NA
ATOM     31  C   LIG    1        1.494  10.316   1.206  0.00  0.00    +0.610 A 
ATOM     32  N   LIG    1        1.617   9.014   1.029  0.00  0.00    -0.580 NA
ENDBRANCH  21  23
ENDBRANCH  20  21
ENDBRANCH  19  20
ENDBRANCH  18  19
ENDBRANCH   1  18
TORSDOF 8
