REMARK  Name = ZINCqH0000033mNs.0
REMARK                            x       y       z     vdW  Elec       q    Type
REMARK                         _______ _______ _______ _____ _____    ______ ____
ROOT
ATOM      1  C   LIG    1        4.835   4.694   0.241  0.00  0.00    +0.330 C 
ENDROOT
BRANCH   1   4
ATOM      2  N   LIG    1        6.531   6.125   3.313  0.00  0.00    -0.480 N 
ATOM      3  C   LIG    1        6.338   5.844   1.885  0.00  0.00    +0.220 C 
ATOM      4  C   LIG    1        5.103   4.947   1.726  0.00  0.00    +0.120 C 
ATOM      5  O   LIG    1        5.373   3.706   2.387  0.00  0.00    -0.300 OA
ATOM      6  C   LIG    1        5.935   3.783   3.625  0.00  0.00    +0.090 A 
ATOM      7  C   LIG    1        5.931   2.653   4.430  0.00  0.00    -0.010 A 
ATOM      8  C   LIG    1        6.502   2.694   5.689  0.00  0.00    +0.030 A 
ATOM      9  C   LIG    1        7.078   3.863   6.149  0.00  0.00    -0.010 A 
ATOM     10  C   LIG    1        7.084   4.993   5.354  0.00  0.00    +0.040 A 
ATOM     11  C   LIG    1        6.510   4.960   4.087  0.00  0.00    +0.020 A 
BRANCH   2  13
ATOM     12  C   LIG    1        5.921   7.553   5.207  0.00  0.00    +0.040 C 
ATOM     13  C   LIG    1        5.541   7.097   3.797  0.00  0.00    +0.170 C 
ENDBRANCH   2  13
ENDBRANCH   1   4
BRANCH   1  14
ATOM     14  N   LIG    1        3.589   3.938   0.092  0.00  0.00    -0.610 N 
ATOM     15  C   LIG    1        2.417   4.590  -0.039  0.00  0.00    +0.570 C 
ATOM     16  O   LIG    1        2.401   5.804  -0.113  0.00  0.00    -0.520 OA
ATOM     17  C   LIG    1        3.618   2.474   0.084  0.00  0.00    +0.290 C 
BRANCH  15  18
ATOM     18  C   LIG    1        1.153   3.831  -0.091  0.00  0.00    -0.160 A 
ATOM     19  C   LIG    1        1.024   2.739  -0.952  0.00  0.00    +0.110 A 
ATOM     20  C   LIG    1       -0.160   2.033  -0.996  0.00  0.00    -0.080 A 
ATOM     21  C   LIG    1       -1.226   2.407  -0.193  0.00  0.00    +0.100 A 
ATOM     22  C   LIG    1       -1.110   3.482   0.667  0.00  0.00    -0.050 A 
ATOM     23 CL   LIG    1       -0.318   0.675  -2.066  0.00  0.00    -0.060 Cl
ATOM     24  C   LIG    1        0.074   4.202   0.723  0.00  0.00    +0.180 A 
BRANCH  24  25
ATOM     25  O   LIG    1        0.187   5.261   1.563  0.00  0.00    -0.300 OA
ATOM     26  C   LIG    1       -0.954   5.580   2.363  0.00  0.00    +0.250 C 
ENDBRANCH  24  25
ENDBRANCH  15  18
ENDBRANCH   1  14
TORSDOF 5
