REMARK  Name = ZINCrD0000074dj4.0
REMARK                            x       y       z     vdW  Elec       q    Type
REMARK                         _______ _______ _______ _____ _____    ______ ____
ROOT
ATOM      1  C   LIG    1        0.637   1.018   2.303  0.00  0.00    +0.520 C 
ATOM      2  N   LIG    1        0.421  -0.268   2.643  0.00  0.00    -0.610 N 
ATOM      3  C   LIG    1       -0.076  -1.232   1.652  0.00  0.00    +0.280 C 
ATOM      4  C   LIG    1       -1.328  -1.913   2.213  0.00  0.00    +0.020 C 
ATOM      5  C   LIG    1       -1.004  -2.526   3.577  0.00  0.00    +0.030 C 
ATOM      6  C   LIG    1       -0.581  -1.420   4.547  0.00  0.00    +0.050 C 
ATOM      7  C   LIG    1        0.685  -0.734   4.012  0.00  0.00    +0.360 C 
ATOM      8  O   LIG    1        1.104   1.790   3.113  0.00  0.00    -0.490 OA
ENDROOT
BRANCH   7   9
ATOM      9  C   LIG    1        1.034   0.442   4.888  0.00  0.00    +0.180 A 
ATOM     10  N   LIG    1        0.242   1.423   5.212  0.00  0.00    -0.260 NA
ATOM     11  N   LIG    1        0.871   2.246   5.974  0.00  0.00    -0.270 NA
ATOM     12  C   LIG    1        2.090   1.823   6.155  0.00  0.00    +0.170 A 
ATOM     13  O   LIG    1        2.221   0.673   5.473  0.00  0.00    -0.220 OA
BRANCH  12  14
ATOM     14  C   LIG    1        3.156   2.498   6.978  0.00  0.00    +0.340 C 
BRANCH  14  15
ATOM     15  N   LIG    1        3.091   2.009   8.361  0.00  0.00    -0.550 NA
ATOM     16  C   LIG    1        1.838   2.421   9.007  0.00  0.00    +0.200 C 
ATOM     17  C   LIG    1        4.255   2.460   9.135  0.00  0.00    +0.210 C 
ENDBRANCH  14  15
ENDBRANCH  12  14
ENDBRANCH   7   9
BRANCH   1  19
ATOM     18  C   LIG    1        1.197   0.791  -0.102  0.00  0.00    +0.060 C 
ATOM     19  C   LIG    1        0.298   1.497   0.915  0.00  0.00    +0.170 C 
BRANCH  19  20
ATOM     20  O   LIG    1        0.504   2.908   0.834  0.00  0.00    -0.280 OA
BRANCH  20  21
ATOM     21  C   LIG    1       -0.208   3.583  -0.106  0.00  0.00    +0.140 A 
ATOM     22  C   LIG    1       -0.146   4.968  -0.163  0.00  0.00    +0.000 A 
ATOM     23  C   LIG    1       -0.868   5.652  -1.123  0.00  0.00    +0.080 A 
ATOM     24  C   LIG    1       -1.659   4.959  -2.019  0.00  0.00    -0.010 A 
ATOM     25  C   LIG    1       -1.727   3.578  -1.962  0.00  0.00    +0.010 A 
ATOM     26 CL   LIG    1       -2.722   2.711  -3.089  0.00  0.00    -0.060 Cl
ATOM     27  C   LIG    1       -1.003   2.889  -1.007  0.00  0.00    -0.070 A 
ENDBRANCH  20  21
ENDBRANCH  19  20
ENDBRANCH   1  19
TORSDOF 6
