REMARK  Name = ZINCpe00000MJMeI.0
REMARK                            x       y       z     vdW  Elec       q    Type
REMARK                         _______ _______ _______ _____ _____    ______ ____
ROOT
ATOM      1  C   LIG    1       -1.391   3.523   0.094  0.00  0.00    +0.210 C 
ATOM      2  C   LIG    1       -2.914   3.708   0.247  0.00  0.00    +0.140 C 
ATOM      3  C   LIG    1       -3.475   2.325   0.003  0.00  0.00    +0.020 C 
ATOM      4  N   LIG    1       -2.506   1.505  -0.247  0.00  0.00    -0.170 NA
ATOM      5  N   LIG    1       -1.243   2.092  -0.213  0.00  0.00    -0.440 N 
ENDROOT
BRANCH   3   6
ATOM      6  C   LIG    1       -4.895   1.972   0.036  0.00  0.00    +0.600 C 
ATOM      7  N   LIG    1       -5.271   0.682  -0.071  0.00  0.00    -0.590 N 
ATOM      8  C   LIG    1       -4.298  -0.434  -0.088  0.00  0.00    +0.270 C 
ATOM      9  C   LIG    1       -4.712  -1.528   0.896  0.00  0.00    +0.220 C 
ATOM     10  O   LIG    1       -6.114  -1.835   0.796  0.00  0.00    -0.360 OA
ATOM     11  C   LIG    1       -6.904  -0.690   1.016  0.00  0.00    +0.130 C 
ATOM     12  C   LIG    1       -8.417  -0.823   1.065  0.00  0.00    +0.050 C 
ATOM     13  C   LIG    1       -8.961   0.526   0.527  0.00  0.00    +0.020 C 
ATOM     14  C   LIG    1       -7.719   1.355   0.095  0.00  0.00    +0.060 C 
ATOM     15  C   LIG    1       -6.668   0.276  -0.173  0.00  0.00    +0.190 C 
ATOM     16  O   LIG    1       -5.736   2.843   0.160  0.00  0.00    -0.520 OA
ENDBRANCH   3   6
BRANCH   5  17
ATOM     17  C   LIG    1       -0.035   1.432  -0.441  0.00  0.00    +0.220 A 
ATOM     18  C   LIG    1        1.163   2.135  -0.392  0.00  0.00    -0.050 A 
ATOM     19  C   LIG    1        2.356   1.479  -0.623  0.00  0.00    +0.050 A 
ATOM     20  C   LIG    1        2.360   0.125  -0.904  0.00  0.00    -0.030 A 
ATOM     21  C   LIG    1        1.170  -0.578  -0.954  0.00  0.00    +0.050 A 
ATOM     22  C   LIG    1       -0.027   0.071  -0.724  0.00  0.00    -0.020 A 
ENDBRANCH   5  17
BRANCH   1  26
ATOM     23  N   LIG    1       -0.371   5.145   1.659  0.00  0.00    -0.850 N 
ATOM     24  H   LIG    1        0.084   5.365   2.487  0.00  0.00    +0.410 HD
ATOM     25  H   LIG    1       -0.601   5.848   1.031  0.00  0.00    +0.400 HD
ATOM     26  C   LIG    1       -0.684   3.864   1.381  0.00  0.00    +0.510 C 
ATOM     27  O   LIG    1       -0.397   2.986   2.166  0.00  0.00    -0.510 OA
ENDBRANCH   1  26
TORSDOF 3
