REMARK  Name = ZINCpe000000UEV7.0
REMARK                            x       y       z     vdW  Elec       q    Type
REMARK                         _______ _______ _______ _____ _____    ______ ____
ROOT
ATOM      1  C   LIG    1       -0.017   1.385   0.003  0.00  0.00    +0.140 A 
ATOM      2  C   LIG    1        1.059   1.857   0.743  0.00  0.00    +0.080 A 
ATOM      3  C   LIG    1        2.260   1.179   0.735  0.00  0.00    +0.010 A 
ATOM      4  C   LIG    1        2.404   0.015  -0.016  0.00  0.00    +0.220 A 
ATOM      5  N   LIG    1        3.623  -0.657  -0.005  0.00  0.00    -0.660 N 
ATOM      6  H   LIG    1        4.210  -0.482   0.747  0.00  0.00    +0.420 HD
ATOM      7  C   LIG    1        4.064  -1.513  -0.922  0.00  0.00    +0.540 C 
ATOM      8  C   LIG    1        3.276  -1.904  -2.143  0.00  0.00    -0.280 C 
ATOM      9  S   LIG    1        1.509  -1.922  -1.713  0.00  0.00    +2.510 S 
ATOM     10  O   LIG    1        1.222  -2.978  -0.806  0.00  0.00    -0.910 OA
ATOM     11  O   LIG    1        0.708  -1.702  -2.866  0.00  0.00    -0.910 OA
ATOM     12  O   LIG    1        5.161  -2.006  -0.765  0.00  0.00    -0.490 OA
ATOM     13  C   LIG    1        1.323  -0.450  -0.756  0.00  0.00    -0.660 A 
ATOM     14  C   LIG    1        0.122   0.224  -0.748  0.00  0.00    +0.170 A 
ENDROOT
BRANCH   1  18
ATOM     15  C   LIG    1       -3.575   3.520  -0.165  0.00  0.00    +0.290 C 
ATOM     16  N   LIG    1       -3.564   2.055  -0.173  0.00  0.00    -0.620 N 
ATOM     17  C   LIG    1       -2.396   1.389  -0.081  0.00  0.00    +0.710 C 
ATOM     18  N   LIG    1       -1.238   2.071   0.019  0.00  0.00    -0.680 N 
ATOM     19  H   LIG    1       -1.250   3.038   0.102  0.00  0.00    +0.410 HD
ATOM     20  O   LIG    1       -2.386   0.173  -0.088  0.00  0.00    -0.570 OA
BRANCH  16  21
ATOM     21  C   LIG    1       -4.823   1.313  -0.282  0.00  0.00    +0.400 C 
BRANCH  21  22
ATOM     22  C   LIG    1       -5.372   1.050   1.097  0.00  0.00    +0.060 A 
ATOM     23  C   LIG    1       -6.282   1.808   1.751  0.00  0.00    -0.110 A 
ATOM     24  C   LIG    1       -6.519   1.216   2.996  0.00  0.00    +0.220 A 
ATOM     25  N   LIG    1       -5.772   0.146   3.089  0.00  0.00    -0.290 NA
ATOM     26  N   LIG    1       -5.039   0.020   1.903  0.00  0.00    -0.350 N 
ATOM     27  C   LIG    1       -4.080  -1.043   1.591  0.00  0.00    +0.360 C 
ENDBRANCH  21  22
ENDBRANCH  16  21
ENDBRANCH   1  18
TORSDOF 3
