REMARK  Name = ZINCvU0000000IIN.0
REMARK                            x       y       z     vdW  Elec       q    Type
REMARK                         _______ _______ _______ _____ _____    ______ ____
ROOT
ATOM      1  C   LIG    1        5.359   1.037   0.396  0.00  0.00    +0.460 A 
ATOM      2  N   LIG    1        5.349  -0.055   1.109  0.00  0.00    -0.550 NA
ATOM      3  C   LIG    1        6.432  -0.844   1.194  0.00  0.00    +0.540 A 
ATOM      4  C   LIG    1        7.653  -0.458   0.461  0.00  0.00    -0.210 A 
ATOM      5  C   LIG    1        7.606   0.710  -0.279  0.00  0.00    +0.060 A 
ATOM      6  S   LIG    1        9.152   0.985  -1.067  0.00  0.00    +0.190 S 
ATOM      7  C   LIG    1        9.839  -0.478  -0.387  0.00  0.00    -0.040 A 
ATOM      8  C   LIG    1        8.950  -1.114   0.376  0.00  0.00    +0.010 A 
ATOM      9  O   LIG    1        6.407  -1.863   1.865  0.00  0.00    -0.460 OA
ATOM     10  N   LIG    1        6.436   1.438  -0.297  0.00  0.00    -0.580 N 
ATOM     11  H   LIG    1        6.391   2.257  -0.816  0.00  0.00    +0.420 HD
ENDROOT
BRANCH   8  12
ATOM     12  C   LIG    1        9.257  -2.382   1.080  0.00  0.00    -0.040 A 
ATOM     13  C   LIG    1        8.979  -2.513   2.440  0.00  0.00    +0.060 A 
ATOM     14  C   LIG    1        9.260  -3.698   3.088  0.00  0.00    +0.000 A 
ATOM     15  C   LIG    1        9.829  -4.751   2.393  0.00  0.00    +0.010 A 
ATOM     16  C   LIG    1       10.113  -4.625   1.046  0.00  0.00    -0.010 A 
ATOM     17  C   LIG    1        9.830  -3.447   0.385  0.00  0.00    +0.020 A 
ENDBRANCH   8  12
BRANCH   1  18
ATOM     18  C   LIG    1        4.109   1.878   0.342  0.00  0.00    +0.060 C 
ATOM     19  C   LIG    1        4.080   2.824   1.544  0.00  0.00    +0.090 C 
BRANCH  18  20
ATOM     20  S   LIG    1        2.652   0.799   0.386  0.00  0.00    -0.070 S 
BRANCH  20  21
ATOM     21  C   LIG    1        1.277   1.961   0.161  0.00  0.00    +0.080 C 
BRANCH  21  24
ATOM     22  N   LIG    1       -1.191   1.867   0.018  0.00  0.00    -0.670 N 
ATOM     23  H   LIG    1       -1.196   2.836  -0.023  0.00  0.00    +0.410 HD
ATOM     24  C   LIG    1       -0.027   1.205   0.175  0.00  0.00    +0.530 C 
ATOM     25  O   LIG    1       -0.028   0.001   0.322  0.00  0.00    -0.490 OA
BRANCH  22  30
ATOM     26  C   LIG    1       -6.058  -1.017  -0.404  0.00  0.00    +0.090 C 
ATOM     27  C   LIG    1       -4.765  -0.251  -0.291  0.00  0.00    -0.100 A 
ATOM     28  C   LIG    1       -3.597  -0.790  -0.800  0.00  0.00    +0.030 A 
ATOM     29  C   LIG    1       -2.412  -0.088  -0.704  0.00  0.00    +0.010 A 
ATOM     30  C   LIG    1       -2.391   1.155  -0.086  0.00  0.00    +0.140 A 
ATOM     31  C   LIG    1       -3.566   1.694   0.424  0.00  0.00    -0.010 A 
ATOM     32  C   LIG    1       -4.748   0.989   0.320  0.00  0.00    -0.070 A 
ATOM     33  C   LIG    1       -6.023   1.573   0.872  0.00  0.00    +0.090 C 
ENDBRANCH  22  30
ENDBRANCH  21  24
ENDBRANCH  20  21
ENDBRANCH  18  20
ENDBRANCH   1  18
TORSDOF 6
