REMARK  Name = ZINCvU0000000J60.0
REMARK                            x       y       z     vdW  Elec       q    Type
REMARK                         _______ _______ _______ _____ _____    ______ ____
ROOT
ATOM      1  C   LIG    1        8.289   7.092   0.244  0.00  0.00    +0.510 C 
ATOM      2  O   LIG    1        9.321   6.454   0.182  0.00  0.00    -0.480 OA
ENDROOT
BRANCH   1   3
ATOM      3  C   LIG    1        8.261   8.495  -0.214  0.00  0.00    -0.090 A 
ATOM      4  C   LIG    1        7.096   9.251  -0.088  0.00  0.00    +0.090 A 
ATOM      5  C   LIG    1        7.077  10.564  -0.512  0.00  0.00    +0.030 A 
ATOM      6  C   LIG    1        8.206  11.136  -1.075  0.00  0.00    +0.060 A 
ATOM      7  C   LIG    1        9.367  10.402  -1.213  0.00  0.00    +0.040 A 
ATOM      8  C   LIG    1        9.409   9.077  -0.786  0.00  0.00    +0.030 A 
BRANCH   8   9
ATOM      9  C   LIG    1       10.649   8.288  -0.931  0.00  0.00    +0.150 A 
ATOM     10  N   LIG    1       10.742   7.170  -1.569  0.00  0.00    -0.420 NA
ATOM     11  C   LIG    1       11.937   6.570  -1.620  0.00  0.00    +0.090 A 
ATOM     12  C   LIG    1       12.292   5.357  -2.252  0.00  0.00    +0.070 A 
ATOM     13  C   LIG    1       13.570   4.895  -2.191  0.00  0.00    +0.030 A 
ATOM     14  C   LIG    1       14.551   5.602  -1.509  0.00  0.00    +0.040 A 
ATOM     15  C   LIG    1       14.235   6.786  -0.882  0.00  0.00    +0.050 A 
ATOM     16  C   LIG    1       12.932   7.277  -0.933  0.00  0.00    -0.170 A 
ATOM     17  S   LIG    1       12.209   8.732  -0.252  0.00  0.00    +0.070 S 
ENDBRANCH   8   9
ENDBRANCH   1   3
BRANCH   1  18
ATOM     18  O   LIG    1        7.171   6.520   0.731  0.00  0.00    -0.330 OA
BRANCH  18  19
ATOM     19  C   LIG    1        7.272   5.137   1.163  0.00  0.00    +0.270 C 
BRANCH  19  22
ATOM     20  N   LIG    1        5.787   3.411   2.129  0.00  0.00    -0.670 N 
ATOM     21  H   LIG    1        6.559   2.827   2.196  0.00  0.00    +0.410 HD
ATOM     22  C   LIG    1        5.933   4.671   1.672  0.00  0.00    +0.520 C 
ATOM     23  O   LIG    1        4.986   5.429   1.672  0.00  0.00    -0.490 OA
BRANCH  20  27
ATOM     24  C   LIG    1        2.022   2.026   3.253  0.00  0.00    -0.090 A 
ATOM     25  C   LIG    1        3.148   1.581   3.920  0.00  0.00    +0.030 A 
ATOM     26  C   LIG    1        4.398   2.034   3.547  0.00  0.00    -0.010 A 
ATOM     27  C   LIG    1        4.522   2.946   2.506  0.00  0.00    +0.140 A 
ATOM     28  C   LIG    1        3.389   3.394   1.841  0.00  0.00    +0.010 A 
ATOM     29  C   LIG    1        2.142   2.933   2.216  0.00  0.00    +0.030 A 
BRANCH  24  31
ATOM     30  C   LIG    1        0.399   1.890   5.123  0.00  0.00    +0.030 C 
ATOM     31  C   LIG    1        0.660   1.525   3.660  0.00  0.00    +0.020 C 
ATOM     32  C   LIG    1        0.606   0.005   3.496  0.00  0.00    +0.040 C 
ENDBRANCH  24  31
ENDBRANCH  20  27
ENDBRANCH  19  22
ENDBRANCH  18  19
ENDBRANCH   1  18
TORSDOF 7
