REMARK  Name = ZINCrg000000qNlS.0
REMARK                            x       y       z     vdW  Elec       q    Type
REMARK                         _______ _______ _______ _____ _____    ______ ____
ROOT
ATOM      1  C   LIG    1        1.138   2.058  -2.490  0.00  0.00    +0.580 C 
ATOM      2  N   LIG    1        1.382   0.873  -3.084  0.00  0.00    -0.720 N 
ATOM      3  H   LIG    1        1.990   0.240  -2.671  0.00  0.00    +0.400 HD
ATOM      4  O   LIG    1        0.375   2.852  -3.007  0.00  0.00    -0.500 OA
ENDROOT
BRANCH   1   9
ATOM      5  C   LIG    1        1.810   2.382   1.200  0.00  0.00    +0.110 A 
ATOM      6  C   LIG    1        3.038   3.023   1.190  0.00  0.00    +0.000 A 
ATOM      7  C   LIG    1        3.644   3.355  -0.010  0.00  0.00    +0.040 A 
ATOM      8  C   LIG    1        3.033   3.045  -1.209  0.00  0.00    +0.110 A 
ATOM      9  C   LIG    1        1.795   2.392  -1.213  0.00  0.00    -0.150 A 
ATOM     10  F   LIG    1        3.630   3.372  -2.376  0.00  0.00    -0.130 F 
ATOM     11  C   LIG    1        1.184   2.058   0.002  0.00  0.00    +0.130 A 
BRANCH   5  13
ATOM     12  C   LIG    1        1.919   2.427   3.576  0.00  0.00    +0.250 C 
ATOM     13  O   LIG    1        1.220   2.064   2.384  0.00  0.00    -0.300 OA
ENDBRANCH   5  13
BRANCH  11  14
ATOM     14  O   LIG    1       -0.017   1.425   0.010  0.00  0.00    -0.310 OA
ATOM     15  C   LIG    1        0.002  -0.004   0.002  0.00  0.00    +0.220 C 
ENDBRANCH  11  14
ENDBRANCH   1   9
BRANCH   2  16
ATOM     16  C   LIG    1        0.729   0.541  -4.353  0.00  0.00    +0.310 C 
BRANCH  16  17
ATOM     17  C   LIG    1        1.175  -0.850  -4.807  0.00  0.00    -0.380 C 
BRANCH  17  18
ATOM     18  S   LIG    1        0.366  -1.261  -6.378  0.00  0.00    +2.620 S 
ATOM     19  O   LIG    1        0.860  -0.436  -7.424  0.00  0.00    -0.940 OA
ATOM     20  O   LIG    1       -1.030  -1.445  -6.187  0.00  0.00    -0.940 OA
BRANCH  18  21
ATOM     21  N   LIG    1        0.930  -2.773  -6.750  0.00  0.00    -1.000 NA
ATOM     22  C   LIG    1        2.148  -2.950  -7.556  0.00  0.00    +0.280 C 
ATOM     23  C   LIG    1        3.075  -3.928  -6.816  0.00  0.00    +0.130 C 
ATOM     24  O   LIG    1        2.346  -5.116  -6.499  0.00  0.00    -0.370 OA
ATOM     25  C   LIG    1        1.242  -4.907  -5.615  0.00  0.00    +0.130 C 
ATOM     26  C   LIG    1        0.579  -6.249  -5.299  0.00  0.00    +0.070 C 
ATOM     27  C   LIG    1        4.264  -4.281  -7.711  0.00  0.00    +0.070 C 
ATOM     28  C   LIG    1        0.224  -3.979  -6.289  0.00  0.00    +0.280 C 
ENDBRANCH  18  21
ENDBRANCH  17  18
ENDBRANCH  16  17
ENDBRANCH   2  16
TORSDOF 7
