REMARK  Name = ZINCnE000008Jbef.1
REMARK                            x       y       z     vdW  Elec       q    Type
REMARK                         _______ _______ _______ _____ _____    ______ ____
ROOT
ATOM      1  C   LIG    1        3.841  -3.227  -0.052  0.00  0.00    +0.070 C 
ATOM      2  C   LIG    1        3.031  -2.162  -0.281  0.00  0.00    +0.020 C 
ATOM      3  O   LIG    1        3.430  -0.886  -0.498  0.00  0.00    -0.220 OA
ATOM      4  C   LIG    1        2.381  -0.058  -0.694  0.00  0.00    +0.160 A 
ATOM      5  C   LIG    1        2.322   1.307  -0.945  0.00  0.00    -0.160 A 
ATOM      6  C   LIG    1        1.095   1.928  -1.111  0.00  0.00    +0.320 A 
ATOM      7  C   LIG    1       -0.087   1.196  -1.028  0.00  0.00    -0.170 A 
ATOM      8  C   LIG    1       -0.046  -0.147  -0.781  0.00  0.00    +0.140 A 
ATOM      9  O   LIG    1        1.044   3.262  -1.358  0.00  0.00    -0.690 OA
ATOM     10  C   LIG    1        1.182  -0.786  -0.612  0.00  0.00    -0.400 A 
ATOM     11  C   LIG    1        1.563  -2.184  -0.340  0.00  0.00    +0.410 C 
ATOM     12  O   LIG    1        0.825  -3.143  -0.196  0.00  0.00    -0.470 OA
ENDROOT
BRANCH   1  17
ATOM     13  C   LIG    1        7.488  -4.069  -0.412  0.00  0.00    +0.110 A 
ATOM     14  C   LIG    1        8.050  -2.803  -0.410  0.00  0.00    -0.070 A 
ATOM     15  C   LIG    1        7.247  -1.679  -0.292  0.00  0.00    +0.050 A 
ATOM     16  C   LIG    1        5.881  -1.809  -0.175  0.00  0.00    +0.020 A 
ATOM     17  C   LIG    1        5.296  -3.083  -0.176  0.00  0.00    -0.030 A 
ATOM     18  C   LIG    1        6.111  -4.220  -0.291  0.00  0.00    +0.070 A 
BRANCH  18  19
ATOM     19  O   LIG    1        5.558  -5.460  -0.288  0.00  0.00    -0.320 OA
ATOM     20  C   LIG    1        5.181  -6.005  -1.553  0.00  0.00    +0.210 C 
ENDBRANCH  18  19
BRANCH  13  21
ATOM     21  O   LIG    1        8.284  -5.166  -0.528  0.00  0.00    -0.310 OA
BRANCH  21  23
ATOM     22  C   LIG    1       10.417  -6.279  -0.763  0.00  0.00    +0.070 C 
ATOM     23  C   LIG    1        9.690  -4.937  -0.643  0.00  0.00    +0.170 C 
ENDBRANCH  21  23
ENDBRANCH  13  21
ENDBRANCH   1  17
TORSDOF 4
