REMARK  Name = ZINCnE000001TyDT.0
REMARK                            x       y       z     vdW  Elec       q    Type
REMARK                         _______ _______ _______ _____ _____    ______ ____
ROOT
ATOM      1  C   LIG    1       -3.059   1.442   1.780  0.00  0.00    -0.030 C 
ATOM      2  C   LIG    1       -3.167   2.955   1.982  0.00  0.00    +0.020 C 
ATOM      3  C   LIG    1       -1.769   3.576   1.956  0.00  0.00    +0.010 C 
ATOM      4  C   LIG    1       -1.122   3.314   0.597  0.00  0.00    +0.250 C 
ATOM      5  N   LIG    1       -1.147   1.870   0.326  0.00  0.00    -0.600 N 
ATOM      6  C   LIG    1       -0.014   1.211   0.009  0.00  0.00    +0.550 C 
ATOM      7  O   LIG    1       -0.057   0.030  -0.276  0.00  0.00    -0.520 OA
ATOM      8  C   LIG    1       -2.428   1.156   0.413  0.00  0.00    +0.280 C 
ENDROOT
BRANCH   6   9
ATOM      9  C   LIG    1        1.279   1.927   0.000  0.00  0.00    -0.080 A 
ATOM     10  C   LIG    1        1.409   3.132  -0.692  0.00  0.00    +0.050 A 
ATOM     11  C   LIG    1        2.617   3.798  -0.691  0.00  0.00    +0.070 A 
ATOM     12  C   LIG    1        3.702   3.268  -0.015  0.00  0.00    -0.170 A 
ATOM     13  C   LIG    1        3.582   2.070   0.668  0.00  0.00    +0.070 A 
ATOM     14  C   LIG    1        2.378   1.397   0.680  0.00  0.00    +0.070 A 
BRANCH  12  15
ATOM     15  C   LIG    1        5.021   3.998  -0.023  0.00  0.00    +0.510 C 
ATOM     16  F   LIG    1        5.710   3.729   1.165  0.00  0.00    -0.180 F 
ATOM     17  F   LIG    1        4.791   5.374  -0.128  0.00  0.00    -0.180 F 
ATOM     18  F   LIG    1        5.785   3.568  -1.113  0.00  0.00    -0.170 F 
ENDBRANCH  12  15
ENDBRANCH   6   9
BRANCH   1  19
ATOM     19  C   LIG    1       -4.455   0.818   1.838  0.00  0.00    +0.040 C 
BRANCH  19  20
ATOM     20  C   LIG    1       -4.336  -0.706   1.758  0.00  0.00    -0.080 C 
BRANCH  20  22
ATOM     21  O   LIG    1       -6.694  -0.606   1.911  0.00  0.00    -0.700 OA
ATOM     22  C   LIG    1       -5.711  -1.320   1.815  0.00  0.00    +0.490 C 
ATOM     23  O   LIG    1       -5.840  -2.532   1.765  0.00  0.00    -0.710 OA
ENDBRANCH  20  22
ENDBRANCH  19  20
ENDBRANCH   1  19
TORSDOF 5
