REMARK  Name = ZINCnE000001NeNV.0
REMARK                            x       y       z     vdW  Elec       q    Type
REMARK                         _______ _______ _______ _____ _____    ______ ____
ROOT
ATOM      1  C   LIG    1        3.112   4.229  -0.123  0.00  0.00    -0.130 A 
ATOM      2  C   LIG    1        4.077   3.237  -0.017  0.00  0.00    +0.010 A 
ATOM      3  C   LIG    1        5.417   3.575  -0.009  0.00  0.00    -0.010 A 
ATOM      4  C   LIG    1        5.802   4.899  -0.106  0.00  0.00    +0.030 A 
ATOM      5  C   LIG    1        4.848   5.895  -0.211  0.00  0.00    +0.030 A 
ATOM      6  C   LIG    1        3.501   5.566  -0.227  0.00  0.00    +0.190 A 
ENDROOT
BRANCH   6   7
ATOM      7  N   LIG    1        2.534   6.572  -0.340  0.00  0.00    -0.650 N 
ATOM      8  H   LIG    1        1.637   6.422  -0.002  0.00  0.00    +0.420 HD
ATOM      9  C   LIG    1        2.849   7.747  -0.919  0.00  0.00    +0.570 C 
ATOM     10  O   LIG    1        3.940   7.899  -1.432  0.00  0.00    -0.490 OA
BRANCH   9  11
ATOM     11  C   LIG    1        1.863   8.857  -0.929  0.00  0.00    +0.140 A 
ATOM     12  C   LIG    1        2.181  10.063  -1.521  0.00  0.00    -0.260 A 
ATOM     13  C   LIG    1        1.210  11.095  -1.508  0.00  0.00    +0.500 A 
ATOM     14  N   LIG    1        0.019  10.852  -0.919  0.00  0.00    -0.640 NA
ATOM     15  C   LIG    1       -0.229   9.652  -0.359  0.00  0.00    +0.500 A 
ATOM     16  O   LIG    1        1.444  12.177  -2.017  0.00  0.00    -0.580 OA
ATOM     17 BR   LIG    1        3.870  10.332  -2.328  0.00  0.00    -0.040 Br
ATOM     18  N   LIG    1        0.653   8.692  -0.368  0.00  0.00    -0.610 NA
ENDBRANCH   9  11
ENDBRANCH   6   7
BRANCH   1  19
ATOM     19  S   LIG    1        1.403   3.803  -0.135  0.00  0.00    -0.080 S 
BRANCH  19  20
ATOM     20  C   LIG    1        1.433   1.995   0.012  0.00  0.00    +0.090 C 
BRANCH  20  22
ATOM     21  C   LIG    1       -0.726   1.956   1.269  0.00  0.00    +0.080 C 
ATOM     22  C   LIG    1       -0.001   1.460   0.016  0.00  0.00    +0.150 C 
BRANCH  22  23
ATOM     23  C   LIG    1        0.025  -0.012   0.015  0.00  0.00    +0.210 C 
ATOM     24  N   LIG    1        0.044  -1.148   0.013  0.00  0.00    -0.430 NA
ENDBRANCH  22  23
ENDBRANCH  20  22
ENDBRANCH  19  20
ENDBRANCH   1  19
TORSDOF 6
