REMARK  Name = ZINCrH000004rTpp.0
REMARK                            x       y       z     vdW  Elec       q    Type
REMARK                         _______ _______ _______ _____ _____    ______ ____
ROOT
ATOM      1  N   LIG    1       -1.147  -4.459   4.374  0.00  0.00    -0.740 N 
ATOM      2  H   LIG    1       -1.824  -3.930   3.923  0.00  0.00    +0.400 HD
ATOM      3  C   LIG    1       -1.356  -4.888   5.635  0.00  0.00    +0.700 C 
ATOM      4  N   LIG    1       -2.506  -4.581   6.269  0.00  0.00    -0.680 N 
ATOM      5  H   LIG    1       -3.153  -3.997   5.844  0.00  0.00    +0.410 HD
ATOM      6  O   LIG    1       -0.508  -5.551   6.200  0.00  0.00    -0.570 OA
ENDROOT
BRANCH   4   7
ATOM      7  C   LIG    1       -2.764  -5.106   7.540  0.00  0.00    +0.200 A 
ATOM      8  C   LIG    1       -4.063  -5.439   7.904  0.00  0.00    -0.050 A 
ATOM      9  C   LIG    1       -4.318  -5.961   9.157  0.00  0.00    +0.070 A 
ATOM     10  C   LIG    1       -3.284  -6.144  10.056  0.00  0.00    -0.100 A 
ATOM     11  C   LIG    1       -1.986  -5.808   9.700  0.00  0.00    +0.150 A 
ATOM     12  C   LIG    1       -1.725  -5.289   8.441  0.00  0.00    +0.000 A 
BRANCH  11  13
ATOM     13  O   LIG    1       -0.970  -5.988  10.584  0.00  0.00    -0.300 OA
BRANCH  13  14
ATOM     14  C   LIG    1       -1.311  -6.528  11.863  0.00  0.00    +0.220 C 
BRANCH  14  15
ATOM     15  C   LIG    1       -0.048  -6.657  12.716  0.00  0.00    +0.160 C 
ATOM     16  C   LIG    1       -0.372  -7.354  14.056  0.00  0.00    +0.010 C 
ATOM     17  C   LIG    1        0.522  -6.625  15.084  0.00  0.00    +0.000 C 
ATOM     18  C   LIG    1        1.281  -5.575  14.243  0.00  0.00    +0.190 C 
ATOM     19  O   LIG    1        0.443  -5.351  13.088  0.00  0.00    -0.360 OA
ENDBRANCH  14  15
ENDBRANCH  13  14
ENDBRANCH  11  13
ENDBRANCH   4   7
BRANCH   1  20
ATOM     20  C   LIG    1        0.102  -4.793   3.685  0.00  0.00    +0.310 C 
BRANCH  20  21
ATOM     21  C   LIG    1        0.085  -4.190   2.279  0.00  0.00    +0.200 C 
BRANCH  21  22
ATOM     22  O   LIG    1        0.073  -2.764   2.372  0.00  0.00    -0.310 OA
BRANCH  22  28
ATOM     23  C   LIG    1        0.016   1.529   0.049  0.00  0.00    +0.090 C 
ATOM     24  C   LIG    1        0.029   0.022   0.032  0.00  0.00    -0.050 A 
ATOM     25  C   LIG    1        0.019  -0.655  -1.173  0.00  0.00    -0.040 A 
ATOM     26  C   LIG    1        0.036  -2.038  -1.193  0.00  0.00    +0.050 A 
ATOM     27  C   LIG    1        0.053  -2.746  -0.007  0.00  0.00    -0.090 A 
ATOM     28  C   LIG    1        0.057  -2.069   1.204  0.00  0.00    +0.130 A 
ATOM     29  C   LIG    1        0.046  -0.682   1.221  0.00  0.00    -0.020 A 
ENDBRANCH  22  28
ENDBRANCH  21  22
ENDBRANCH  20  21
ENDBRANCH   1  20
TORSDOF 8
