REMARK  Name = ZINCqH0000051znt.0
REMARK                            x       y       z     vdW  Elec       q    Type
REMARK                         _______ _______ _______ _____ _____    ______ ____
ROOT
ATOM      1  C   LIG    1       -0.718   1.572   1.248  0.00  0.00    +0.170 A 
ATOM      2  N   LIG    1       -1.674   0.953   1.883  0.00  0.00    -0.240 NA
ATOM      3  N   LIG    1       -2.042   1.654   2.897  0.00  0.00    -0.250 NA
ATOM      4  C   LIG    1       -1.327   2.753   2.944  0.00  0.00    +0.210 A 
ATOM      5  O   LIG    1       -0.472   2.719   1.903  0.00  0.00    -0.210 OA
ENDROOT
BRANCH   4   6
ATOM      6  C   LIG    1       -1.436   3.828   3.954  0.00  0.00    +0.020 A 
ATOM      7  C   LIG    1       -0.603   4.944   3.883  0.00  0.00    +0.080 A 
ATOM      8  C   LIG    1       -0.713   5.945   4.826  0.00  0.00    +0.120 A 
ATOM      9  C   LIG    1       -1.640   5.838   5.847  0.00  0.00    -0.020 A 
ATOM     10  C   LIG    1       -2.467   4.731   5.927  0.00  0.00    +0.120 A 
ATOM     11  C   LIG    1       -2.370   3.726   4.987  0.00  0.00    +0.110 A 
BRANCH   9  12
ATOM     12  N   LIG    1       -1.750   6.913   6.859  0.00  0.00    +0.020 N 
ATOM     13  O   LIG    1       -1.024   7.889   6.792  0.00  0.00    -0.150 OA
ATOM     14  O   LIG    1       -2.565   6.822   7.759  0.00  0.00    -0.150 OA
ENDBRANCH   9  12
ENDBRANCH   4   6
BRANCH   1  15
ATOM     15  C   LIG    1       -0.013   1.086   0.008  0.00  0.00    +0.410 C 
BRANCH  15  16
ATOM     16  O   LIG    1       -0.715   1.567  -1.168  0.00  0.00    -0.350 OA
BRANCH  16  18
ATOM     17  O   LIG    1        0.791   0.531  -2.429  0.00  0.00    -0.470 OA
ATOM     18  C   LIG    1       -0.209   1.218  -2.368  0.00  0.00    +0.520 C 
BRANCH  18  19
ATOM     19  C   LIG    1       -0.871   1.671  -3.606  0.00  0.00    -0.140 A 
ATOM     20  C   LIG    1       -2.024   2.456  -3.539  0.00  0.00    +0.140 A 
ATOM     21  C   LIG    1       -2.634   2.882  -4.700  0.00  0.00    +0.000 A 
ATOM     22  C   LIG    1       -2.112   2.521  -5.933  0.00  0.00    +0.160 A 
ATOM     23  C   LIG    1       -0.971   1.737  -6.008  0.00  0.00    +0.000 A 
ATOM     24  F   LIG    1       -2.718   2.937  -7.067  0.00  0.00    -0.120 F 
ATOM     25  C   LIG    1       -0.348   1.310  -4.853  0.00  0.00    +0.050 A 
ATOM     26 CL   LIG    1        1.080   0.328  -4.947  0.00  0.00    -0.010 Cl
ENDBRANCH  18  19
ENDBRANCH  16  18
ENDBRANCH  15  16
ENDBRANCH   1  15
TORSDOF 6
