REMARK  Name = ZINCrH000004rDCL.0
REMARK                            x       y       z     vdW  Elec       q    Type
REMARK                         _______ _______ _______ _____ _____    ______ ____
ROOT
ATOM      1  C   LIG    1       -4.666  -3.458   1.106  0.00  0.00    +0.570 C 
ATOM      2  N   LIG    1       -4.222  -2.522   0.245  0.00  0.00    -0.600 N 
ATOM      3  C   LIG    1       -2.803  -2.442  -0.133  0.00  0.00    +0.320 C 
ATOM      4  C   LIG    1       -2.372  -1.002  -0.130  0.00  0.00    -0.060 C 
ATOM      5  C   LIG    1       -3.211   0.005  -0.029  0.00  0.00    -0.020 C 
ATOM      6  C   LIG    1       -4.698  -0.143   0.102  0.00  0.00    +0.080 C 
ATOM      7  C   LIG    1       -5.138  -1.536  -0.355  0.00  0.00    +0.290 C 
ATOM      8  O   LIG    1       -5.854  -3.549   1.345  0.00  0.00    -0.520 OA
ENDROOT
BRANCH   5   9
ATOM      9  C   LIG    1       -2.655   1.369  -0.053  0.00  0.00    -0.200 A 
ATOM     10  C   LIG    1       -1.849   1.936  -1.029  0.00  0.00    +0.250 A 
ATOM     11  N   LIG    1       -1.552   3.186  -0.693  0.00  0.00    -0.550 NA
ATOM     12  C   LIG    1       -2.101   3.537   0.460  0.00  0.00    +0.260 A 
ATOM     13  N   LIG    1       -2.081   4.694   1.197  0.00  0.00    -0.500 N 
ATOM     14  H   LIG    1       -1.583   5.461   0.873  0.00  0.00    +0.430 HD
ATOM     15  C   LIG    1       -2.743   4.777   2.362  0.00  0.00    +0.330 A 
ATOM     16  C   LIG    1       -3.455   3.728   2.858  0.00  0.00    -0.070 A 
ATOM     17  C   LIG    1       -3.514   2.527   2.158  0.00  0.00    +0.180 A 
ATOM     18  C   LIG    1       -2.830   2.423   0.953  0.00  0.00    -0.150 A 
ENDBRANCH   5   9
BRANCH   1  25
ATOM     19  C   LIG    1       -4.638  -3.680   3.991  0.00  0.00    +0.130 C 
ATOM     20  C   LIG    1       -3.685  -4.491   3.150  0.00  0.00    +0.020 A 
ATOM     21  C   LIG    1       -2.793  -5.353   3.753  0.00  0.00    +0.040 A 
ATOM     22  C   LIG    1       -1.914  -6.095   2.982  0.00  0.00    +0.130 A 
ATOM     23  C   LIG    1       -1.928  -5.981   1.604  0.00  0.00    -0.050 A 
ATOM     24  C   LIG    1       -2.819  -5.126   0.988  0.00  0.00    +0.140 A 
ATOM     25  C   LIG    1       -3.708  -4.376   1.759  0.00  0.00    -0.130 A 
BRANCH  23  26
ATOM     26  N   LIG    1       -0.984  -6.777   0.788  0.00  0.00    +0.030 N 
ATOM     27  O   LIG    1       -0.197  -7.532   1.330  0.00  0.00    -0.150 OA
ATOM     28  O   LIG    1       -0.995  -6.677  -0.426  0.00  0.00    -0.160 OA
ENDBRANCH  23  26
ENDBRANCH   1  25
TORSDOF 3
