REMARK  Name = ZINCrH000004rDCL.1
REMARK                            x       y       z     vdW  Elec       q    Type
REMARK                         _______ _______ _______ _____ _____    ______ ____
ROOT
ATOM      1  C   LIG    1        1.829  -1.878  -1.159  0.00  0.00    +0.570 C 
ATOM      2  N   LIG    1        1.782  -1.121  -0.045  0.00  0.00    -0.610 N 
ATOM      3  C   LIG    1        0.500  -0.717   0.551  0.00  0.00    +0.320 C 
ATOM      4  C   LIG    1        0.577   0.731   0.949  0.00  0.00    -0.040 C 
ATOM      5  C   LIG    1        1.695   1.417   0.968  0.00  0.00    -0.030 C 
ATOM      6  C   LIG    1        3.035   0.864   0.582  0.00  0.00    +0.070 C 
ATOM      7  C   LIG    1        3.013  -0.666   0.624  0.00  0.00    +0.290 C 
ATOM      8  O   LIG    1        2.898  -2.118  -1.687  0.00  0.00    -0.520 OA
ENDROOT
BRANCH   5   9
ATOM      9  C   LIG    1        1.631   2.828   1.397  0.00  0.00    -0.140 A 
ATOM     10  C   LIG    1        2.038   3.333   2.590  0.00  0.00    +0.260 A 
ATOM     11  N   LIG    1        1.819   4.681   2.618  0.00  0.00    -0.580 N 
ATOM     12  H   LIG    1        2.030   5.261   3.366  0.00  0.00    +0.420 HD
ATOM     13  C   LIG    1        1.257   5.099   1.434  0.00  0.00    +0.280 A 
ATOM     14  N   LIG    1        0.868   6.286   0.987  0.00  0.00    -0.500 NA
ATOM     15  C   LIG    1        0.346   6.436  -0.212  0.00  0.00    +0.300 A 
ATOM     16  C   LIG    1        0.176   5.360  -1.069  0.00  0.00    -0.060 A 
ATOM     17  C   LIG    1        0.562   4.098  -0.657  0.00  0.00    +0.100 A 
ATOM     18  C   LIG    1        1.118   3.964   0.615  0.00  0.00    -0.140 A 
ENDBRANCH   5   9
BRANCH   1  25
ATOM     19  C   LIG    1        1.386  -1.699  -4.013  0.00  0.00    +0.130 C 
ATOM     20  C   LIG    1        0.356  -2.336  -3.116  0.00  0.00    +0.020 A 
ATOM     21  C   LIG    1       -0.808  -2.845  -3.653  0.00  0.00    +0.040 A 
ATOM     22  C   LIG    1       -1.758  -3.424  -2.830  0.00  0.00    +0.130 A 
ATOM     23  C   LIG    1       -1.544  -3.502  -1.465  0.00  0.00    -0.060 A 
ATOM     24  C   LIG    1       -0.381  -3.002  -0.916  0.00  0.00    +0.140 A 
ATOM     25  C   LIG    1        0.581  -2.416  -1.741  0.00  0.00    -0.130 A 
BRANCH  23  26
ATOM     26  N   LIG    1       -2.565  -4.123  -0.592  0.00  0.00    +0.030 N 
ATOM     27  O   LIG    1       -3.592  -4.565  -1.075  0.00  0.00    -0.150 OA
ATOM     28  O   LIG    1       -2.378  -4.192   0.610  0.00  0.00    -0.160 OA
ENDBRANCH  23  26
ENDBRANCH   1  25
TORSDOF 3
