REMARK  Name = ZINCrg00000c6pYp.0
REMARK                            x       y       z     vdW  Elec       q    Type
REMARK                         _______ _______ _______ _____ _____    ______ ____
ROOT
ATOM      1  O   LIG    1       -1.920  -1.505  -2.248  0.00  0.00    -0.530 OA
ATOM      2  C   LIG    1       -1.750  -2.367  -1.412  0.00  0.00    +0.510 C 
ATOM      3  N   LIG    1       -1.558  -2.026  -0.122  0.00  0.00    -0.600 N 
ATOM      4  C   LIG    1       -1.353  -3.103   0.884  0.00  0.00    +0.270 C 
ATOM      5  C   LIG    1       -0.270  -2.660   1.899  0.00  0.00    +0.280 C 
ATOM      6  N   LIG    1        0.813  -1.954   1.274  0.00  0.00    -0.600 N 
ATOM      7  C   LIG    1        0.759  -0.478   1.142  0.00  0.00    +0.280 C 
ATOM      8  C   LIG    1       -0.133  -0.095   0.036  0.00  0.00    +0.130 C 
ATOM      9  C   LIG    1        1.879  -2.633   0.805  0.00  0.00    +0.600 C 
ATOM     10  O   LIG    1        2.794  -2.035   0.269  0.00  0.00    -0.520 OA
ATOM     11  C   LIG    1       -1.558  -0.637   0.236  0.00  0.00    +0.320 C 
ENDROOT
BRANCH   9  12
ATOM     12  C   LIG    1        1.937  -4.091   0.942  0.00  0.00    -0.290 A 
ATOM     13  C   LIG    1        3.025  -4.871   0.667  0.00  0.00    +0.120 A 
ATOM     14  C   LIG    1        2.803  -6.210   0.884  0.00  0.00    -0.010 A 
ATOM     15  C   LIG    1        1.577  -6.519   1.322  0.00  0.00    -0.170 A 
ATOM     16  S   LIG    1        0.620  -5.117   1.494  0.00  0.00    +0.210 S 
BRANCH  15  17
ATOM     17  C   LIG    1        1.106  -7.917   1.627  0.00  0.00    +0.030 C 
ATOM     18  C   LIG    1       -0.383  -8.113   1.921  0.00  0.00    +0.030 C 
ATOM     19  C   LIG    1        0.641  -8.210   3.055  0.00  0.00    +0.030 C 
ENDBRANCH  15  17
ENDBRANCH   9  12
BRANCH   8  20
ATOM     20  O   LIG    1       -0.184   1.330  -0.049  0.00  0.00    -0.560 OA
ATOM     21  H   LIG    1        0.678   1.748  -0.176  0.00  0.00    +0.380 HD
ENDBRANCH   8  20
BRANCH   2  22
ATOM     22  C   LIG    1       -1.755  -3.819  -1.815  0.00  0.00    +0.080 C 
BRANCH  22  23
ATOM     23  C   LIG    1       -1.991  -3.929  -3.323  0.00  0.00    +0.170 C 
BRANCH  23  24
ATOM     24  C   LIG    1       -1.996  -5.381  -3.726  0.00  0.00    +0.180 A 
ATOM     25  N   LIG    1       -1.048  -6.249  -3.501  0.00  0.00    -0.290 NA
ATOM     26  N   LIG    1       -1.386  -7.394  -3.979  0.00  0.00    -0.290 NA
ATOM     27  C   LIG    1       -2.562  -7.306  -4.539  0.00  0.00    +0.370 A 
ATOM     28  N   LIG    1       -2.982  -6.026  -4.395  0.00  0.00    -0.580 N 
ATOM     29  H   LIG    1       -3.819  -5.648  -4.707  0.00  0.00    +0.430 HD
ENDBRANCH  23  24
ENDBRANCH  22  23
ENDBRANCH   2  22
TORSDOF 6
