REMARK  Name = ZINCrg00000c6pYp.1
REMARK                            x       y       z     vdW  Elec       q    Type
REMARK                         _______ _______ _______ _____ _____    ______ ____
ROOT
ATOM      1  O   LIG    1       -1.680  -0.044  -1.461  0.00  0.00    -0.520 OA
ATOM      2  C   LIG    1       -1.375   1.049  -1.889  0.00  0.00    +0.520 C 
ATOM      3  N   LIG    1       -0.426   1.775  -1.265  0.00  0.00    -0.600 N 
ATOM      4  C   LIG    1       -0.070   3.114  -1.810  0.00  0.00    +0.280 C 
ATOM      5  C   LIG    1        0.163   4.100  -0.639  0.00  0.00    +0.280 C 
ATOM      6  N   LIG    1       -0.774   3.913   0.433  0.00  0.00    -0.600 N 
ATOM      7  C   LIG    1       -0.455   2.986   1.545  0.00  0.00    +0.280 C 
ATOM      8  C   LIG    1       -0.655   1.591   1.122  0.00  0.00    +0.130 C 
ATOM      9  C   LIG    1       -1.945   4.580   0.429  0.00  0.00    +0.600 C 
ATOM     10  O   LIG    1       -2.743   4.415   1.332  0.00  0.00    -0.520 OA
ATOM     11  C   LIG    1        0.208   1.233  -0.098  0.00  0.00    +0.320 C 
ENDROOT
BRANCH   9  12
ATOM     12  C   LIG    1       -2.256   5.506  -0.664  0.00  0.00    -0.290 A 
ATOM     13  C   LIG    1       -3.321   6.362  -0.699  0.00  0.00    +0.120 A 
ATOM     14  C   LIG    1       -3.371   7.121  -1.844  0.00  0.00    -0.010 A 
ATOM     15  C   LIG    1       -2.389   6.888  -2.723  0.00  0.00    -0.180 A 
ATOM     16  S   LIG    1       -1.325   5.686  -2.145  0.00  0.00    +0.210 S 
BRANCH  15  17
ATOM     17  C   LIG    1       -2.242   7.594  -4.046  0.00  0.00    +0.020 C 
ATOM     18  C   LIG    1       -1.184   7.064  -5.016  0.00  0.00    +0.040 C 
ATOM     19  C   LIG    1       -0.957   8.390  -4.284  0.00  0.00    +0.050 C 
ENDBRANCH  15  17
ENDBRANCH   9  12
BRANCH   8  20
ATOM     20  O   LIG    1       -0.315   0.723   2.205  0.00  0.00    -0.560 OA
ATOM     21  H   LIG    1       -0.818   0.887   3.014  0.00  0.00    +0.380 HD
ENDBRANCH   8  20
BRANCH   2  22
ATOM     22  C   LIG    1       -2.057   1.595  -3.116  0.00  0.00    +0.070 C 
BRANCH  22  23
ATOM     23  C   LIG    1       -3.084   0.581  -3.624  0.00  0.00    +0.190 C 
BRANCH  23  24
ATOM     24  C   LIG    1       -3.765   1.127  -4.852  0.00  0.00    +0.230 A 
ATOM     25  N   LIG    1       -3.364   0.955  -6.083  0.00  0.00    -0.310 NA
ATOM     26  N   LIG    1       -4.282   1.627  -6.907  0.00  0.00    -0.480 N 
ATOM     27  H   LIG    1       -4.260   1.686  -7.875  0.00  0.00    +0.440 HD
ATOM     28  C   LIG    1       -5.198   2.172  -6.088  0.00  0.00    +0.480 A 
ATOM     29  N   LIG    1       -4.878   1.860  -4.858  0.00  0.00    -0.540 NA
ENDBRANCH  23  24
ENDBRANCH  22  23
ENDBRANCH   2  22
TORSDOF 6
