REMARK  Name = ZINCtV00001bB3nT.0
REMARK                            x       y       z     vdW  Elec       q    Type
REMARK                         _______ _______ _______ _____ _____    ______ ____
ROOT
ATOM      1  N   LIG    1        1.584   3.224   0.674  0.00  0.00    -0.530 N 
ATOM      2  C   LIG    1        1.113   2.084   1.327  0.00  0.00    +0.140 A 
ATOM      3  C   LIG    1        2.125   1.161   1.475  0.00  0.00    -0.130 A 
ATOM      4  C   LIG    1        3.365   1.765   0.857  0.00  0.00    +0.020 C 
ATOM      5  C   LIG    1        3.858   0.903  -0.307  0.00  0.00    +0.080 C 
ATOM      6  C   LIG    1        4.465   1.925   1.909  0.00  0.00    +0.070 C 
ATOM      7  C   LIG    1        1.882  -0.065   2.106  0.00  0.00    +0.010 A 
ATOM      8  C   LIG    1        2.900  -1.021   2.267  0.00  0.00    +0.020 A 
ATOM      9  C   LIG    1        2.624  -2.201   2.887  0.00  0.00    +0.010 A 
ATOM     10  C   LIG    1        1.345  -2.479   3.365  0.00  0.00    +0.000 A 
ATOM     11  C   LIG    1        0.334  -1.578   3.226  0.00  0.00    +0.030 A 
ATOM     12  C   LIG    1        0.580  -0.349   2.593  0.00  0.00    -0.070 A 
ATOM     13  C   LIG    1       -0.438   0.608   2.430  0.00  0.00    +0.070 A 
ATOM     14  C   LIG    1       -0.173   1.788   1.815  0.00  0.00    -0.010 A 
ATOM     15  C   LIG    1        2.908   3.120   0.360  0.00  0.00    +0.270 C 
ATOM     16  C   LIG    1        3.662   4.044  -0.270  0.00  0.00    -0.220 C 
ENDROOT
BRANCH  16  17
ATOM     17  C   LIG    1        5.044   3.817  -0.464  0.00  0.00    +0.570 C 
ATOM     18  N   LIG    1        5.822   4.790  -0.978  0.00  0.00    -0.680 N 
ATOM     19  H   LIG    1        5.452   5.673  -1.138  0.00  0.00    +0.410 HD
ATOM     20  O   LIG    1        5.532   2.741  -0.165  0.00  0.00    -0.520 OA
BRANCH  18  21
ATOM     21  C   LIG    1        7.162   4.528  -1.280  0.00  0.00    +0.180 A 
ATOM     22  C   LIG    1        8.127   5.504  -1.068  0.00  0.00    +0.010 A 
ATOM     23  C   LIG    1        9.451   5.242  -1.363  0.00  0.00    +0.070 A 
ATOM     24  C   LIG    1        9.815   4.011  -1.880  0.00  0.00    -0.050 A 
ATOM     25  C   LIG    1        8.854   3.037  -2.098  0.00  0.00    -0.010 A 
ATOM     26 CL   LIG    1        9.315   1.494  -2.745  0.00  0.00    -0.040 Cl
ATOM     27 CL   LIG    1       11.479   3.687  -2.255  0.00  0.00    -0.050 Cl
ATOM     28  C   LIG    1        7.530   3.293  -1.799  0.00  0.00    +0.050 A 
ENDBRANCH  18  21
ENDBRANCH  16  17
BRANCH   1  30
ATOM     29  C   LIG    1        0.816   5.383   1.527  0.00  0.00    +0.030 C 
ATOM     30  C   LIG    1        0.757   4.392   0.363  0.00  0.00    +0.290 C 
ENDBRANCH   1  30
TORSDOF 3
