REMARK  Name = ZINCpk00000KfKxb.0
REMARK                            x       y       z     vdW  Elec       q    Type
REMARK                         _______ _______ _______ _____ _____    ______ ____
ROOT
ATOM      1  C   LIG    1        4.302   1.642  -2.347  0.00  0.00    +0.520 C 
ATOM      2  N   LIG    1        3.619   1.449  -1.201  0.00  0.00    -0.720 N 
ATOM      3  H   LIG    1        4.043   1.631  -0.348  0.00  0.00    +0.400 HD
ATOM      4  O   LIG    1        3.772   1.414  -3.414  0.00  0.00    -0.510 OA
ENDROOT
BRANCH   2   5
ATOM      5  C   LIG    1        2.238   0.963  -1.244  0.00  0.00    +0.290 C 
ATOM      6  C   LIG    1        1.503   1.407   0.022  0.00  0.00    +0.010 C 
ATOM      7  C   LIG    1        0.170   0.651   0.097  0.00  0.00    +0.260 C 
ATOM      8  O   LIG    1        0.451  -0.741   0.255  0.00  0.00    -0.320 OA
ATOM      9  C   LIG    1        1.352  -1.306  -0.589  0.00  0.00    +0.140 A 
ATOM     10  C   LIG    1        1.376  -2.693  -0.703  0.00  0.00    -0.020 A 
ATOM     11  C   LIG    1        2.281  -3.305  -1.547  0.00  0.00    +0.050 A 
ATOM     12  C   LIG    1        3.166  -2.539  -2.283  0.00  0.00    -0.040 A 
ATOM     13  C   LIG    1        3.144  -1.162  -2.174  0.00  0.00    +0.060 A 
ATOM     14  C   LIG    1        2.238  -0.542  -1.330  0.00  0.00    -0.180 A 
ENDBRANCH   2   5
BRANCH   1  15
ATOM     15  C   LIG    1        5.723   2.142  -2.303  0.00  0.00    +0.130 C 
ATOM     16  C   LIG    1        6.587   1.151  -1.520  0.00  0.00    +0.080 C 
BRANCH  15  23
ATOM     17  C   LIG    1        7.008   7.308  -2.508  0.00  0.00    +0.200 C 
ATOM     18  C   LIG    1        7.643   5.959  -2.727  0.00  0.00    +0.180 A 
ATOM     19  N   LIG    1        8.895   5.644  -2.509  0.00  0.00    -0.300 NA
ATOM     20  N   LIG    1        9.090   4.403  -2.803  0.00  0.00    -0.280 NA
ATOM     21  C   LIG    1        7.979   3.878  -3.217  0.00  0.00    +0.130 A 
ATOM     22  C   LIG    1        7.701   2.466  -3.668  0.00  0.00    +0.370 C 
ATOM     23  N   LIG    1        6.240   2.268  -3.672  0.00  0.00    -0.500 NA
ATOM     24  C   LIG    1        5.558   3.351  -4.395  0.00  0.00    +0.260 C 
ATOM     25  C   LIG    1        5.639   4.649  -3.581  0.00  0.00    +0.260 C 
ATOM     26  N   LIG    1        7.032   4.852  -3.182  0.00  0.00    -0.470 N 
ENDBRANCH  15  23
ENDBRANCH   1  15
TORSDOF 3
