REMARK  Name = ZINCrD0000071DKp.0
REMARK                            x       y       z     vdW  Elec       q    Type
REMARK                         _______ _______ _______ _____ _____    ______ ____
ROOT
ATOM      1  N   LIG    1        0.862   1.981  -0.221  0.00  0.00    -0.610 N 
ATOM      2  C   LIG    1       -0.365   1.422  -0.230  0.00  0.00    +0.530 C 
ATOM      3  O   LIG    1       -0.514   0.282   0.158  0.00  0.00    -0.490 OA
ENDROOT
BRANCH   2   4
ATOM      4  C   LIG    1       -1.549   2.210  -0.727  0.00  0.00    +0.150 C 
ATOM      5  C   LIG    1       -1.967   3.239   0.332  0.00  0.00    +0.260 C 
ATOM      6  O   LIG    1       -3.101   3.959  -0.165  0.00  0.00    -0.300 OA
ATOM      7  C   LIG    1       -4.099   3.220  -0.723  0.00  0.00    +0.040 A 
ATOM      8  C   LIG    1       -5.351   3.789  -0.897  0.00  0.00    +0.030 A 
ATOM      9  C   LIG    1       -6.372   3.053  -1.468  0.00  0.00    +0.030 A 
ATOM     10  C   LIG    1       -6.149   1.749  -1.867  0.00  0.00    +0.030 A 
ATOM     11  C   LIG    1       -4.903   1.175  -1.695  0.00  0.00    +0.030 A 
ATOM     12  C   LIG    1       -3.874   1.907  -1.122  0.00  0.00    +0.050 A 
ATOM     13  O   LIG    1       -2.653   1.328  -0.957  0.00  0.00    -0.280 OA
ENDBRANCH   2   4
BRANCH   1  14
ATOM     14  C   LIG    1        1.051   3.339  -0.736  0.00  0.00    +0.280 C 
BRANCH  14  16
ATOM     15  C   LIG    1        1.217   5.750  -0.100  0.00  0.00    +0.030 C 
ATOM     16  C   LIG    1        1.174   4.317   0.434  0.00  0.00    +0.000 C 
ENDBRANCH  14  16
ENDBRANCH   1  14
BRANCH   1  17
ATOM     17  C   LIG    1        2.005   1.231   0.305  0.00  0.00    +0.480 C 
BRANCH  17  18
ATOM     18  C   LIG    1        2.647   0.448  -0.810  0.00  0.00    +0.140 A 
ATOM     19  N   LIG    1        3.606   0.863  -1.589  0.00  0.00    -0.260 NA
ATOM     20  N   LIG    1        3.911  -0.063  -2.429  0.00  0.00    -0.270 NA
ATOM     21  C   LIG    1        3.149  -1.113  -2.212  0.00  0.00    +0.250 A 
ATOM     22  O   LIG    1        2.337  -0.809  -1.178  0.00  0.00    -0.210 OA
BRANCH  21  23
ATOM     23  C   LIG    1        3.179  -2.382  -2.954  0.00  0.00    -0.160 A 
ATOM     24  C   LIG    1        4.009  -2.665  -3.996  0.00  0.00    +0.100 A 
ATOM     25  C   LIG    1        3.849  -3.927  -4.525  0.00  0.00    +0.020 A 
ATOM     26  C   LIG    1        2.903  -4.672  -3.945  0.00  0.00    -0.010 A 
ATOM     27  S   LIG    1        2.145  -3.769  -2.640  0.00  0.00    +0.180 S 
ENDBRANCH  21  23
ENDBRANCH  17  18
ENDBRANCH   1  17
TORSDOF 6
