REMARK  Name = ZINCvU0000000HTE.0
REMARK                            x       y       z     vdW  Elec       q    Type
REMARK                         _______ _______ _______ _____ _____    ______ ____
ROOT
ATOM      1  C   LIG    1       -0.486   2.724  -1.901  0.00  0.00    +0.000 A 
ATOM      2  C   LIG    1       -0.882   1.687  -1.120  0.00  0.00    -0.090 A 
ATOM      3  C   LIG    1       -1.847   0.927  -1.914  0.00  0.00    -0.130 A 
ATOM      4  C   LIG    1       -2.600  -0.227  -1.688  0.00  0.00    +0.070 A 
ATOM      5  C   LIG    1       -3.436  -0.693  -2.664  0.00  0.00    +0.000 A 
ATOM      6  C   LIG    1       -3.540  -0.027  -3.878  0.00  0.00    +0.060 A 
ATOM      7  C   LIG    1       -2.812   1.119  -4.117  0.00  0.00    +0.030 A 
ATOM      8  C   LIG    1       -1.952   1.609  -3.141  0.00  0.00    +0.060 A 
ATOM      9  O   LIG    1       -1.122   2.669  -3.090  0.00  0.00    -0.170 OA
ENDROOT
BRANCH   1  11
ATOM     10  O   LIG    1        1.116   3.635  -0.475  0.00  0.00    -0.510 OA
ATOM     11  C   LIG    1        0.488   3.753  -1.511  0.00  0.00    +0.600 C 
ATOM     12  N   LIG    1        0.688   4.827  -2.300  0.00  0.00    -0.600 N 
ATOM     13  C   LIG    1       -0.164   5.069  -3.474  0.00  0.00    +0.290 C 
ATOM     14  C   LIG    1       -0.686   6.513  -3.402  0.00  0.00    +0.180 C 
ATOM     15  N   LIG    1        0.451   7.432  -3.260  0.00  0.00    -0.530 NA
ATOM     16  C   LIG    1        1.171   7.198  -2.002  0.00  0.00    +0.170 C 
ATOM     17  C   LIG    1        1.766   5.785  -2.013  0.00  0.00    +0.300 C 
BRANCH  15  18
ATOM     18  C   LIG    1        0.013   8.831  -3.363  0.00  0.00    +0.260 C 
BRANCH  18  19
ATOM     19  C   LIG    1       -0.925   8.979  -4.534  0.00  0.00    -0.110 A 
ATOM     20  C   LIG    1       -0.498   9.278  -5.761  0.00  0.00    -0.020 A 
ATOM     21  S   LIG    1       -1.871   9.363  -6.858  0.00  0.00    +0.100 S 
ATOM     22  C   LIG    1       -2.980   8.984  -5.548  0.00  0.00    -0.050 A 
ATOM     23  C   LIG    1       -2.295   8.819  -4.415  0.00  0.00    +0.010 A 
ENDBRANCH  18  19
ENDBRANCH  15  18
ENDBRANCH   1  11
BRANCH   2  24
ATOM     24  C   LIG    1       -0.417   1.377   0.279  0.00  0.00    +0.290 C 
BRANCH  24  25
ATOM     25  O   LIG    1       -1.267   2.035   1.221  0.00  0.00    -0.310 OA
BRANCH  25  26
ATOM     26  C   LIG    1       -0.983   1.857   2.538  0.00  0.00    +0.130 A 
ATOM     27  C   LIG    1        0.088   1.062   2.917  0.00  0.00    -0.080 A 
ATOM     28  C   LIG    1        0.379   0.888   4.256  0.00  0.00    +0.040 A 
ATOM     29  C   LIG    1       -0.405   1.497   5.219  0.00  0.00    -0.040 A 
ATOM     30  C   LIG    1       -1.477   2.285   4.844  0.00  0.00    +0.050 A 
ATOM     31  C   LIG    1       -1.768   2.467   3.506  0.00  0.00    -0.020 A 
ENDBRANCH  25  26
ENDBRANCH  24  25
ENDBRANCH   2  24
TORSDOF 6
