REMARK  Name = ZINCpe00000gM7ep.0
REMARK                            x       y       z     vdW  Elec       q    Type
REMARK                         _______ _______ _______ _____ _____    ______ ____
ROOT
ATOM      1  C   LIG    1       -0.942   2.323   0.326  0.00  0.00    +0.530 C 
ATOM      2  N   LIG    1       -1.038   3.624   0.664  0.00  0.00    -0.610 N 
ATOM      3  C   LIG    1       -0.208   4.187   1.740  0.00  0.00    +0.280 C 
ATOM      4  C   LIG    1        0.490   5.446   1.202  0.00  0.00    +0.170 C 
ATOM      5  N   LIG    1       -0.519   6.362   0.653  0.00  0.00    -0.530 NA
ATOM      6  C   LIG    1       -1.215   5.762  -0.493  0.00  0.00    +0.170 C 
ATOM      7  C   LIG    1       -1.979   4.517  -0.029  0.00  0.00    +0.300 C 
ATOM      8  O   LIG    1       -1.571   1.894  -0.619  0.00  0.00    -0.510 OA
ENDROOT
BRANCH   1   9
ATOM      9  C   LIG    1       -0.055   1.400   1.122  0.00  0.00    +0.180 C 
BRANCH   9  10
ATOM     10  C   LIG    1        1.328   1.394   0.524  0.00  0.00    -0.090 A 
ATOM     11  C   LIG    1        1.562   0.737  -0.669  0.00  0.00    +0.050 A 
ATOM     12  C   LIG    1        2.830   0.734  -1.220  0.00  0.00    +0.000 A 
ATOM     13  C   LIG    1        3.866   1.381  -0.573  0.00  0.00    +0.010 A 
ATOM     14  C   LIG    1        3.633   2.034   0.623  0.00  0.00    +0.000 A 
ATOM     15  C   LIG    1        2.364   2.040   1.172  0.00  0.00    +0.010 A 
ENDBRANCH   9  10
BRANCH   9  17
ATOM     16  C   LIG    1        0.289  -0.910   1.760  0.00  0.00    +0.200 C 
ATOM     17  N   LIG    1       -0.609   0.040   1.090  0.00  0.00    -0.520 NA
ATOM     18  C   LIG    1       -1.952   0.004   1.685  0.00  0.00    +0.200 C 
ENDBRANCH   9  17
ENDBRANCH   1   9
BRANCH   5  19
ATOM     19  C   LIG    1        0.083   7.651   0.287  0.00  0.00    +0.210 C 
BRANCH  19  20
ATOM     20  C   LIG    1       -1.010   8.719   0.204  0.00  0.00    +0.130 C 
ATOM     21  C   LIG    1       -0.379  10.070  -0.147  0.00  0.00    +0.190 C 
ATOM     22  O   LIG    1       -1.389  11.082  -0.111  0.00  0.00    -0.380 OA
ATOM     23  C   LIG    1       -2.053  11.186   1.152  0.00  0.00    +0.180 C 
ATOM     24  C   LIG    1       -2.684   9.835   1.501  0.00  0.00    +0.190 C 
ATOM     25  O   LIG    1       -1.674   8.823   1.467  0.00  0.00    -0.360 OA
ENDBRANCH  19  20
ENDBRANCH   5  19
TORSDOF 5
