REMARK  Name = ZINCpe000000UeI6.0
REMARK                            x       y       z     vdW  Elec       q    Type
REMARK                         _______ _______ _______ _____ _____    ______ ____
ROOT
ATOM      1  N   LIG    1       -0.618   8.589  -0.634  0.00  0.00    -0.530 NA
ATOM      2  C   LIG    1       -2.009   8.136  -0.771  0.00  0.00    +0.180 C 
ATOM      3  C   LIG    1       -2.298   7.057   0.277  0.00  0.00    +0.300 C 
ATOM      4  N   LIG    1       -1.284   5.999   0.150  0.00  0.00    -0.610 N 
ATOM      5  C   LIG    1        0.134   6.390   0.147  0.00  0.00    +0.290 C 
ATOM      6  C   LIG    1       -1.645   4.705   0.044  0.00  0.00    +0.570 C 
ATOM      7  O   LIG    1       -2.820   4.407  -0.053  0.00  0.00    -0.530 OA
ATOM      8  C   LIG    1        0.326   7.497  -0.902  0.00  0.00    +0.180 C 
ENDROOT
BRANCH   6   9
ATOM      9  C   LIG    1       -0.613   3.648   0.046  0.00  0.00    -0.110 A 
ATOM     10  C   LIG    1       -0.737   2.577  -0.819  0.00  0.00    +0.160 A 
ATOM     11  C   LIG    1        0.246   1.577  -0.819  0.00  0.00    +0.020 A 
ATOM     12  N   LIG    1        0.465   0.448  -1.477  0.00  0.00    -0.260 NA
ATOM     13  N   LIG    1        1.557  -0.080  -1.045  0.00  0.00    -0.190 N 
ATOM     14  H   LIG    1        1.919  -0.915  -1.381  0.00  0.00    +0.480 HD
ATOM     15  N   LIG    1        2.116   0.619  -0.119  0.00  0.00    -0.270 NA
ATOM     16  C   LIG    1        1.380   1.693   0.112  0.00  0.00    +0.040 A 
ATOM     17  C   LIG    1        1.448   2.805   0.972  0.00  0.00    +0.080 A 
ATOM     18  C   LIG    1        0.476   3.748   0.933  0.00  0.00    +0.060 A 
ENDBRANCH   6   9
BRANCH   1  19
ATOM     19  C   LIG    1       -0.351   9.742  -1.504  0.00  0.00    +0.330 C 
BRANCH  19  22
ATOM     20  C   LIG    1        3.069  10.741  -1.117  0.00  0.00    +0.180 A 
ATOM     21  N   LIG    1        2.175   9.983  -1.704  0.00  0.00    -0.480 NA
ATOM     22  C   LIG    1        0.994  10.329  -1.161  0.00  0.00    +0.180 A 
ATOM     23  N   LIG    1        1.225  11.266  -0.291  0.00  0.00    -0.370 NA
ATOM     24  O   LIG    1        2.412  11.514  -0.246  0.00  0.00    +0.080 OA
BRANCH  20  26
ATOM     25  C   LIG    1        4.879  11.744  -2.484  0.00  0.00    +0.050 C 
ATOM     26  C   LIG    1        4.554  10.742  -1.374  0.00  0.00    +0.180 C 
ENDBRANCH  20  26
ENDBRANCH  19  22
ENDBRANCH   1  19
TORSDOF 4
