REMARK  Name = ZINCpk000000oYiq.0
REMARK                            x       y       z     vdW  Elec       q    Type
REMARK                         _______ _______ _______ _____ _____    ______ ____
ROOT
ATOM      1  C   LIG    1        4.353   3.791   1.936  0.00  0.00    +0.180 C 
ATOM      2  C   LIG    1        5.546   3.051   1.328  0.00  0.00    +0.030 C 
ENDROOT
BRANCH   1   7
ATOM      3  C   LIG    1        0.942   0.683  -0.919  0.00  0.00    +0.650 C 
ATOM      4  N   LIG    1        1.369   1.708  -0.155  0.00  0.00    -0.600 N 
ATOM      5  C   LIG    1        1.339   1.618   1.313  0.00  0.00    +0.300 C 
ATOM      6  C   LIG    1        2.729   1.997   1.848  0.00  0.00    +0.170 C 
ATOM      7  N   LIG    1        3.111   3.311   1.314  0.00  0.00    -0.520 NA
ATOM      8  C   LIG    1        3.235   3.276  -0.149  0.00  0.00    +0.190 C 
ATOM      9  C   LIG    1        1.871   2.947  -0.766  0.00  0.00    +0.310 C 
ATOM     10  O   LIG    1        0.970   0.776  -2.131  0.00  0.00    -0.570 OA
BRANCH   3  11
ATOM     11  O   LIG    1        0.481  -0.442  -0.341  0.00  0.00    -0.370 OA
BRANCH  11  13
ATOM     12  C   LIG    1       -0.453  -2.690  -0.393  0.00  0.00    +0.070 C 
ATOM     13  C   LIG    1        0.033  -1.502  -1.226  0.00  0.00    +0.220 C 
ENDBRANCH  11  13
ENDBRANCH   3  11
ENDBRANCH   1   7
BRANCH   1  14
ATOM     14  C   LIG    1        4.500   5.270   1.689  0.00  0.00    +0.520 C 
ATOM     15  N   LIG    1        5.409   5.982   2.383  0.00  0.00    -0.720 N 
ATOM     16  H   LIG    1        5.970   5.543   3.041  0.00  0.00    +0.400 HD
ATOM     17  O   LIG    1        3.799   5.820   0.866  0.00  0.00    -0.520 OA
BRANCH  15  18
ATOM     18  C   LIG    1        5.552   7.420   2.143  0.00  0.00    +0.330 C 
BRANCH  18  19
ATOM     19  C   LIG    1        6.628   7.975   3.040  0.00  0.00    -0.140 A 
ATOM     20  C   LIG    1        6.286   8.637   4.202  0.00  0.00    +0.070 A 
ATOM     21  C   LIG    1        7.273   9.147   5.026  0.00  0.00    -0.030 A 
ATOM     22  C   LIG    1        8.605   8.995   4.688  0.00  0.00    +0.060 A 
ATOM     23  C   LIG    1        8.953   8.333   3.525  0.00  0.00    -0.080 A 
ATOM     24  C   LIG    1        7.964   7.816   2.701  0.00  0.00    +0.140 A 
BRANCH  24  25
ATOM     25  O   LIG    1        8.304   7.160   1.560  0.00  0.00    -0.310 OA
ATOM     26  C   LIG    1        9.699   7.034   1.275  0.00  0.00    +0.250 C 
ENDBRANCH  24  25
ENDBRANCH  18  19
ENDBRANCH  15  18
ENDBRANCH   1  14
TORSDOF 7
