REMARK  Name = ZINCvU0000000IEN.0
REMARK                            x       y       z     vdW  Elec       q    Type
REMARK                         _______ _______ _______ _____ _____    ______ ____
ROOT
ATOM      1  O   LIG    1       -2.414   4.923   0.108  0.00  0.00    -0.510 OA
ATOM      2  C   LIG    1       -2.482   3.709   0.084  0.00  0.00    +0.560 C 
ATOM      3  N   LIG    1       -3.685   3.102   0.095  0.00  0.00    -0.660 N 
ATOM      4  H   LIG    1       -3.740   2.135   0.160  0.00  0.00    +0.430 HD
ENDROOT
BRANCH   2   5
ATOM      5  C   LIG    1       -1.248   2.902   0.044  0.00  0.00    -0.140 A 
ATOM      6  C   LIG    1       -1.324   1.507   0.012  0.00  0.00    +0.070 A 
ATOM      7  C   LIG    1       -0.170   0.757  -0.021  0.00  0.00    -0.010 A 
ATOM      8  C   LIG    1        1.070   1.385  -0.032  0.00  0.00    +0.120 A 
ATOM      9  C   LIG    1        1.150   2.773  -0.005  0.00  0.00    +0.010 A 
ATOM     10  C   LIG    1        0.000   3.530   0.033  0.00  0.00    +0.120 A 
BRANCH   8  11
ATOM     11  O   LIG    1        2.205   0.643  -0.070  0.00  0.00    -0.260 OA
BRANCH  11  12
ATOM     12  C   LIG    1        2.452  -0.088  -1.188  0.00  0.00    +0.120 A 
ATOM     13  C   LIG    1        1.616   0.022  -2.290  0.00  0.00    -0.070 A 
ATOM     14  C   LIG    1        1.873  -0.718  -3.427  0.00  0.00    +0.050 A 
ATOM     15  C   LIG    1        2.956  -1.577  -3.465  0.00  0.00    -0.020 A 
ATOM     16  C   LIG    1        3.787  -1.694  -2.366  0.00  0.00    +0.050 A 
ATOM     17  C   LIG    1        3.538  -0.952  -1.228  0.00  0.00    -0.010 A 
ENDBRANCH  11  12
ENDBRANCH   8  11
ENDBRANCH   2   5
BRANCH   3  18
ATOM     18  C   LIG    1       -4.855   3.865   0.013  0.00  0.00    +0.160 A 
ATOM     19  C   LIG    1       -4.878   5.023  -0.751  0.00  0.00    +0.110 A 
ATOM     20  C   LIG    1       -6.037   5.772  -0.834  0.00  0.00    -0.160 A 
ATOM     21  C   LIG    1       -7.172   5.376  -0.150  0.00  0.00    +0.100 A 
ATOM     22  C   LIG    1       -7.156   4.227   0.617  0.00  0.00    +0.040 A 
ATOM     23  C   LIG    1       -6.000   3.466   0.703  0.00  0.00    +0.150 A 
BRANCH  23  24
ATOM     24  N   LIG    1       -5.982   2.299   1.480  0.00  0.00    -0.330 N 
ATOM     25  C   LIG    1       -6.970   1.843   2.275  0.00  0.00    +0.500 A 
ATOM     26  N   LIG    1       -6.564   0.726   2.824  0.00  0.00    -0.530 NA
ATOM     27  C   LIG    1       -5.329   0.443   2.414  0.00  0.00    +0.460 A 
ATOM     28  N   LIG    1       -4.929   1.376   1.590  0.00  0.00    -0.340 NA
ENDBRANCH  23  24
BRANCH  20  29
ATOM     29  C   LIG    1       -6.062   7.026  -1.669  0.00  0.00    +0.510 C 
ATOM     30  F   LIG    1       -5.772   6.707  -3.000  0.00  0.00    -0.170 F 
ATOM     31  F   LIG    1       -5.105   7.926  -1.187  0.00  0.00    -0.170 F 
ATOM     32  F   LIG    1       -7.331   7.611  -1.595  0.00  0.00    -0.170 F 
ENDBRANCH  20  29
ENDBRANCH   3  18
TORSDOF 6
