REMARK  Name = ZINCrD00000kZHUF.0
REMARK                            x       y       z     vdW  Elec       q    Type
REMARK                         _______ _______ _______ _____ _____    ______ ____
ROOT
ATOM      1  O   LIG    1       -5.452  -2.642  -0.452  0.00  0.00    -0.490 OA
ATOM      2  C   LIG    1       -5.221  -1.489  -0.141  0.00  0.00    +0.540 C 
ENDROOT
BRANCH   2   3
ATOM      3  C   LIG    1       -6.256  -0.686   0.514  0.00  0.00    -0.050 A 
ATOM      4  C   LIG    1       -7.531  -1.103   0.838  0.00  0.00    +0.170 A 
ATOM      5  C   LIG    1       -8.173  -0.020   1.446  0.00  0.00    -0.760 A 
ATOM      6  C   LIG    1       -7.299   1.015   1.480  0.00  0.00    +0.360 A 
ATOM      7  N   LIG    1       -6.133   0.623   0.925  0.00  0.00    -0.510 N 
ATOM      8  H   LIG    1       -5.339   1.173   0.829  0.00  0.00    +0.430 HD
BRANCH   5   9
ATOM      9  S   LIG    1       -9.825  -0.003   2.057  0.00  0.00    +2.740 S 
ATOM     10  O   LIG    1      -10.524  -1.021   1.353  0.00  0.00    -0.950 OA
ATOM     11  O   LIG    1      -10.236   1.357   2.065  0.00  0.00    -0.960 OA
BRANCH   9  12
ATOM     12  N   LIG    1       -9.768  -0.484   3.640  0.00  0.00    -1.010 NA
ATOM     13  C   LIG    1       -9.882  -1.869   4.120  0.00  0.00    +0.270 C 
ATOM     14  C   LIG    1       -9.796  -1.829   5.660  0.00  0.00    +0.030 C 
ATOM     15  C   LIG    1      -10.216  -0.372   5.991  0.00  0.00    +0.030 C 
ATOM     16  C   LIG    1       -9.600   0.407   4.803  0.00  0.00    +0.270 C 
ENDBRANCH   9  12
ENDBRANCH   5   9
ENDBRANCH   2   3
BRANCH   2  17
ATOM     17  O   LIG    1       -4.012  -0.951  -0.399  0.00  0.00    -0.350 OA
BRANCH  17  18
ATOM     18  C   LIG    1       -3.035  -1.806  -1.050  0.00  0.00    +0.270 C 
BRANCH  18  19
ATOM     19  C   LIG    1       -1.735  -1.027  -1.260  0.00  0.00    +0.220 C 
BRANCH  19  20
ATOM     20  O   LIG    1       -1.165  -0.701   0.010  0.00  0.00    -0.310 OA
BRANCH  20  21
ATOM     21  C   LIG    1        0.002  -0.004   0.002  0.00  0.00    +0.110 A 
ATOM     22  C   LIG    1       -0.017   1.384   0.010  0.00  0.00    -0.040 A 
ATOM     23  C   LIG    1        1.172   2.090   0.002  0.00  0.00    +0.060 A 
ATOM     24  C   LIG    1        2.378   1.415  -0.013  0.00  0.00    +0.050 A 
ATOM     25  C   LIG    1        2.400   0.033  -0.021  0.00  0.00    +0.060 A 
ATOM     26 CL   LIG    1       -1.531   2.232   0.021  0.00  0.00    -0.040 Cl
ATOM     27  C   LIG    1        1.215  -0.679  -0.013  0.00  0.00    -0.050 A 
ATOM     28 CL   LIG    1        1.243  -2.415  -0.022  0.00  0.00    -0.040 Cl
ENDBRANCH  20  21
ENDBRANCH  19  20
ENDBRANCH  18  19
ENDBRANCH  17  18
ENDBRANCH   2  17
TORSDOF 8
