REMARK  Name = ZINCpk00000y6xZc.0
REMARK                            x       y       z     vdW  Elec       q    Type
REMARK                         _______ _______ _______ _____ _____    ______ ____
ROOT
ATOM      1  C   LIG    1       -4.717   4.875   3.070  0.00  0.00    +0.570 C 
ATOM      2  N   LIG    1       -4.207   5.171   1.858  0.00  0.00    -0.720 N 
ATOM      3  H   LIG    1       -4.798   5.277   1.096  0.00  0.00    +0.400 HD
ATOM      4  O   LIG    1       -3.977   4.742   4.025  0.00  0.00    -0.500 OA
ENDROOT
BRANCH   1  11
ATOM      5  C   LIG    1       -6.725   4.292   4.456  0.00  0.00    +0.120 A 
ATOM      6  N   LIG    1       -8.031   4.157   4.574  0.00  0.00    -0.230 NA
ATOM      7  N   LIG    1       -8.836   4.396   3.603  0.00  0.00    -0.220 NA
ATOM      8  C   LIG    1       -8.418   4.795   2.418  0.00  0.00    +0.060 A 
ATOM      9  C   LIG    1       -7.064   4.975   2.186  0.00  0.00    +0.070 A 
ATOM     10  C   LIG    1       -9.414   5.059   1.318  0.00  0.00    +0.160 C 
ATOM     11  C   LIG    1       -6.180   4.711   3.239  0.00  0.00    -0.130 A 
BRANCH   5  13
ATOM     12  C   LIG    1       -5.502   5.300   6.364  0.00  0.00    +0.040 C 
ATOM     13  C   LIG    1       -5.824   3.998   5.628  0.00  0.00    +0.110 C 
ENDBRANCH   5  13
ENDBRANCH   1  11
BRANCH   2  14
ATOM     14  C   LIG    1       -2.761   5.333   1.692  0.00  0.00    +0.280 C 
ATOM     15  C   LIG    1       -2.348   6.814   1.856  0.00  0.00    +0.060 C 
ATOM     16  C   LIG    1       -2.357   7.360   0.446  0.00  0.00    +0.520 C 
ATOM     17  N   LIG    1       -2.356   6.351  -0.441  0.00  0.00    -0.620 N 
ATOM     18  C   LIG    1       -2.372   6.528  -1.895  0.00  0.00    +0.300 C 
ATOM     19  O   LIG    1       -2.363   8.538   0.157  0.00  0.00    -0.510 OA
ATOM     20  C   LIG    1       -2.337   5.048   0.234  0.00  0.00    +0.290 C 
BRANCH  20  21
ATOM     21  C   LIG    1       -0.949   4.462   0.200  0.00  0.00    -0.160 A 
ATOM     22  C   LIG    1       -0.766   3.096   0.051  0.00  0.00    +0.080 A 
ATOM     23  C   LIG    1        0.529   2.602   0.030  0.00  0.00    -0.030 A 
ATOM     24  C   LIG    1        1.588   3.482   0.146  0.00  0.00    +0.270 A 
ATOM     25  N   LIG    1        1.377   4.777   0.281  0.00  0.00    -0.480 NA
ATOM     26  C   LIG    1        0.159   5.282   0.311  0.00  0.00    +0.270 A 
ENDBRANCH  20  21
ENDBRANCH   2  14
TORSDOF 4
