REMARK  Name = ZINCtV00000vD11b.0
REMARK                            x       y       z     vdW  Elec       q    Type
REMARK                         _______ _______ _______ _____ _____    ______ ____
ROOT
ATOM      1  S   LIG    1        0.761   0.346  -0.144  0.00  0.00    +0.080 S 
ENDROOT
BRANCH   1   5
ATOM      2  C   LIG    1        0.688   4.225  -0.115  0.00  0.00    +0.220 A 
ATOM      3  N   LIG    1        1.972   3.980  -0.019  0.00  0.00    -0.240 NA
ATOM      4  N   LIG    1        2.165   2.708  -0.016  0.00  0.00    -0.280 NA
ATOM      5  C   LIG    1        1.011   2.090  -0.110  0.00  0.00    +0.130 A 
ATOM      6  O   LIG    1        0.053   3.034  -0.180  0.00  0.00    -0.200 OA
BRANCH   2  12
ATOM      7  C   LIG    1        0.839   6.715  -0.075  0.00  0.00    +0.180 A 
ATOM      8  C   LIG    1        0.234   7.960  -0.117  0.00  0.00    -0.070 A 
ATOM      9  C   LIG    1       -1.141   8.060  -0.221  0.00  0.00    +0.090 A 
ATOM     10  C   LIG    1       -1.921   6.920  -0.291  0.00  0.00    -0.020 A 
ATOM     11  C   LIG    1       -1.334   5.672  -0.258  0.00  0.00    +0.100 A 
ATOM     12  C   LIG    1        0.053   5.558  -0.152  0.00  0.00    -0.070 A 
BRANCH   7  13
ATOM     13  O   LIG    1        2.189   6.616   0.033  0.00  0.00    -0.280 OA
BRANCH  13  15
ATOM     14  C   LIG    1        4.419   7.528   0.225  0.00  0.00    +0.070 C 
ATOM     15  C   LIG    1        2.926   7.838   0.107  0.00  0.00    +0.170 C 
ENDBRANCH  13  15
ENDBRANCH   7  13
ENDBRANCH   2  12
ENDBRANCH   1   5
BRANCH   1  16
ATOM     16  C   LIG    1        2.476  -0.219  -0.018  0.00  0.00    +0.160 C 
BRANCH  16  17
ATOM     17  C   LIG    1        2.510  -1.726  -0.029  0.00  0.00    -0.130 A 
ATOM     18  C   LIG    1        2.616  -2.398  -1.212  0.00  0.00    +0.150 A 
ATOM     19  C   LIG    1        2.644  -3.806  -1.176  0.00  0.00    -0.100 A 
ATOM     20  C   LIG    1        2.751  -4.564  -2.353  0.00  0.00    +0.050 A 
ATOM     21  C   LIG    1        2.775  -5.924  -2.277  0.00  0.00    +0.030 A 
ATOM     22  C   LIG    1        2.695  -6.573  -1.047  0.00  0.00    -0.060 A 
ATOM     23  C   LIG    1        2.590  -5.869   0.113  0.00  0.00    -0.060 A 
ATOM     24  C   LIG    1        2.505  -6.592   1.432  0.00  0.00    +0.110 C 
ATOM     25  C   LIG    1        2.725  -8.079  -1.000  0.00  0.00    +0.110 C 
ATOM     26  C   LIG    1        2.562  -4.464   0.076  0.00  0.00    +0.150 A 
ATOM     27  N   LIG    1        2.459  -3.746   1.200  0.00  0.00    -0.460 NA
ATOM     28  C   LIG    1        2.439  -2.435   1.171  0.00  0.00    +0.220 A 
ATOM     29 CL   LIG    1        2.312  -1.558   2.664  0.00  0.00    -0.010 Cl
ENDBRANCH  16  17
ENDBRANCH   1  16
TORSDOF 6
