REMARK  Name = ZINCnE000004R8Ci.0
REMARK                            x       y       z     vdW  Elec       q    Type
REMARK                         _______ _______ _______ _____ _____    ______ ____
ROOT
ATOM      1  C   LIG    1       -1.330   1.951   0.019  0.00  0.00    +0.050 C 
ATOM      2  C   LIG    1       -1.429   2.836  -1.225  0.00  0.00    +0.020 C 
ENDROOT
BRANCH   1   3
ATOM      3  C   LIG    1       -0.015   1.215   0.009  0.00  0.00    +0.510 C 
ATOM      4  O   LIG    1        1.033   1.839   0.002  0.00  0.00    -0.700 OA
ATOM      5  O   LIG    1        0.002  -0.004   0.002  0.00  0.00    -0.670 OA
ENDBRANCH   1   3
BRANCH   1   6
ATOM      6  O   LIG    1       -2.403   1.007   0.019  0.00  0.00    -0.290 OA
BRANCH   6  11
ATOM      7  C   LIG    1       -3.551  -1.654  -2.166  0.00  0.00    -0.000 A 
ATOM      8  C   LIG    1       -2.582  -1.549  -3.154  0.00  0.00    -0.100 A 
ATOM      9  C   LIG    1       -1.595  -0.590  -3.033  0.00  0.00    +0.290 A 
ATOM     10  N   LIG    1       -1.566   0.222  -1.994  0.00  0.00    -0.500 NA
ATOM     11  C   LIG    1       -2.472   0.152  -1.032  0.00  0.00    +0.370 A 
ATOM     12  C   LIG    1       -3.489  -0.791  -1.086  0.00  0.00    -0.080 A 
BRANCH   7  14
ATOM     13  C   LIG    1       -4.460  -3.501  -3.549  0.00  0.00    +0.030 C 
ATOM     14  C   LIG    1       -4.642  -2.689  -2.265  0.00  0.00    -0.030 C 
ATOM     15  C   LIG    1       -6.004  -1.993  -2.290  0.00  0.00    +0.040 C 
ATOM     16  C   LIG    1       -4.569  -3.624  -1.056  0.00  0.00    +0.040 C 
ENDBRANCH   7  14
ENDBRANCH   6  11
ENDBRANCH   1   6
BRANCH   1  17
ATOM     17  C   LIG    1       -1.417   2.822   1.273  0.00  0.00    +0.060 C 
BRANCH  17  18
ATOM     18  C   LIG    1       -1.193   1.955   2.514  0.00  0.00    -0.030 C 
ATOM     19  C   LIG    1       -1.156   2.844   3.760  0.00  0.00    +0.000 C 
ATOM     20  C   LIG    1       -1.010   1.958   5.002  0.00  0.00    -0.010 C 
ATOM     21  C   LIG    1       -2.163   0.953   5.040  0.00  0.00    +0.180 C 
ATOM     22  O   LIG    1       -2.159   0.179   3.838  0.00  0.00    -0.380 OA
ATOM     23  C   LIG    1       -2.340   0.949   2.648  0.00  0.00    +0.230 C 
ENDBRANCH  17  18
ENDBRANCH   1  17
TORSDOF 6
