REMARK  Name = ZINCpe000000Tupq.0
REMARK                            x       y       z     vdW  Elec       q    Type
REMARK                         _______ _______ _______ _____ _____    ______ ____
ROOT
ATOM      1  N   LIG    1        4.742  -4.968   1.605  0.00  0.00    -0.610 N 
ATOM      2  C   LIG    1        4.180  -3.760   1.403  0.00  0.00    +0.500 C 
ATOM      3  O   LIG    1        3.906  -3.053   2.349  0.00  0.00    -0.520 OA
ENDROOT
BRANCH   1   5
ATOM      4  C   LIG    1        6.500  -5.522  -0.003  0.00  0.00    +0.010 C 
ATOM      5  C   LIG    1        5.074  -5.823   0.462  0.00  0.00    +0.270 C 
ENDBRANCH   1   5
BRANCH   2   6
ATOM      6  C   LIG    1        3.892  -3.289   0.001  0.00  0.00    +0.400 C 
BRANCH   6   7
ATOM      7  N   LIG    1        3.286  -1.956   0.048  0.00  0.00    -0.420 N 
ATOM      8  N   LIG    1        1.915  -1.672   0.129  0.00  0.00    -0.280 NA
ATOM      9  C   LIG    1        1.775  -0.367   0.150  0.00  0.00    +0.300 A 
ATOM     10  C   LIG    1        0.627   0.462   0.224  0.00  0.00    +0.040 A 
ATOM     11  C   LIG    1        0.781   1.809   0.229  0.00  0.00    +0.110 A 
ATOM     12  C   LIG    1        2.073   2.368   0.162  0.00  0.00    -0.020 A 
ATOM     13  C   LIG    1        3.158   1.577   0.092  0.00  0.00    +0.300 A 
ATOM     14  N   LIG    1        3.030   0.209   0.085  0.00  0.00    -0.480 N 
ATOM     15  C   LIG    1        3.945  -0.780   0.023  0.00  0.00    +0.650 A 
ATOM     16  O   LIG    1        5.153  -0.635  -0.044  0.00  0.00    -0.540 OA
ENDBRANCH   6   7
ENDBRANCH   2   6
BRANCH   1  17
ATOM     17  C   LIG    1        5.022  -5.427   2.968  0.00  0.00    +0.300 C 
BRANCH  17  18
ATOM     18  C   LIG    1        3.809  -6.185   3.510  0.00  0.00    +0.160 C 
BRANCH  18  19
ATOM     19  N   LIG    1        4.089  -6.645   4.877  0.00  0.00    -0.530 NA
ATOM     20  C   LIG    1        4.169  -5.511   5.808  0.00  0.00    +0.220 C 
BRANCH  19  21
ATOM     21  C   LIG    1        3.085  -7.621   5.321  0.00  0.00    +0.220 C 
BRANCH  21  22
ATOM     22  C   LIG    1        3.375  -8.979   4.677  0.00  0.00    +0.460 C 
ATOM     23  F   LIG    1        3.190  -8.887   3.293  0.00  0.00    -0.180 F 
ATOM     24  F   LIG    1        2.503  -9.939   5.202  0.00  0.00    -0.180 F 
ATOM     25  F   LIG    1        4.696  -9.351   4.947  0.00  0.00    -0.170 F 
ENDBRANCH  21  22
ENDBRANCH  19  21
ENDBRANCH  18  19
ENDBRANCH  17  18
ENDBRANCH   1  17
TORSDOF 8
