REMARK  Name = ZINCb80000003VVT.0
REMARK                            x       y       z     vdW  Elec       q    Type
REMARK                         _______ _______ _______ _____ _____    ______ ____
ROOT
ATOM      1  C   LIG    1       -1.353   3.344   0.138  0.00  0.00    +0.290 C 
ATOM      2  C   LIG    1       -2.613   3.948   0.125  0.00  0.00    +0.250 C 
ATOM      3  N   LIG    1       -3.693   3.205   0.024  0.00  0.00    -0.200 NA
ATOM      4  N   LIG    1       -3.649   1.927  -0.071  0.00  0.00    -0.340 NA
ATOM      5  C   LIG    1       -2.517   1.253  -0.075  0.00  0.00    +0.390 C 
ATOM      6  H   LIG    1       -4.483   1.437  -0.143  0.00  0.00    +0.460 HD
ATOM      7  C   LIG    1       -1.302   1.938   0.028  0.00  0.00    -0.210 C 
ENDROOT
BRANCH   1   9
ATOM      8  C   LIG    1       -0.284   5.541   0.481  0.00  0.00    +0.310 C 
ATOM      9  N   LIG    1       -0.198   4.097   0.249  0.00  0.00    -0.630 NA
ATOM     10  H   LIG    1        0.669   3.669   0.174  0.00  0.00    +0.440 HD
ENDBRANCH   1   9
BRANCH   7  11
ATOM     11  C   LIG    1       -0.015   1.217   0.027  0.00  0.00    +0.540 C 
ATOM     12  O   LIG    1        1.036   1.842   0.006  0.00  0.00    -0.660 OA
ATOM     13  O   LIG    1        0.001  -0.005   0.043  0.00  0.00    -0.640 OA
ENDBRANCH   7  11
TORSDOF 2
