REMARK  Name = ZINCrH000004jZW8.0
REMARK                            x       y       z     vdW  Elec       q    Type
REMARK                         _______ _______ _______ _____ _____    ______ ____
ROOT
ATOM      1  N   LIG    1        2.298   0.122   0.141  0.00  0.00    -0.900 N 
ATOM      2  C   LIG    1        2.775  -0.630  -0.944  0.00  0.00    +0.150 A 
ATOM      3  C   LIG    1        2.479  -0.468  -2.296  0.00  0.00    +0.020 A 
ATOM      4  C   LIG    1        3.041  -1.304  -3.252  0.00  0.00    +0.040 A 
ATOM      5  C   LIG    1        3.899  -2.313  -2.929  0.00  0.00    +0.020 A 
ATOM      6  C   LIG    1        4.228  -2.516  -1.577  0.00  0.00    -0.030 A 
ATOM      7  C   LIG    1        5.100  -3.526  -1.140  0.00  0.00    +0.090 A 
ATOM      8  C   LIG    1        5.369  -3.659   0.191  0.00  0.00    +0.000 A 
ATOM      9  C   LIG    1        4.792  -2.805   1.139  0.00  0.00    +0.190 A 
ATOM     10  C   LIG    1        3.953  -1.829   0.741  0.00  0.00    -0.640 A 
ATOM     11  C   LIG    1        3.652  -1.661  -0.614  0.00  0.00    -0.070 A 
ATOM     12  S   LIG    1        3.011  -0.541   1.505  0.00  0.00    +2.670 S 
ATOM     13  O   LIG    1        1.985  -1.157   2.270  0.00  0.00    -0.920 OA
ATOM     14  O   LIG    1        3.926   0.416   2.020  0.00  0.00    -0.930 OA
ENDROOT
BRANCH   1  15
ATOM     15  C   LIG    1        1.372   1.256   0.091  0.00  0.00    +0.370 C 
BRANCH  15  18
ATOM     16  C   LIG    1       -0.819   3.058   0.107  0.00  0.00    +0.290 C 
ATOM     17  N   LIG    1       -1.074   1.617   0.035  0.00  0.00    -0.610 N 
ATOM     18  C   LIG    1       -0.046   0.747   0.084  0.00  0.00    +0.490 C 
ATOM     19  O   LIG    1       -0.262  -0.446   0.118  0.00  0.00    -0.500 OA
BRANCH  17  20
ATOM     20  C   LIG    1       -2.447   1.122  -0.091  0.00  0.00    +0.350 C 
BRANCH  20  21
ATOM     21  C   LIG    1       -2.761   0.875  -1.544  0.00  0.00    -0.080 A 
ATOM     22  C   LIG    1       -2.677  -0.403  -2.062  0.00  0.00    +0.050 A 
ATOM     23  C   LIG    1       -2.966  -0.629  -3.395  0.00  0.00    +0.020 A 
ATOM     24  C   LIG    1       -3.338   0.423  -4.210  0.00  0.00    +0.020 A 
ATOM     25  C   LIG    1       -3.422   1.703  -3.693  0.00  0.00    +0.040 A 
ATOM     26  C   LIG    1       -3.139   1.928  -2.358  0.00  0.00    -0.080 A 
ATOM     27 BR   LIG    1       -3.261   3.676  -1.648  0.00  0.00    -0.050 Br
ENDBRANCH  20  21
ENDBRANCH  17  20
ENDBRANCH  15  18
ENDBRANCH   1  15
TORSDOF 4
