REMARK  Name = ZINCpe000000Yav2.0
REMARK                            x       y       z     vdW  Elec       q    Type
REMARK                         _______ _______ _______ _____ _____    ______ ____
ROOT
ATOM      1  N   LIG    1       -7.080   3.923  -3.103  0.00  0.00    -0.530 NA
ATOM      2  C   LIG    1       -7.076   2.466  -2.915  0.00  0.00    +0.200 C 
ATOM      3  C   LIG    1       -6.617   2.139  -1.492  0.00  0.00    +0.200 C 
ATOM      4  N   LIG    1       -5.276   2.700  -1.272  0.00  0.00    -0.560 NA
ATOM      5  C   LIG    1       -5.281   4.158  -1.460  0.00  0.00    +0.200 C 
ATOM      6  C   LIG    1       -5.740   4.484  -2.883  0.00  0.00    +0.180 C 
ENDROOT
BRANCH   1   7
ATOM      7  C   LIG    1       -7.588   4.280  -4.435  0.00  0.00    +0.280 C 
BRANCH   7  14
ATOM      8  C   LIG    1       -4.984   5.666  -5.785  0.00  0.00    +0.160 C 
ATOM      9  C   LIG    1       -6.220   6.359  -5.274  0.00  0.00    +0.030 A 
ATOM     10  N   LIG    1       -6.458   7.638  -5.285  0.00  0.00    -0.360 NA
ATOM     11  O   LIG    1       -7.538   7.895  -4.805  0.00  0.00    +0.100 OA
ATOM     12  C   LIG    1       -8.176   6.785  -4.406  0.00  0.00    -0.010 A 
ATOM     13  C   LIG    1       -9.540   6.708  -3.769  0.00  0.00    +0.190 C 
ATOM     14  C   LIG    1       -7.352   5.747  -4.686  0.00  0.00    -0.210 A 
ENDBRANCH   7  14
ENDBRANCH   1   7
BRANCH   4  15
ATOM     15  C   LIG    1       -4.769   2.343   0.059  0.00  0.00    +0.520 C 
BRANCH  15  16
ATOM     16  N   LIG    1       -3.304   2.368   0.046  0.00  0.00    -0.420 N 
ATOM     17  N   LIG    1       -2.495   3.513   0.045  0.00  0.00    -0.290 NA
ATOM     18  C   LIG    1       -1.242   3.122   0.031  0.00  0.00    +0.300 A 
ATOM     19  C   LIG    1       -0.023   3.845   0.023  0.00  0.00    +0.040 A 
ATOM     20  C   LIG    1        1.151   3.167   0.008  0.00  0.00    +0.110 A 
ATOM     21  C   LIG    1        1.147   1.757   0.001  0.00  0.00    -0.020 A 
ATOM     22  C   LIG    1       -0.013   1.076   0.008  0.00  0.00    +0.300 A 
ATOM     23  N   LIG    1       -1.216   1.740   0.017  0.00  0.00    -0.480 N 
ATOM     24  C   LIG    1       -2.489   1.294   0.033  0.00  0.00    +0.650 A 
ATOM     25  O   LIG    1       -2.840   0.127   0.030  0.00  0.00    -0.540 OA
ENDBRANCH  15  16
ENDBRANCH   4  15
TORSDOF 4
