REMARK  Name = ZINCnE000001DA0r.1
REMARK                            x       y       z     vdW  Elec       q    Type
REMARK                         _______ _______ _______ _____ _____    ______ ____
ROOT
ATOM      1  N   LIG    1        1.179  -5.791  -1.043  0.00  0.00    -0.710 NA
ATOM      2  C   LIG    1        0.372  -6.747  -1.543  0.00  0.00    +0.660 C 
ATOM      3  N   LIG    1        0.682  -8.048  -1.372  0.00  0.00    -0.630 N 
ATOM      4  C   LIG    1        1.900  -8.438  -0.648  0.00  0.00    +0.300 C 
ATOM      5  C   LIG    1        1.510  -9.412   0.475  0.00  0.00    +0.000 C 
ATOM      6  C   LIG    1        0.731 -10.585  -0.123  0.00  0.00    +0.240 C 
ATOM      7  C   LIG    1       -0.551 -10.068  -0.778  0.00  0.00    +0.000 C 
ATOM      8  C   LIG    1       -0.188  -9.102  -1.911  0.00  0.00    +0.280 C 
ATOM      9  O   LIG    1       -0.636  -6.437  -2.148  0.00  0.00    -0.620 OA
ENDROOT
BRANCH   1  13
ATOM     10  C   LIG    1        0.632  -2.000  -1.327  0.00  0.00    -0.330 A 
ATOM     11  C   LIG    1       -0.336  -2.702  -1.920  0.00  0.00    +0.230 A 
ATOM     12  N   LIG    1       -0.187  -4.012  -1.847  0.00  0.00    -0.570 NA
ATOM     13  C   LIG    1        0.860  -4.450  -1.220  0.00  0.00    +0.350 A 
ATOM     14  S   LIG    1        1.794  -3.137  -0.649  0.00  0.00    +0.010 S 
BRANCH  10  15
ATOM     15  C   LIG    1        0.718  -0.497  -1.257  0.00  0.00    +0.110 C 
BRANCH  15  17
ATOM     16  C   LIG    1       -0.019   1.526   0.010  0.00  0.00    +0.010 C 
ATOM     17  C   LIG    1        0.002  -0.004   0.002  0.00  0.00    -0.020 C 
ATOM     18  C   LIG    1        0.742  -0.511   1.242  0.00  0.00    +0.010 C 
ENDBRANCH  15  17
ENDBRANCH  10  15
ENDBRANCH   1  13
BRANCH   6  19
ATOM     19  N   LIG    1        0.388 -11.535   0.938  0.00  0.00    -0.450 N 
ATOM     20  C   LIG    1        0.766 -12.849   1.006  0.00  0.00    +0.110 A 
ATOM     21  C   LIG    1        0.236 -13.348   2.139  0.00  0.00    +0.130 A 
ATOM     22  N   LIG    1       -0.447 -12.367   2.746  0.00  0.00    -0.500 NA
ATOM     23  C   LIG    1       -0.355 -11.276   2.036  0.00  0.00    +0.390 A 
ENDBRANCH   6  19
TORSDOF 4
