REMARK  Name = ZINCpe000000Uy7q.0
REMARK                            x       y       z     vdW  Elec       q    Type
REMARK                         _______ _______ _______ _____ _____    ______ ____
ROOT
ATOM      1  N   LIG    1        4.129   1.790   3.585  0.00  0.00    -1.010 NA
ATOM      2  C   LIG    1        4.972   1.751   2.382  0.00  0.00    +0.290 C 
ATOM      3  C   LIG    1        4.068   1.784   1.146  0.00  0.00    +0.040 C 
ATOM      4  C   LIG    1        3.047   0.647   1.235  0.00  0.00    +0.020 C 
ATOM      5  C   LIG    1        2.174   0.840   2.477  0.00  0.00    +0.010 C 
ATOM      6  C   LIG    1        3.056   0.796   3.728  0.00  0.00    +0.300 C 
ENDROOT
BRANCH   4   7
ATOM      7  C   LIG    1        2.165   0.655  -0.015  0.00  0.00    +0.120 C 
ATOM      8  N   LIG    1        1.252  -0.501  -0.013  0.00  0.00    -0.720 N 
ATOM      9  H   LIG    1        1.503  -1.438  -0.019  0.00  0.00    +0.440 HD
ATOM     10  C   LIG    1        0.002  -0.004   0.002  0.00  0.00    +0.700 C 
ATOM     11  N   LIG    1       -0.016   1.334   0.009  0.00  0.00    -0.680 N 
ATOM     12  H   LIG    1       -0.826   1.868   0.016  0.00  0.00    +0.430 HD
ATOM     13  O   LIG    1       -0.999  -0.693   0.008  0.00  0.00    -0.540 OA
ATOM     14  C   LIG    1        3.026   0.658  -1.280  0.00  0.00    +0.090 C 
ATOM     15  C   LIG    1        1.230   1.848   0.000  0.00  0.00    +0.530 C 
ATOM     16  O   LIG    1        1.538   3.020   0.003  0.00  0.00    -0.460 OA
ENDBRANCH   4   7
BRANCH   1  17
ATOM     17  S   LIG    1        4.384   2.931   4.758  0.00  0.00    +2.780 S 
ATOM     18  O   LIG    1        5.738   3.343   4.629  0.00  0.00    -0.970 OA
ATOM     19  O   LIG    1        3.844   2.399   5.960  0.00  0.00    -0.970 OA
BRANCH  17  21
ATOM     20  C   LIG    1        2.085   4.350   4.875  0.00  0.00    +0.290 C 
ATOM     21  N   LIG    1        3.457   4.247   4.371  0.00  0.00    -1.000 NA
BRANCH  21  22
ATOM     22  C   LIG    1        4.008   5.308   3.524  0.00  0.00    +0.250 C 
ATOM     23  C   LIG    1        3.994   6.631   4.292  0.00  0.00    +0.010 C 
ATOM     24  C   LIG    1        4.570   7.740   3.408  0.00  0.00    +0.020 C 
ATOM     25  C   LIG    1        3.720   7.876   2.143  0.00  0.00    +0.000 C 
ATOM     26  C   LIG    1        3.733   6.552   1.375  0.00  0.00    +0.010 C 
ATOM     27  C   LIG    1        3.158   5.444   2.259  0.00  0.00    +0.010 C 
ENDBRANCH  21  22
ENDBRANCH  17  21
ENDBRANCH   1  17
TORSDOF 4
