REMARK  Name = ZINCvU00000006vY.0
REMARK                            x       y       z     vdW  Elec       q    Type
REMARK                         _______ _______ _______ _____ _____    ______ ____
ROOT
ATOM      1  C   LIG    1        4.348   1.418  -2.389  0.00  0.00    +0.150 C 
ATOM      2  C   LIG    1        4.518   2.125  -1.069  0.00  0.00    +0.020 A 
ATOM      3  C   LIG    1        5.503   2.988  -0.771  0.00  0.00    +0.010 A 
ATOM      4  C   LIG    1        5.269   3.423   0.614  0.00  0.00    -0.200 A 
ATOM      5  C   LIG    1        4.125   2.763   1.030  0.00  0.00    +0.110 A 
ATOM      6  C   LIG    1        3.475   2.885   2.385  0.00  0.00    +0.160 C 
ATOM      7  N   LIG    1        3.695   1.989   0.014  0.00  0.00    -0.390 N 
ENDROOT
BRANCH   7   8
ATOM      8  C   LIG    1        2.561   1.166   0.059  0.00  0.00    +0.110 A 
ATOM      9  C   LIG    1        1.299   1.728   0.197  0.00  0.00    +0.090 A 
ATOM     10  C   LIG    1        0.184   0.915   0.241  0.00  0.00    +0.070 A 
ATOM     11  C   LIG    1        0.323  -0.459   0.147  0.00  0.00    +0.020 A 
ATOM     12  C   LIG    1        1.580  -1.021   0.009  0.00  0.00    -0.160 A 
ATOM     13 CL   LIG    1       -1.081  -1.478   0.202  0.00  0.00    -0.020 Cl
ATOM     14  C   LIG    1        2.699  -0.213  -0.035  0.00  0.00    +0.110 A 
BRANCH  12  15
ATOM     15  C   LIG    1        1.728  -2.518  -0.092  0.00  0.00    +0.510 C 
ATOM     16  F   LIG    1        1.026  -2.981  -1.210  0.00  0.00    -0.170 F 
ATOM     17  F   LIG    1        1.214  -3.116   1.063  0.00  0.00    -0.160 F 
ATOM     18  F   LIG    1        3.083  -2.844  -0.223  0.00  0.00    -0.170 F 
ENDBRANCH  12  15
ENDBRANCH   7   8
BRANCH   4  19
ATOM     19  C   LIG    1        6.051   4.335   1.367  0.00  0.00    +0.290 C 
ATOM     20  C   LIG    1        6.940   5.175   0.726  0.00  0.00    -0.170 C 
BRANCH  20  21
ATOM     21  C   LIG    1        7.857   6.013   1.511  0.00  0.00    +0.580 C 
ATOM     22  N   LIG    1        8.725   6.832   0.886  0.00  0.00    -0.730 N 
ATOM     23  H   LIG    1        8.745   6.869  -0.083  0.00  0.00    +0.400 HD
ATOM     24  O   LIG    1        7.832   5.966   2.727  0.00  0.00    -0.530 OA
BRANCH  22  25
ATOM     25  C   LIG    1        9.639   7.667   1.669  0.00  0.00    +0.400 C 
BRANCH  25  26
ATOM     26  C   LIG    1       10.497   8.484   0.738  0.00  0.00    -0.040 A 
ATOM     27  C   LIG    1       10.199   9.707   0.263  0.00  0.00    -0.030 A 
ATOM     28  C   LIG    1       11.276  10.097  -0.567  0.00  0.00    -0.070 A 
ATOM     29  C   LIG    1       12.163   9.086  -0.555  0.00  0.00    +0.180 A 
ATOM     30  O   LIG    1       11.686   8.111   0.236  0.00  0.00    -0.170 OA
ENDBRANCH  25  26
ENDBRANCH  22  25
ENDBRANCH  20  21
BRANCH  20  31
ATOM     31  C   LIG    1        6.969   5.230  -0.705  0.00  0.00    +0.260 C 
ATOM     32  N   LIG    1        6.992   5.273  -1.840  0.00  0.00    -0.420 NA
ENDBRANCH  20  31
ENDBRANCH   4  19
TORSDOF 7
