REMARK  Name = ZINCkj000005h812.0
REMARK                            x       y       z     vdW  Elec       q    Type
REMARK                         _______ _______ _______ _____ _____    ______ ____
ROOT
ATOM      1  C   LIG    1       -0.784   2.972   1.267  0.00  0.00    +0.150 C 
ATOM      2  C   LIG    1       -1.534   3.499   0.041  0.00  0.00    +0.190 C 
ATOM      3  N   LIG    1       -0.839   3.061  -1.178  0.00  0.00    -0.530 NA
ATOM      4  C   LIG    1       -0.755   1.594  -1.231  0.00  0.00    +0.160 C 
ATOM      5  C   LIG    1       -0.013   1.086   0.008  0.00  0.00    +0.250 C 
ATOM      6  O   LIG    1       -0.684   1.548   1.183  0.00  0.00    -0.390 OA
ENDROOT
BRANCH   1   7
ATOM      7  C   LIG    1       -1.545   3.358   2.537  0.00  0.00    +0.280 C 
BRANCH   7   9
ATOM      8  C   LIG    1        0.483   3.729   3.762  0.00  0.00    +0.320 C 
ATOM      9  N   LIG    1       -0.766   2.957   3.716  0.00  0.00    -0.390 N 
ATOM     10  C   LIG    1       -1.549   3.219   4.931  0.00  0.00    +0.320 C 
ATOM     11  H   LIG    1       -0.552   1.973   3.659  0.00  0.00    +0.430 HD
ENDBRANCH   7   9
ENDBRANCH   1   7
BRANCH   3  12
ATOM     12  C   LIG    1       -1.496   3.594  -2.379  0.00  0.00    +0.230 C 
BRANCH  12  13
ATOM     13  C   LIG    1       -0.631   3.327  -3.585  0.00  0.00    -0.040 A 
ATOM     14  C   LIG    1       -0.800   2.171  -4.274  0.00  0.00    +0.020 A 
ATOM     15  C   LIG    1        0.004   1.911  -5.405  0.00  0.00    +0.100 A 
ATOM     16  N   LIG    1        0.095   0.918  -6.271  0.00  0.00    -0.300 NA
ATOM     17  N   LIG    1        1.096   1.217  -7.203  0.00  0.00    -0.420 N 
ATOM     18  H   LIG    1        1.357   0.646  -7.942  0.00  0.00    +0.450 HD
ATOM     19  C   LIG    1        1.641   2.409  -6.922  0.00  0.00    +0.280 A 
ATOM     20  C   LIG    1        1.007   2.912  -5.801  0.00  0.00    -0.210 A 
ATOM     21  C   LIG    1        1.126   4.093  -5.037  0.00  0.00    +0.100 A 
ATOM     22  C   LIG    1        0.317   4.280  -3.964  0.00  0.00    -0.020 A 
ENDBRANCH  12  13
ENDBRANCH   3  12
TORSDOF 4
