REMARK  Name = ZINCpk000000oS3I.0
REMARK                            x       y       z     vdW  Elec       q    Type
REMARK                         _______ _______ _______ _____ _____    ______ ____
ROOT
ATOM      1  N   LIG    1       -0.011   0.966   0.007  0.00  0.00    -0.720 N 
ATOM      2  H   LIG    1        0.002  -0.004   0.002  0.00  0.00    +0.400 HD
ATOM      3  C   LIG    1       -1.187   1.624   0.017  0.00  0.00    +0.500 C 
ATOM      4  O   LIG    1       -1.204   2.837   0.023  0.00  0.00    -0.450 OA
ENDROOT
BRANCH   1   5
ATOM      5  C   LIG    1        1.248   1.716  -0.001  0.00  0.00    +0.190 C 
ATOM      6  C   LIG    1        1.367   2.561  -1.293  0.00  0.00    +0.050 C 
ATOM      7  C   LIG    1        1.855   1.519  -2.335  0.00  0.00    +0.020 C 
ATOM      8  C   LIG    1        2.836   0.626  -1.548  0.00  0.00    +0.020 C 
ATOM      9  C   LIG    1        2.450   0.751  -0.064  0.00  0.00    +0.060 C 
BRANCH   5  10
ATOM     10  C   LIG    1        1.342   2.598   1.218  0.00  0.00    +0.460 C 
ATOM     11  O   LIG    1        2.415   2.798   1.737  0.00  0.00    -0.510 OA
BRANCH  10  12
ATOM     12  O   LIG    1        0.235   3.161   1.726  0.00  0.00    -0.320 OA
BRANCH  12  14
ATOM     13  C   LIG    1       -0.960   4.549   3.331  0.00  0.00    +0.060 C 
ATOM     14  C   LIG    1        0.401   3.999   2.900  0.00  0.00    +0.190 C 
ENDBRANCH  12  14
ENDBRANCH  10  12
ENDBRANCH   5  10
ENDBRANCH   1   5
BRANCH   3  15
ATOM     15  C   LIG    1       -2.482   0.853   0.018  0.00  0.00    +0.170 C 
BRANCH  15  16
ATOM     16  C   LIG    1       -3.641   1.816   0.029  0.00  0.00    +0.120 A 
ATOM     17  N   LIG    1       -3.420   3.097   0.035  0.00  0.00    -0.160 NA
ATOM     18  N   LIG    1       -4.450   4.039   0.045  0.00  0.00    -0.540 N 
ATOM     19  H   LIG    1       -4.226   4.983   0.049  0.00  0.00    +0.440 HD
ATOM     20  C   LIG    1       -5.748   3.671   0.050  0.00  0.00    +0.530 A 
ATOM     21  C   LIG    1       -6.077   2.240   0.043  0.00  0.00    -0.130 A 
ATOM     22  C   LIG    1       -7.395   1.787   0.048  0.00  0.00    +0.090 A 
ATOM     23  C   LIG    1       -7.647   0.432   0.043  0.00  0.00    +0.030 A 
ATOM     24  C   LIG    1       -6.603  -0.483   0.033  0.00  0.00    +0.050 A 
ATOM     25  C   LIG    1       -5.293  -0.058   0.028  0.00  0.00    +0.040 A 
ATOM     26  O   LIG    1       -6.630   4.511   0.059  0.00  0.00    -0.520 OA
ATOM     27  C   LIG    1       -5.013   1.310   0.027  0.00  0.00    -0.050 A 
ENDBRANCH  15  16
ENDBRANCH   3  15
TORSDOF 6
