REMARK  Name = ZINCpe000000WvFZ.0
REMARK                            x       y       z     vdW  Elec       q    Type
REMARK                         _______ _______ _______ _____ _____    ______ ____
ROOT
ATOM      1  C   LIG    1        1.317  -0.740  -0.014  0.00  0.00    +0.100 C 
ENDROOT
BRANCH   1   2
ATOM      2  C   LIG    1        0.002  -0.004   0.002  0.00  0.00    +0.520 C 
ATOM      3  N   LIG    1       -0.016   1.344   0.009  0.00  0.00    -0.620 N 
ATOM      4  C   LIG    1        1.169   2.216   0.003  0.00  0.00    +0.250 C 
ATOM      5  C   LIG    1        0.665   3.678   0.039  0.00  0.00    +0.060 C 
ATOM      6  C   LIG    1       -0.759   3.531   0.589  0.00  0.00    -0.090 C 
ATOM      7  C   LIG    1       -0.800   3.573   2.116  0.00  0.00    +0.280 C 
ATOM      8  N   LIG    1       -1.168   4.958   2.451  0.00  0.00    -0.730 N 
ATOM      9  H   LIG    1       -1.068   5.353   3.331  0.00  0.00    +0.410 HD
ATOM     10  C   LIG    1       -1.660   5.607   1.379  0.00  0.00    +0.520 C 
ATOM     11  O   LIG    1       -2.043   6.758   1.379  0.00  0.00    -0.530 OA
ATOM     12  C   LIG    1       -1.665   4.689   0.171  0.00  0.00    +0.080 C 
ATOM     13  C   LIG    1       -1.229   2.187   0.019  0.00  0.00    +0.300 C 
ATOM     14  O   LIG    1       -1.040  -0.625   0.008  0.00  0.00    -0.510 OA
ENDBRANCH   1   2
BRANCH   1  24
ATOM     15  C   LIG    1        4.570  -4.629   0.146  0.00  0.00    +0.170 A 
ATOM     16  C   LIG    1        4.431  -3.852  -0.995  0.00  0.00    -0.090 A 
ATOM     17  C   LIG    1        3.320  -3.041  -1.143  0.00  0.00    +0.110 A 
ATOM     18  C   LIG    1        2.357  -3.008  -0.159  0.00  0.00    -0.180 A 
ATOM     19  C   LIG    1        2.483  -3.780   0.990  0.00  0.00    +0.190 A 
ATOM     20  N   LIG    1        1.389  -3.575   1.831  0.00  0.00    -0.660 N 
ATOM     21  H   LIG    1        1.275  -4.016   2.687  0.00  0.00    +0.410 HD
ATOM     22  C   LIG    1        0.510  -2.697   1.318  0.00  0.00    +0.530 C 
ATOM     23  O   LIG    1       -0.526  -2.332   1.832  0.00  0.00    -0.470 OA
ATOM     24  C   LIG    1        1.058  -2.248  -0.020  0.00  0.00    +0.070 C 
ATOM     25  C   LIG    1        3.602  -4.595   1.136  0.00  0.00    -0.040 A 
BRANCH  15  27
ATOM     26  C   LIG    1        6.622  -5.413  -0.764  0.00  0.00    +0.250 C 
ATOM     27  O   LIG    1        5.661  -5.426   0.294  0.00  0.00    -0.310 OA
ENDBRANCH  15  27
ENDBRANCH   1  24
TORSDOF 3
