REMARK  Name = ZINCrg00001JduO4.2
REMARK                            x       y       z     vdW  Elec       q    Type
REMARK                         _______ _______ _______ _____ _____    ______ ____
ROOT
ATOM      1  N   LIG    1        0.061  -2.926   2.044  0.00  0.00    -0.440 N 
ATOM      2  C   LIG    1       -1.071  -2.726   2.958  0.00  0.00    +0.200 C 
ATOM      3  C   LIG    1       -1.103  -3.856   3.990  0.00  0.00    +0.050 C 
ATOM      4  C   LIG    1        0.211  -3.857   4.778  0.00  0.00    +0.040 C 
ATOM      5  C   LIG    1        1.379  -4.003   3.803  0.00  0.00    +0.090 C 
ATOM      6  C   LIG    1        2.709  -3.956   4.572  0.00  0.00    +0.250 C 
ATOM      7  C   LIG    1        3.397  -5.308   4.267  0.00  0.00    +0.030 C 
ATOM      8  C   LIG    1        2.715  -5.754   2.949  0.00  0.00    +0.170 C 
ATOM      9  N   LIG    1        1.307  -5.314   3.128  0.00  0.00    -0.500 NA
ATOM     10  C   LIG    1        0.622  -5.203   1.833  0.00  0.00    +0.210 C 
ATOM     11  C   LIG    1        1.340  -2.882   2.766  0.00  0.00    +0.190 C 
ENDROOT
BRANCH   1  16
ATOM     12  C   LIG    1       -0.018   1.503   0.010  0.00  0.00    +0.200 C 
ATOM     13  C   LIG    1        0.002  -0.004   0.002  0.00  0.00    +0.270 A 
ATOM     14  N   LIG    1       -0.005  -0.669  -1.116  0.00  0.00    -0.480 NA
ATOM     15  S   LIG    1        0.027  -2.311  -0.677  0.00  0.00    +0.280 S 
ATOM     16  C   LIG    1        0.039  -2.000   1.018  0.00  0.00    +0.240 A 
ATOM     17  N   LIG    1        0.022  -0.687   1.123  0.00  0.00    -0.530 NA
ENDBRANCH   1  16
BRANCH   6  18
ATOM     18  N   LIG    1        2.462  -3.825   6.010  0.00  0.00    -0.720 N 
ATOM     19  H   LIG    1        1.624  -4.135   6.388  0.00  0.00    +0.400 HD
ATOM     20  C   LIG    1        3.398  -3.274   6.808  0.00  0.00    +0.560 C 
ATOM     21  O   LIG    1        4.448  -2.886   6.334  0.00  0.00    -0.500 OA
BRANCH  20  22
ATOM     22  C   LIG    1        3.148  -3.142   8.259  0.00  0.00    +0.100 A 
ATOM     23  C   LIG    1        4.098  -2.584   9.061  0.00  0.00    +0.020 A 
ATOM     24  C   LIG    1        3.864  -2.456  10.440  0.00  0.00    +0.120 A 
ATOM     25  C   LIG    1        2.684  -2.893  10.961  0.00  0.00    -0.040 A 
ATOM     26  C   LIG    1        1.717  -3.467  10.107  0.00  0.00    +0.520 A 
ATOM     27  O   LIG    1        0.657  -3.861  10.565  0.00  0.00    -0.540 OA
ATOM     28  N   LIG    1        1.961  -3.575   8.787  0.00  0.00    -0.600 N 
ATOM     29  H   LIG    1        1.291  -3.967   8.205  0.00  0.00    +0.410 HD
ENDBRANCH  20  22
ENDBRANCH   6  18
TORSDOF 3
