REMARK  Name = ZINCrD000000fGjk.0
REMARK                            x       y       z     vdW  Elec       q    Type
REMARK                         _______ _______ _______ _____ _____    ______ ____
ROOT
ATOM      1  C   LIG    1        4.851   3.766  -0.059  0.00  0.00    +0.290 C 
ENDROOT
BRANCH   1   3
ATOM      2  C   LIG    1        6.749   4.131  -1.543  0.00  0.00    +0.520 C 
ATOM      3  N   LIG    1        5.543   3.567  -1.335  0.00  0.00    -0.730 N 
ATOM      4  H   LIG    1        5.133   3.030  -2.031  0.00  0.00    +0.400 HD
ATOM      5  O   LIG    1        7.262   4.803  -0.673  0.00  0.00    -0.510 OA
BRANCH   2   6
ATOM      6  C   LIG    1        7.461   3.927  -2.855  0.00  0.00    +0.170 C 
ATOM      7  C   LIG    1        6.983   4.974  -3.863  0.00  0.00    +0.070 C 
BRANCH   6  10
ATOM      8  C   LIG    1        7.394   0.801  -5.064  0.00  0.00    +0.100 C 
ATOM      9  C   LIG    1        7.698   2.180  -4.537  0.00  0.00    +0.520 C 
ATOM     10  N   LIG    1        7.166   2.587  -3.367  0.00  0.00    -0.730 N 
ATOM     11  H   LIG    1        6.588   1.992  -2.865  0.00  0.00    +0.400 HD
ATOM     12  O   LIG    1        8.421   2.923  -5.165  0.00  0.00    -0.530 OA
ENDBRANCH   6  10
BRANCH   6  13
ATOM     13  C   LIG    1        8.970   4.072  -2.645  0.00  0.00    +0.010 C 
ATOM     14  C   LIG    1        9.421   3.134  -1.524  0.00  0.00    +0.030 C 
ATOM     15  C   LIG    1        9.295   5.517  -2.263  0.00  0.00    +0.030 C 
ENDBRANCH   6  13
ENDBRANCH   2   6
ENDBRANCH   1   3
BRANCH   1  16
ATOM     16  C   LIG    1        3.513   3.025  -0.084  0.00  0.00    +0.190 C 
BRANCH  16  17
ATOM     17  O   LIG    1        3.749   1.618  -0.171  0.00  0.00    -0.300 OA
BRANCH  17  18
ATOM     18  C   LIG    1        2.657   0.810  -0.203  0.00  0.00    +0.140 A 
ATOM     19  C   LIG    1        1.385   1.358  -0.153  0.00  0.00    -0.080 A 
ATOM     20  C   LIG    1        0.275   0.535  -0.186  0.00  0.00    +0.050 A 
ATOM     21  C   LIG    1        0.426  -0.837  -0.270  0.00  0.00    -0.020 A 
ATOM     22  C   LIG    1        1.687  -1.396  -0.321  0.00  0.00    +0.060 A 
ATOM     23  C   LIG    1        2.812  -0.577  -0.288  0.00  0.00    -0.080 A 
BRANCH  23  24
ATOM     24  C   LIG    1        4.170  -1.172  -0.343  0.00  0.00    -0.040 A 
ATOM     25  C   LIG    1        5.107  -0.694  -1.257  0.00  0.00    +0.030 A 
ATOM     26  C   LIG    1        6.370  -1.248  -1.300  0.00  0.00    +0.000 A 
ATOM     27  C   LIG    1        6.703  -2.284  -0.446  0.00  0.00    +0.000 A 
ATOM     28  C   LIG    1        5.775  -2.767   0.459  0.00  0.00    +0.000 A 
ATOM     29  C   LIG    1        4.511  -2.216   0.514  0.00  0.00    +0.010 A 
ENDBRANCH  23  24
ENDBRANCH  17  18
ENDBRANCH  16  17
ENDBRANCH   1  16
TORSDOF 8
