REMARK  Name = ZINCrg000000qKm4.0
REMARK                            x       y       z     vdW  Elec       q    Type
REMARK                         _______ _______ _______ _____ _____    ______ ____
ROOT
ATOM      1  N   LIG    1        0.062  -2.314   2.977  0.00  0.00    -0.520 N 
ATOM      2  H   LIG    1        0.060  -1.688   3.718  0.00  0.00    +0.430 HD
ATOM      3  C   LIG    1        0.082  -3.640   3.216  0.00  0.00    +0.520 C 
ATOM      4  O   LIG    1        0.084  -4.424   2.290  0.00  0.00    -0.530 OA
ENDROOT
BRANCH   3   5
ATOM      5  C   LIG    1        0.102  -4.150   4.634  0.00  0.00    +0.020 C 
ATOM      6  C   LIG    1        0.125  -5.681   4.627  0.00  0.00    +0.050 C 
ATOM      7  C   LIG    1        0.206  -6.190   6.069  0.00  0.00    +0.050 C 
ATOM      8  C   LIG    1        1.454  -5.611   6.739  0.00  0.00    +0.190 C 
ATOM      9  N   LIG    1        1.384  -4.144   6.722  0.00  0.00    -0.470 N 
ATOM     10  C   LIG    1        1.353  -3.629   5.347  0.00  0.00    +0.220 C 
BRANCH   9  11
ATOM     11  C   LIG    1        2.437  -3.586   7.438  0.00  0.00    +0.260 A 
ATOM     12  C   LIG    1        2.640  -3.939   8.770  0.00  0.00    +0.210 A 
ATOM     13  N   LIG    1        3.640  -3.408   9.446  0.00  0.00    -0.420 NA
ATOM     14  C   LIG    1        4.450  -2.542   8.861  0.00  0.00    +0.190 A 
ATOM     15  C   LIG    1        4.253  -2.189   7.539  0.00  0.00    +0.250 A 
ATOM     16  N   LIG    1        3.255  -2.721   6.853  0.00  0.00    -0.480 NA
ENDBRANCH   9  11
ENDBRANCH   3   5
BRANCH   1  18
ATOM     17  C   LIG    1        0.022  -0.514   1.420  0.00  0.00    +0.510 C 
ATOM     18  N   LIG    1        0.043  -1.840   1.659  0.00  0.00    -0.530 N 
ATOM     19  H   LIG    1        0.044  -2.466   0.918  0.00  0.00    +0.430 HD
ATOM     20  O   LIG    1        0.021   0.269   2.346  0.00  0.00    -0.530 OA
BRANCH  17  21
ATOM     21  C   LIG    1        0.002  -0.004   0.002  0.00  0.00    +0.140 C 
BRANCH  21  25
ATOM     22  C   LIG    1       -0.056   4.269   0.025  0.00  0.00    +0.130 A 
ATOM     23  C   LIG    1        1.154   3.591   0.010  0.00  0.00    -0.020 A 
ATOM     24  C   LIG    1        1.170   2.209   0.003  0.00  0.00    +0.070 A 
ATOM     25  C   LIG    1       -0.018   1.503   0.010  0.00  0.00    -0.110 A 
ATOM     26  C   LIG    1       -1.226   2.177   0.020  0.00  0.00    +0.060 A 
ATOM     27  C   LIG    1       -1.247   3.558   0.033  0.00  0.00    -0.080 A 
BRANCH  22  29
ATOM     28  C   LIG    1       -1.356   6.259   0.049  0.00  0.00    +0.250 C 
ATOM     29  O   LIG    1       -0.074   5.628   0.033  0.00  0.00    -0.320 OA
ENDBRANCH  22  29
ENDBRANCH  21  25
ENDBRANCH  17  21
ENDBRANCH   1  18
TORSDOF 6
