REMARK  Name = ZINCpk00000e9v4b.0
REMARK                            x       y       z     vdW  Elec       q    Type
REMARK                         _______ _______ _______ _____ _____    ______ ____
ROOT
ATOM      1  N   LIG    1       -2.155   1.216   1.162  0.00  0.00    -1.000 NA
ATOM      2  C   LIG    1       -0.732   1.581   1.268  0.00  0.00    +0.270 C 
ATOM      3  C   LIG    1       -0.013   1.086   0.008  0.00  0.00    +0.210 C 
ATOM      4  O   LIG    1       -0.706   1.560  -1.149  0.00  0.00    -0.360 OA
ATOM      5  C   LIG    1       -2.045   1.075  -1.268  0.00  0.00    +0.230 C 
ATOM      6  C   LIG    1       -2.870   1.570  -0.075  0.00  0.00    +0.290 C 
ENDROOT
BRANCH   5   7
ATOM      7  C   LIG    1       -2.654   1.587  -2.549  0.00  0.00    -0.240 A 
ATOM      8  C   LIG    1       -3.527   0.919  -3.338  0.00  0.00    +0.240 A 
ATOM      9  N   LIG    1       -3.830   1.717  -4.383  0.00  0.00    -0.370 N 
ATOM     10  N   LIG    1       -3.120   2.915  -4.231  0.00  0.00    -0.290 NA
ATOM     11  C   LIG    1       -2.420   2.838  -3.128  0.00  0.00    +0.270 A 
BRANCH   9  12
ATOM     12  C   LIG    1       -4.741   1.389  -5.482  0.00  0.00    +0.320 C 
ATOM     13  C   LIG    1       -5.817   2.471  -5.594  0.00  0.00    +0.040 C 
ENDBRANCH   9  12
ENDBRANCH   5   7
BRANCH   1  14
ATOM     14  S   LIG    1       -2.928   0.432   2.399  0.00  0.00    +2.700 S 
ATOM     15  O   LIG    1       -4.312   0.716   2.251  0.00  0.00    -0.950 OA
ATOM     16  O   LIG    1       -2.195   0.727   3.580  0.00  0.00    -0.950 OA
BRANCH  14  20
ATOM     17  C   LIG    1       -2.524  -3.968   1.638  0.00  0.00    +0.370 A 
ATOM     18  C   LIG    1       -1.546  -3.339   2.396  0.00  0.00    -0.060 A 
ATOM     19  C   LIG    1       -1.653  -1.980   2.641  0.00  0.00    +0.220 A 
ATOM     20  C   LIG    1       -2.741  -1.297   2.117  0.00  0.00    -0.780 A 
ATOM     21  C   LIG    1       -3.680  -1.989   1.376  0.00  0.00    +0.430 A 
ATOM     22  N   LIG    1       -3.547  -3.283   1.155  0.00  0.00    -0.550 NA
BRANCH  17  23
ATOM     23  O   LIG    1       -2.431  -5.299   1.391  0.00  0.00    -0.300 OA
BRANCH  23  25
ATOM     24  C   LIG    1       -3.193  -7.383   0.434  0.00  0.00    +0.060 C 
ATOM     25  C   LIG    1       -3.469  -5.887   0.605  0.00  0.00    +0.200 C 
ENDBRANCH  23  25
ENDBRANCH  17  23
ENDBRANCH  14  20
ENDBRANCH   1  14
TORSDOF 6
