REMARK  Name = ZINCrH000004v2HE.0
REMARK                            x       y       z     vdW  Elec       q    Type
REMARK                         _______ _______ _______ _____ _____    ______ ____
ROOT
ATOM      1  O   LIG    1       -1.181  -0.965   3.368  0.00  0.00    -0.480 OA
ATOM      2  C   LIG    1       -1.160  -2.178   3.346  0.00  0.00    +0.520 C 
ATOM      3  N   LIG    1       -0.824  -2.826   2.213  0.00  0.00    -0.660 N 
ATOM      4  H   LIG    1       -0.885  -3.793   2.172  0.00  0.00    +0.420 HD
ENDROOT
BRANCH   3   5
ATOM      5  C   LIG    1       -0.387  -2.103   1.095  0.00  0.00    +0.170 A 
ATOM      6  C   LIG    1        0.188  -0.850   1.262  0.00  0.00    +0.050 A 
ATOM      7  C   LIG    1        0.618  -0.140   0.153  0.00  0.00    +0.100 A 
ATOM      8  C   LIG    1        0.474  -0.679  -1.117  0.00  0.00    +0.060 A 
ATOM      9  O   LIG    1        0.902   0.031  -2.203  0.00  0.00    -0.310 OA
ATOM     10  C   LIG    1        2.316   0.202  -2.320  0.00  0.00    +0.230 C 
ATOM     11  C   LIG    1        2.785   1.392  -1.498  0.00  0.00    -0.010 C 
ATOM     12  C   LIG    1        2.576   1.183  -0.006  0.00  0.00    +0.230 C 
ATOM     13  C   LIG    1       -0.100  -1.928  -1.284  0.00  0.00    +0.070 A 
ATOM     14  O   LIG    1        1.184   1.093   0.303  0.00  0.00    -0.310 OA
ATOM     15  C   LIG    1       -0.530  -2.640  -0.178  0.00  0.00    -0.060 A 
ATOM     16 CL   LIG    1       -1.250  -4.206  -0.382  0.00  0.00    -0.050 Cl
ENDBRANCH   3   5
BRANCH   2  17
ATOM     17  C   LIG    1       -1.510  -2.960   4.586  0.00  0.00    +0.150 C 
ATOM     18  C   LIG    1       -2.881  -3.661   4.430  0.00  0.00    +0.090 C 
ATOM     19  C   LIG    1       -3.478  -3.529   5.818  0.00  0.00    +0.130 C 
ATOM     20  N   LIG    1       -2.804  -2.639   6.466  0.00  0.00    -0.270 NA
ATOM     21  O   LIG    1       -1.757  -2.078   5.700  0.00  0.00    -0.160 OA
BRANCH  19  22
ATOM     22  C   LIG    1       -4.633  -4.289   6.339  0.00  0.00    -0.020 A 
ATOM     23  C   LIG    1       -5.085  -4.071   7.641  0.00  0.00    +0.050 A 
ATOM     24  C   LIG    1       -6.165  -4.783   8.123  0.00  0.00    +0.050 A 
ATOM     25  C   LIG    1       -6.799  -5.712   7.318  0.00  0.00    +0.010 A 
ATOM     26  C   LIG    1       -6.356  -5.934   6.024  0.00  0.00    +0.100 A 
ATOM     27  F   LIG    1       -6.981  -6.843   5.244  0.00  0.00    -0.130 F 
ATOM     28  C   LIG    1       -5.280  -5.223   5.528  0.00  0.00    +0.020 A 
ENDBRANCH  19  22
ENDBRANCH   2  17
TORSDOF 3
