REMARK  Name = ZINCrD00000F5Lie.0
REMARK                            x       y       z     vdW  Elec       q    Type
REMARK                         _______ _______ _______ _____ _____    ______ ____
ROOT
ATOM      1  C   LIG    1        4.930   1.468  -0.117  0.00  0.00    +0.280 C 
ATOM      2  C   LIG    1        3.642   2.263   0.192  0.00  0.00    -0.030 C 
ATOM      3  C   LIG    1        3.950   2.989   1.526  0.00  0.00    +0.020 C 
ATOM      4  C   LIG    1        5.443   3.377   1.371  0.00  0.00    +0.030 C 
ATOM      5  C   LIG    1        6.062   2.181   0.633  0.00  0.00    -0.100 C 
ATOM      6  C   LIG    1        6.952   1.278   1.491  0.00  0.00    +0.020 C 
ATOM      7  C   LIG    1        7.866   1.152   0.259  0.00  0.00    +0.010 C 
ATOM      8  C   LIG    1        7.300   2.505  -0.207  0.00  0.00    +0.020 C 
ENDROOT
BRANCH   1  10
ATOM      9  C   LIG    1        4.975  -0.939  -0.488  0.00  0.00    +0.560 C 
ATOM     10  N   LIG    1        4.798   0.090   0.363  0.00  0.00    -0.710 N 
ATOM     11  H   LIG    1        4.583  -0.081   1.293  0.00  0.00    +0.400 HD
ATOM     12  O   LIG    1        5.245  -0.725  -1.654  0.00  0.00    -0.530 OA
BRANCH   9  17
ATOM     13  C   LIG    1        4.898  -4.699  -0.421  0.00  0.00    -0.100 A 
ATOM     14  C   LIG    1        4.590  -4.936   0.914  0.00  0.00    +0.020 A 
ATOM     15  C   LIG    1        4.409  -3.878   1.784  0.00  0.00    +0.040 A 
ATOM     16  C   LIG    1        4.533  -2.579   1.335  0.00  0.00    +0.040 A 
ATOM     17  C   LIG    1        4.842  -2.330  -0.004  0.00  0.00    -0.120 A 
ATOM     18  C   LIG    1        5.019  -3.397  -0.884  0.00  0.00    +0.100 A 
BRANCH  13  19
ATOM     19  S   LIG    1        5.127  -6.053  -1.526  0.00  0.00    -0.080 S 
BRANCH  19  20
ATOM     20  C   LIG    1        4.861  -7.498  -0.462  0.00  0.00    +0.220 C 
BRANCH  20  22
ATOM     21  C   LIG    1        5.149  -9.708  -1.888  0.00  0.00    +0.080 C 
ATOM     22  C   LIG    1        5.021  -8.727  -1.255  0.00  0.00    -0.200 C 
ENDBRANCH  20  22
ENDBRANCH  19  20
ENDBRANCH  13  19
ENDBRANCH   9  17
ENDBRANCH   1  10
BRANCH   2  23
ATOM     23  C   LIG    1        2.454   1.314   0.360  0.00  0.00    +0.270 C 
BRANCH  23  24
ATOM     24  N   LIG    1        1.233   2.093   0.577  0.00  0.00    -0.730 N 
ATOM     25  H   LIG    1        1.273   3.062   0.594  0.00  0.00    +0.400 HD
ATOM     26  C   LIG    1        0.054   1.464   0.752  0.00  0.00    +0.540 C 
ATOM     27  O   LIG    1        0.004   0.249   0.730  0.00  0.00    -0.540 OA
BRANCH  26  28
ATOM     28  C   LIG    1       -1.173   2.247   0.963  0.00  0.00    -0.090 C 
ATOM     29  C   LIG    1       -2.337   1.626   1.130  0.00  0.00    +0.140 C 
ENDBRANCH  26  28
ENDBRANCH  23  24
ENDBRANCH   2  23
TORSDOF 8
