REMARK  Name = ZINCtV00001bB3jC.0
REMARK                            x       y       z     vdW  Elec       q    Type
REMARK                         _______ _______ _______ _____ _____    ______ ____
ROOT
ATOM      1  C   LIG    1        1.192   1.797   0.019  0.00  0.00    +0.040 C 
ATOM      2  C   LIG    1       -0.009   1.091  -0.099  0.00  0.00    +0.080 C 
ENDROOT
BRANCH   2   3
ATOM      3  C   LIG    1       -1.224   1.774  -0.080  0.00  0.00    +0.080 A 
ATOM      4  N   LIG    1       -2.406   1.201  -0.190  0.00  0.00    -0.440 NA
ATOM      5  C   LIG    1       -3.468   1.953  -0.157  0.00  0.00    +0.110 A 
ATOM      6  C   LIG    1       -3.138   3.379   0.004  0.00  0.00    -0.190 A 
ATOM      7  C   LIG    1       -4.153   4.327   0.058  0.00  0.00    +0.050 A 
ATOM      8  C   LIG    1       -5.477   3.971  -0.034  0.00  0.00    +0.060 A 
ATOM      9  C   LIG    1       -5.872   2.621  -0.190  0.00  0.00    -0.050 A 
ATOM     10  C   LIG    1       -7.231   2.286  -0.283  0.00  0.00    +0.030 A 
ATOM     11  C   LIG    1       -7.603   0.963  -0.435  0.00  0.00    +0.020 A 
ATOM     12  C   LIG    1       -6.648  -0.036  -0.498  0.00  0.00    +0.020 A 
ATOM     13  C   LIG    1       -5.299   0.274  -0.409  0.00  0.00    +0.040 A 
ATOM     14  C   LIG    1       -4.905   1.598  -0.255  0.00  0.00    -0.000 A 
ATOM     15  S   LIG    1       -1.385   3.516   0.101  0.00  0.00    +0.140 S 
ENDBRANCH   2   3
BRANCH   1  18
ATOM     16  C   LIG    1        4.814   1.148   0.089  0.00  0.00    +0.020 A 
ATOM     17  C   LIG    1        3.634   1.820   0.114  0.00  0.00    +0.120 A 
ATOM     18  C   LIG    1        2.416   1.109  -0.006  0.00  0.00    -0.050 A 
ATOM     19  C   LIG    1        2.437  -0.299  -0.145  0.00  0.00    +0.100 A 
ATOM     20  C   LIG    1        3.625  -0.958  -0.173  0.00  0.00    +0.000 A 
ATOM     21  C   LIG    1        4.828  -0.247  -0.054  0.00  0.00    +0.160 A 
BRANCH  21  22
ATOM     22  N   LIG    1        6.027  -0.922  -0.078  0.00  0.00    -0.480 N 
ATOM     23  C   LIG    1        6.045  -2.013   0.930  0.00  0.00    +0.190 C 
ATOM     24  C   LIG    1        7.170  -2.948   0.420  0.00  0.00    +0.040 C 
ATOM     25  C   LIG    1        6.998  -2.890  -1.115  0.00  0.00    +0.020 C 
ATOM     26  C   LIG    1        6.240  -1.578  -1.386  0.00  0.00    +0.180 C 
ENDBRANCH  21  22
BRANCH  16  28
ATOM     27  O   LIG    1        6.085   3.207   0.242  0.00  0.00    -0.210 OA
ATOM     28  N   LIG    1        6.089   1.890   0.214  0.00  0.00    -0.030 N 
ATOM     29  O   LIG    1        7.228   1.234   0.298  0.00  0.00    -0.090 OA
ENDBRANCH  16  28
ENDBRANCH   1  18
TORSDOF 4
