REMARK  Name = ZINCqH000003697Q.0
REMARK                            x       y       z     vdW  Elec       q    Type
REMARK                         _______ _______ _______ _____ _____    ______ ____
ROOT
ATOM      1  C   LIG    1        1.598  -7.081  -0.052  0.00  0.00    +0.070 C 
ATOM      2  C   LIG    1        2.364  -6.838   1.250  0.00  0.00    +0.030 C 
ENDROOT
BRANCH   1  10
ATOM      3  C   LIG    1        2.705 -10.342  -3.251  0.00  0.00    +0.100 A 
ATOM      4  C   LIG    1        2.177 -11.593  -2.945  0.00  0.00    -0.050 A 
ATOM      5  C   LIG    1        1.421 -11.777  -1.809  0.00  0.00    +0.030 A 
ATOM      6  C   LIG    1        1.179 -10.707  -0.955  0.00  0.00    +0.060 A 
ATOM      7  N   LIG    1        0.479 -10.578   0.227  0.00  0.00    -0.590 N 
ATOM      8  H   LIG    1        0.006 -11.296   0.675  0.00  0.00    +0.420 HD
ATOM      9  C   LIG    1        0.551  -9.286   0.671  0.00  0.00    +0.240 A 
ATOM     10  C   LIG    1        1.281  -8.549  -0.181  0.00  0.00    -0.170 A 
ATOM     11  C   LIG    1        1.706  -9.440  -1.264  0.00  0.00    -0.060 A 
ATOM     12  C   LIG    1        2.476  -9.267  -2.415  0.00  0.00    +0.020 A 
BRANCH   3  14
ATOM     13  C   LIG    1        3.648 -11.330  -5.198  0.00  0.00    +0.230 C 
ATOM     14  O   LIG    1        3.449 -10.177  -4.377  0.00  0.00    -0.320 OA
ENDBRANCH   3  14
ENDBRANCH   1  10
BRANCH   1  15
ATOM     15  C   LIG    1        0.295  -6.278  -0.035  0.00  0.00    +0.290 C 
BRANCH  15  16
ATOM     16  N   LIG    1        0.605  -4.846  -0.030  0.00  0.00    -0.700 N 
ATOM     17  H   LIG    1        1.528  -4.550  -0.037  0.00  0.00    +0.410 HD
ATOM     18  C   LIG    1       -0.394  -3.941  -0.016  0.00  0.00    +0.600 C 
ATOM     19  O   LIG    1       -1.551  -4.313  -0.007  0.00  0.00    -0.520 OA
BRANCH  18  20
ATOM     20  C   LIG    1       -0.081  -2.496  -0.011  0.00  0.00    +0.050 A 
ATOM     21  N   LIG    1        1.109  -1.999  -0.019  0.00  0.00    -0.410 NA
ATOM     22  C   LIG    1        1.238  -0.674  -0.013  0.00  0.00    +0.020 A 
ATOM     23  C   LIG    1        2.406   0.122  -0.019  0.00  0.00    +0.380 A 
ATOM     24  N   LIG    1        2.323   1.430  -0.011  0.00  0.00    -0.470 NA
ATOM     25  C   LIG    1        1.167   2.073   0.002  0.00  0.00    +0.280 A 
ATOM     26  C   LIG    1       -0.017   1.392   0.010  0.00  0.00    +0.030 A 
ATOM     27  C   LIG    1        0.002  -0.004   0.002  0.00  0.00    -0.150 A 
ATOM     28  S   LIG    1       -1.280  -1.208   0.008  0.00  0.00    +0.190 S 
ENDBRANCH  18  20
ENDBRANCH  15  16
ENDBRANCH   1  15
TORSDOF 5
