REMARK  Name = ZINCrD00000nCIIE.0
REMARK                            x       y       z     vdW  Elec       q    Type
REMARK                         _______ _______ _______ _____ _____    ______ ____
ROOT
ATOM      1  C   LIG    1        0.014   1.471   0.029  0.00  0.00    +0.230 C 
ATOM      2  C   LIG    1       -0.705   1.965   1.286  0.00  0.00    +0.020 C 
ATOM      3  C   LIG    1       -0.736   3.494   1.288  0.00  0.00    +0.040 C 
ATOM      4  C   LIG    1       -1.480   3.991   0.047  0.00  0.00    -0.010 C 
ATOM      5  C   LIG    1       -0.761   3.497  -1.210  0.00  0.00    +0.060 C 
ATOM      6  C   LIG    1       -0.730   1.967  -1.212  0.00  0.00    +0.020 C 
ENDROOT
BRANCH   1   8
ATOM      7  C   LIG    1        1.021  -0.649   0.687  0.00  0.00    +0.560 C 
ATOM      8  N   LIG    1        0.044   0.006   0.028  0.00  0.00    -0.730 N 
ATOM      9  H   LIG    1       -0.638  -0.492  -0.448  0.00  0.00    +0.400 HD
ATOM     10  O   LIG    1        1.877  -0.024   1.283  0.00  0.00    -0.540 OA
BRANCH   7  14
ATOM     11  C   LIG    1        1.108  -4.894   0.681  0.00  0.00    +0.160 A 
ATOM     12  C   LIG    1        2.087  -4.182   1.363  0.00  0.00    -0.020 A 
ATOM     13  C   LIG    1        2.062  -2.805   1.368  0.00  0.00    +0.120 A 
ATOM     14  C   LIG    1        1.051  -2.124   0.685  0.00  0.00    -0.180 A 
ATOM     15  C   LIG    1        0.065  -2.845   0.005  0.00  0.00    +0.090 A 
ATOM     16  C   LIG    1        0.100  -4.221   0.002  0.00  0.00    -0.080 A 
BRANCH  11  18
ATOM     17  C   LIG    1        0.099  -6.921  -0.041  0.00  0.00    +0.240 C 
ATOM     18  O   LIG    1        1.136  -6.251   0.680  0.00  0.00    -0.310 OA
ENDBRANCH  11  18
ENDBRANCH   7  14
ENDBRANCH   1   8
BRANCH   4  19
ATOM     19  C   LIG    1       -1.511   5.497   0.049  0.00  0.00    +0.520 C 
ATOM     20  N   LIG    1       -2.098   6.158   1.066  0.00  0.00    -0.660 N 
ATOM     21  H   LIG    1       -2.571   5.666   1.756  0.00  0.00    +0.410 HD
ATOM     22  O   LIG    1       -1.008   6.115  -0.866  0.00  0.00    -0.510 OA
BRANCH  20  23
ATOM     23  C   LIG    1       -2.026   7.554   1.128  0.00  0.00    +0.090 A 
ATOM     24  C   LIG    1       -0.988   8.235   0.505  0.00  0.00    +0.270 A 
ATOM     25  N   LIG    1       -0.920   9.550   0.556  0.00  0.00    -0.470 NA
ATOM     26  C   LIG    1       -1.818  10.268   1.202  0.00  0.00    +0.240 A 
ATOM     27  C   LIG    1       -2.878   9.662   1.852  0.00  0.00    -0.010 A 
ATOM     28  C   LIG    1       -2.992   8.282   1.819  0.00  0.00    -0.080 A 
ATOM     29  C   LIG    1       -4.133   7.585   2.514  0.00  0.00    +0.110 C 
ENDBRANCH  20  23
ENDBRANCH   4  19
TORSDOF 5
