REMARK  Name = ZINCrD000000fR8l.0
REMARK                            x       y       z     vdW  Elec       q    Type
REMARK                         _______ _______ _______ _____ _____    ______ ____
ROOT
ATOM      1  N   LIG    1        5.304  -1.610  -1.717  0.00  0.00    -0.720 N 
ATOM      2  H   LIG    1        5.902  -1.844  -0.990  0.00  0.00    +0.410 HD
ATOM      3  C   LIG    1        4.141  -0.981  -1.457  0.00  0.00    +0.520 C 
ATOM      4  O   LIG    1        3.393  -0.689  -2.366  0.00  0.00    -0.520 OA
ENDROOT
BRANCH   1   5
ATOM      5  C   LIG    1        5.665  -1.941  -3.098  0.00  0.00    +0.310 C 
BRANCH   5   8
ATOM      6  N   LIG    1        7.540  -3.035  -4.284  0.00  0.00    -0.670 N 
ATOM      7  H   LIG    1        7.037  -2.937  -5.108  0.00  0.00    +0.420 HD
ATOM      8  C   LIG    1        7.003  -2.635  -3.115  0.00  0.00    +0.510 C 
ATOM      9  O   LIG    1        7.596  -2.834  -2.075  0.00  0.00    -0.510 OA
BRANCH   6  14
ATOM     10  C   LIG    1       10.539  -4.939  -3.292  0.00  0.00    -0.150 A 
ATOM     11  C   LIG    1       11.376  -4.688  -4.384  0.00  0.00    +0.060 A 
ATOM     12  C   LIG    1       10.934  -3.897  -5.424  0.00  0.00    +0.030 A 
ATOM     13  C   LIG    1        9.662  -3.354  -5.394  0.00  0.00    +0.020 A 
ATOM     14  C   LIG    1        8.824  -3.592  -4.311  0.00  0.00    +0.130 A 
ATOM     15  C   LIG    1        9.256  -4.385  -3.260  0.00  0.00    +0.090 A 
BRANCH  10  17
ATOM     16  C   LIG    1       12.391  -6.378  -2.217  0.00  0.00    +0.070 C 
ATOM     17  C   LIG    1       11.008  -5.782  -2.180  0.00  0.00    +0.390 C 
ATOM     18  O   LIG    1       10.280  -5.997  -1.234  0.00  0.00    -0.450 OA
ENDBRANCH  10  17
ENDBRANCH   6  14
ENDBRANCH   5   8
ENDBRANCH   1   5
BRANCH   3  19
ATOM     19  C   LIG    1        3.769  -0.641  -0.037  0.00  0.00    +0.120 C 
BRANCH  19  20
ATOM     20  C   LIG    1        2.431   0.053  -0.021  0.00  0.00    -0.060 A 
ATOM     21  C   LIG    1        2.366   1.412  -0.018  0.00  0.00    +0.020 A 
ATOM     22  C   LIG    1        1.138   2.072  -0.003  0.00  0.00    +0.010 A 
ATOM     23  C   LIG    1       -0.031   1.375   0.011  0.00  0.00    +0.030 A 
ATOM     24  C   LIG    1       -0.004  -0.030   0.009  0.00  0.00    -0.050 A 
ATOM     25  C   LIG    1       -1.190  -0.783   0.024  0.00  0.00    +0.030 A 
ATOM     26  C   LIG    1       -1.124  -2.143   0.023  0.00  0.00    +0.000 A 
ATOM     27  C   LIG    1        0.103  -2.802   0.006  0.00  0.00    +0.010 A 
ATOM     28  C   LIG    1        1.272  -2.105  -0.008  0.00  0.00    +0.010 A 
ATOM     29  C   LIG    1        1.245  -0.700  -0.007  0.00  0.00    -0.030 A 
ENDBRANCH  19  20
ENDBRANCH   3  19
TORSDOF 6
