REMARK  Name = ZINCrD00000F5LjW.0
REMARK                            x       y       z     vdW  Elec       q    Type
REMARK                         _______ _______ _______ _____ _____    ______ ____
ROOT
ATOM      1  C   LIG    1        0.937   1.409  -0.214  0.00  0.00    +0.140 A 
ATOM      2  C   LIG    1        0.828   2.793  -0.244  0.00  0.00    +0.110 A 
ATOM      3  C   LIG    1        1.961   3.576  -0.142  0.00  0.00    +0.040 A 
ATOM      4  C   LIG    1        3.205   2.982  -0.021  0.00  0.00    +0.040 A 
ATOM      5  C   LIG    1        3.317   1.603   0.004  0.00  0.00    -0.660 A 
ATOM      6 CL   LIG    1        4.628   3.969   0.100  0.00  0.00    -0.040 Cl
ATOM      7  C   LIG    1        2.187   0.815  -0.092  0.00  0.00    +0.120 A 
ENDROOT
BRANCH   1  10
ATOM      8  O   LIG    1       -1.429   2.120   0.778  0.00  0.00    -0.520 OA
ATOM      9  C   LIG    1       -1.364   1.023   0.254  0.00  0.00    +0.560 C 
ATOM     10  N   LIG    1       -0.210   0.614  -0.311  0.00  0.00    -0.670 N 
ATOM     11  H   LIG    1       -0.176  -0.230  -0.788  0.00  0.00    +0.420 HD
BRANCH   9  12
ATOM     12  C   LIG    1       -2.498   0.178   0.237  0.00  0.00    -0.080 C 
ATOM     13  C   LIG    1       -3.659   0.590   0.805  0.00  0.00    +0.200 C 
BRANCH  13  14
ATOM     14  C   LIG    1       -4.794  -0.255   0.788  0.00  0.00    +0.000 A 
ATOM     15  C   LIG    1       -6.030   0.032   1.330  0.00  0.00    +0.020 A 
ATOM     16  C   LIG    1       -6.845  -1.081   1.079  0.00  0.00    +0.010 A 
ATOM     17  C   LIG    1       -6.090  -1.989   0.417  0.00  0.00    -0.010 A 
ATOM     18 BR   LIG    1       -6.678  -3.688  -0.169  0.00  0.00    +0.060 Br
ATOM     19  O   LIG    1       -4.858  -1.489   0.244  0.00  0.00    -0.150 OA
ENDBRANCH  13  14
ENDBRANCH   9  12
ENDBRANCH   1  10
BRANCH   5  20
ATOM     20  S   LIG    1        4.903   0.851   0.159  0.00  0.00    +2.690 S 
ATOM     21  O   LIG    1        5.755   1.518  -0.762  0.00  0.00    -0.930 OA
ATOM     22  O   LIG    1        4.685  -0.553   0.139  0.00  0.00    -0.950 OA
BRANCH  20  23
ATOM     23  N   LIG    1        5.472   1.214   1.671  0.00  0.00    -1.000 NA
ATOM     24  C   LIG    1        6.410   2.329   1.880  0.00  0.00    +0.270 C 
ATOM     25  C   LIG    1        5.863   3.209   3.015  0.00  0.00    +0.210 C 
ATOM     26  O   LIG    1        5.589   2.389   4.154  0.00  0.00    -0.370 OA
ATOM     27  C   LIG    1        4.583   1.397   3.933  0.00  0.00    +0.220 C 
ATOM     28  C   LIG    1        5.060   0.428   2.845  0.00  0.00    +0.280 C 
ENDBRANCH  20  23
ENDBRANCH   5  20
TORSDOF 5
