REMARK  Name = ZINCqH0000005gnW.0
REMARK                            x       y       z     vdW  Elec       q    Type
REMARK                         _______ _______ _______ _____ _____    ______ ____
ROOT
ATOM      1  C   LIG    1        3.671   1.628  -3.627  0.00  0.00    -0.150 A 
ATOM      2  C   LIG    1        3.141   0.411  -4.059  0.00  0.00    +0.130 A 
ATOM      3  C   LIG    1        3.317   0.011  -5.368  0.00  0.00    +0.000 A 
ATOM      4  C   LIG    1        4.025   0.809  -6.249  0.00  0.00    +0.150 A 
ATOM      5  C   LIG    1        4.558   2.014  -5.825  0.00  0.00    -0.680 A 
ATOM      6  C   LIG    1        4.385   2.428  -4.521  0.00  0.00    +0.160 A 
ENDROOT
BRANCH   1   9
ATOM      7  C   LIG    1        3.169   4.341  -3.039  0.00  0.00    +0.290 C 
ATOM      8  N   LIG    1        3.196   3.354  -1.957  0.00  0.00    -0.600 N 
ATOM      9  C   LIG    1        3.481   2.065  -2.228  0.00  0.00    +0.560 C 
ATOM     10  O   LIG    1        3.584   1.262  -1.321  0.00  0.00    -0.520 OA
BRANCH   8  11
ATOM     11  C   LIG    1        2.911   3.768  -0.581  0.00  0.00    +0.350 C 
BRANCH  11  12
ATOM     12  C   LIG    1        4.195   4.173   0.097  0.00  0.00    -0.100 A 
ATOM     13  C   LIG    1        4.835   3.292   0.948  0.00  0.00    +0.080 A 
ATOM     14  C   LIG    1        6.013   3.662   1.569  0.00  0.00    +0.030 A 
ATOM     15  C   LIG    1        6.552   4.916   1.340  0.00  0.00    -0.020 A 
ATOM     16  C   LIG    1        5.914   5.797   0.485  0.00  0.00    +0.040 A 
ATOM     17 CL   LIG    1        8.031   5.381   2.120  0.00  0.00    -0.050 Cl
ATOM     18  C   LIG    1        4.733   5.427  -0.133  0.00  0.00    -0.010 A 
ATOM     19 CL   LIG    1        3.929   6.534  -1.202  0.00  0.00    -0.050 Cl
ENDBRANCH  11  12
ENDBRANCH   8  11
ENDBRANCH   1   9
BRANCH   5  20
ATOM     20  S   LIG    1        5.460   3.021  -6.955  0.00  0.00    +2.700 S 
ATOM     21  O   LIG    1        5.391   4.348  -6.452  0.00  0.00    -0.950 OA
ATOM     22  O   LIG    1        5.017   2.660  -8.256  0.00  0.00    -0.950 OA
BRANCH  20  23
ATOM     23  N   LIG    1        7.049   2.566  -6.858  0.00  0.00    -1.090 NA
ATOM     24  H   LIG    1        7.713   3.189  -6.525  0.00  0.00    +0.420 HD
BRANCH  23  25
ATOM     25  C   LIG    1        7.452   1.221  -7.276  0.00  0.00    +0.220 C 
ATOM     26  C   LIG    1        8.602   0.560  -6.514  0.00  0.00    +0.020 C 
ATOM     27  C   LIG    1        8.821   1.068  -7.941  0.00  0.00    +0.030 C 
ENDBRANCH  23  25
ENDBRANCH  20  23
ENDBRANCH   5  20
TORSDOF 6
