REMARK  Name = ZINCvU0000000GBM.0
REMARK                            x       y       z     vdW  Elec       q    Type
REMARK                         _______ _______ _______ _____ _____    ______ ____
ROOT
ATOM      1  C   LIG    1       -2.072   9.613  -0.066  0.00  0.00    -0.680 A 
ATOM      2  C   LIG    1       -0.895  10.277   0.228  0.00  0.00    +0.160 A 
ATOM      3  C   LIG    1        0.253   9.564   0.527  0.00  0.00    +0.000 A 
ATOM      4  C   LIG    1        0.228   8.185   0.539  0.00  0.00    +0.100 A 
ATOM      5  C   LIG    1       -0.955   7.509   0.238  0.00  0.00    -0.150 A 
ATOM      6  C   LIG    1       -2.109   8.234  -0.063  0.00  0.00    +0.200 A 
ENDROOT
BRANCH   5   7
ATOM      7  C   LIG    1       -0.987   6.031   0.243  0.00  0.00    +0.560 C 
ATOM      8  N   LIG    1        0.129   5.334   0.534  0.00  0.00    -0.670 N 
ATOM      9  H   LIG    1        0.931   5.799   0.818  0.00  0.00    +0.410 HD
ATOM     10  O   LIG    1       -2.021   5.444  -0.015  0.00  0.00    -0.500 OA
BRANCH   8  11
ATOM     11  C   LIG    1        0.130   3.939   0.425  0.00  0.00    +0.130 A 
ATOM     12  C   LIG    1       -0.795   3.185   1.135  0.00  0.00    -0.060 A 
ATOM     13  C   LIG    1       -0.795   1.809   1.021  0.00  0.00    +0.010 A 
ATOM     14  C   LIG    1        0.133   1.181   0.210  0.00  0.00    +0.020 A 
ATOM     15  C   LIG    1        1.056   1.929  -0.498  0.00  0.00    +0.020 A 
ATOM     16  C   LIG    1       -1.802   3.868   2.024  0.00  0.00    +0.090 C 
ATOM     17  C   LIG    1        1.057   3.306  -0.393  0.00  0.00    -0.080 A 
BRANCH  17  18
ATOM     18  C   LIG    1        2.063   4.120  -1.165  0.00  0.00    +0.010 C 
ATOM     19  C   LIG    1        1.884   3.865  -2.663  0.00  0.00    +0.040 C 
ATOM     20  C   LIG    1        3.478   3.716  -0.744  0.00  0.00    +0.040 C 
ENDBRANCH  17  18
ENDBRANCH   8  11
ENDBRANCH   5   7
BRANCH   1  21
ATOM     21  S   LIG    1       -3.528  10.530  -0.445  0.00  0.00    +2.690 S 
ATOM     22  O   LIG    1       -4.358   9.668  -1.210  0.00  0.00    -0.940 OA
ATOM     23  O   LIG    1       -3.092  11.802  -0.907  0.00  0.00    -0.940 OA
BRANCH  21  24
ATOM     24  N   LIG    1       -4.324  10.800   0.982  0.00  0.00    -0.950 N 
ATOM     25  C   LIG    1       -4.091  12.039   1.728  0.00  0.00    +0.320 C 
BRANCH  24  30
ATOM     26  C   LIG    1       -7.947   6.924   2.984  0.00  0.00    +0.090 C 
ATOM     27  C   LIG    1       -6.984   7.954   2.453  0.00  0.00    -0.080 A 
ATOM     28  C   LIG    1       -5.859   8.290   3.184  0.00  0.00    +0.020 A 
ATOM     29  C   LIG    1       -4.975   9.233   2.699  0.00  0.00    +0.020 A 
ATOM     30  C   LIG    1       -5.216   9.845   1.475  0.00  0.00    +0.120 A 
ATOM     31  C   LIG    1       -6.349   9.509   0.746  0.00  0.00    +0.030 A 
ATOM     32  C   LIG    1       -7.227   8.562   1.234  0.00  0.00    +0.020 A 
ENDBRANCH  24  30
ENDBRANCH  21  24
ENDBRANCH   1  21
TORSDOF 6
