REMARK  Name = ZINCrg000000s6oY.1
REMARK                            x       y       z     vdW  Elec       q    Type
REMARK                         _______ _______ _______ _____ _____    ______ ____
ROOT
ATOM      1  C   LIG    1       -0.014   1.211   0.009  0.00  0.00    +0.610 C 
ATOM      2  N   LIG    1        1.143   1.900   0.001  0.00  0.00    -0.730 N 
ATOM      3  H   LIG    1        1.130   2.870   0.007  0.00  0.00    +0.410 HD
ATOM      4  O   LIG    1        0.002  -0.004   0.002  0.00  0.00    -0.540 OA
ENDROOT
BRANCH   1   7
ATOM      5  N   LIG    1       -2.831   3.607   0.034  0.00  0.00    -0.380 N 
ATOM      6  N   LIG    1       -1.466   3.302   0.026  0.00  0.00    -0.430 NA
ATOM      7  C   LIG    1       -1.309   1.935   0.019  0.00  0.00    +0.060 A 
ATOM      8  C   LIG    1       -2.537   1.362   0.016  0.00  0.00    -0.270 A 
ATOM      9  C   LIG    1       -3.522   2.448   0.031  0.00  0.00    +0.470 A 
ATOM     10  O   LIG    1       -4.733   2.327   0.036  0.00  0.00    -0.600 OA
BRANCH   5  15
ATOM     11  C   LIG    1       -5.076   8.816   0.069  0.00  0.00    +0.070 C 
ATOM     12  C   LIG    1       -4.480   7.432   0.060  0.00  0.00    -0.130 A 
ATOM     13  C   LIG    1       -5.307   6.324   0.057  0.00  0.00    +0.030 A 
ATOM     14  C   LIG    1       -4.764   5.054   0.049  0.00  0.00    -0.010 A 
ATOM     15  C   LIG    1       -3.385   4.891   0.042  0.00  0.00    +0.210 A 
ATOM     16  C   LIG    1       -2.556   6.006   0.050  0.00  0.00    -0.030 A 
ATOM     17  C   LIG    1       -3.106   7.272   0.053  0.00  0.00    -0.070 A 
ATOM     18  C   LIG    1       -2.208   8.483   0.056  0.00  0.00    +0.080 C 
ENDBRANCH   5  15
ENDBRANCH   1   7
BRANCH   2  19
ATOM     19  C   LIG    1        2.422   1.185  -0.015  0.00  0.00    +0.350 C 
BRANCH  19  20
ATOM     20  C   LIG    1        3.554   2.180  -0.020  0.00  0.00    -0.170 A 
ATOM     21  C   LIG    1        4.032   2.843   1.048  0.00  0.00    +0.020 A 
ATOM     22  C   LIG    1        3.589   2.753   2.487  0.00  0.00    +0.390 C 
ATOM     23  N   LIG    1        4.647   3.333   3.333  0.00  0.00    -0.510 N 
ATOM     24  C   LIG    1        5.019   4.661   2.828  0.00  0.00    +0.290 C 
ATOM     25  C   LIG    1        5.806   4.517   1.518  0.00  0.00    +0.360 C 
ATOM     26  H   LIG    1        4.311   3.417   4.280  0.00  0.00    +0.440 HD
ATOM     27  H   LIG    1        5.456   2.730   3.318  0.00  0.00    +0.430 HD
ATOM     28  N   LIG    1        5.044   3.638   0.625  0.00  0.00    -0.390 N 
ATOM     29  N   LIG    1        5.188   3.459  -0.749  0.00  0.00    -0.250 NA
ATOM     30  C   LIG    1        4.293   2.584  -1.140  0.00  0.00    +0.280 A 
ENDBRANCH  19  20
ENDBRANCH   2  19
TORSDOF 4
