REMARK  Name = ZINCqH0000035ooG.0
REMARK                            x       y       z     vdW  Elec       q    Type
REMARK                         _______ _______ _______ _____ _____    ______ ____
ROOT
ATOM      1  C   LIG    1       -1.332   2.113   0.020  0.00  0.00    +0.360 C 
ENDROOT
BRANCH   1   2
ATOM      2  C   LIG    1       -0.017   1.378   0.010  0.00  0.00    -0.070 A 
ATOM      3  C   LIG    1        0.002  -0.004   0.002  0.00  0.00    +0.050 A 
ATOM      4  C   LIG    1        1.208  -0.680  -0.013  0.00  0.00    +0.060 A 
ATOM      5  C   LIG    1        2.397   0.027  -0.021  0.00  0.00    -0.030 A 
ATOM      6  C   LIG    1        2.378   1.412  -0.013  0.00  0.00    -0.030 A 
ATOM      7 CL   LIG    1        3.869   2.301  -0.023  0.00  0.00    -0.040 Cl
ATOM      8 CL   LIG    1        3.912  -0.821  -0.040  0.00  0.00    -0.040 Cl
ATOM      9  C   LIG    1        1.171   2.086   0.002  0.00  0.00    +0.050 A 
ENDBRANCH   1   2
BRANCH   1  13
ATOM     10  N   LIG    1       -2.286   4.865  -2.225  0.00  0.00    -0.750 N 
ATOM     11  H   LIG    1       -1.424   5.269  -2.412  0.00  0.00    +0.400 HD
ATOM     12  C   LIG    1       -2.365   3.791  -1.414  0.00  0.00    +0.710 C 
ATOM     13  N   LIG    1       -1.246   3.280  -0.862  0.00  0.00    -0.740 N 
ATOM     14  H   LIG    1       -0.385   3.684  -1.049  0.00  0.00    +0.400 HD
ATOM     15  O   LIG    1       -3.445   3.285  -1.179  0.00  0.00    -0.580 OA
BRANCH  10  16
ATOM     16  C   LIG    1       -3.501   5.421  -2.825  0.00  0.00    +0.290 C 
BRANCH  16  17
ATOM     17  C   LIG    1       -3.136   6.625  -3.695  0.00  0.00    +0.000 C 
BRANCH  17  18
ATOM     18  C   LIG    1       -4.405   7.205  -4.321  0.00  0.00    +0.220 C 
BRANCH  18  19
ATOM     19  O   LIG    1       -4.974   6.249  -5.218  0.00  0.00    -0.550 OA
ATOM     20  H   LIG    1       -4.389   5.994  -5.944  0.00  0.00    +0.370 HD
ENDBRANCH  18  19
BRANCH  18  21
ATOM     21  C   LIG    1       -4.057   8.481  -5.090  0.00  0.00    +0.140 C 
BRANCH  21  23
ATOM     22  C   LIG    1       -5.042  10.292  -6.313  0.00  0.00    +0.200 C 
ATOM     23  O   LIG    1       -5.257   9.087  -5.577  0.00  0.00    -0.380 OA
ENDBRANCH  21  23
ENDBRANCH  18  21
ENDBRANCH  17  18
ENDBRANCH  16  17
ENDBRANCH  10  16
ENDBRANCH   1  13
BRANCH   1  24
ATOM     24  C   LIG    1       -1.644   2.566   1.423  0.00  0.00    -0.100 A 
ATOM     25  C   LIG    1       -1.039   3.700   1.934  0.00  0.00    +0.010 A 
ATOM     26  C   LIG    1       -1.328   4.117   3.219  0.00  0.00    +0.000 A 
ATOM     27  C   LIG    1       -2.214   3.396   3.998  0.00  0.00    +0.000 A 
ATOM     28  C   LIG    1       -2.815   2.260   3.489  0.00  0.00    +0.000 A 
ATOM     29  C   LIG    1       -2.529   1.845   2.201  0.00  0.00    +0.020 A 
ENDBRANCH   1  24
TORSDOF 9
