REMARK  Name = ZINCrD00000l5qol.0
REMARK                            x       y       z     vdW  Elec       q    Type
REMARK                         _______ _______ _______ _____ _____    ______ ____
ROOT
ATOM      1  N   LIG    1        2.282  -4.284   0.811  0.00  0.00    -0.470 NA
ATOM      2  C   LIG    1        3.545  -5.046   0.632  0.00  0.00    +0.190 C 
ATOM      3  C   LIG    1        3.810  -5.008  -0.889  0.00  0.00    +0.040 C 
ATOM      4  C   LIG    1        3.059  -3.760  -1.396  0.00  0.00    +0.050 C 
ATOM      5  C   LIG    1        2.403  -3.148  -0.139  0.00  0.00    +0.230 C 
ENDROOT
BRANCH   5   6
ATOM      6  C   LIG    1        1.042  -2.595  -0.473  0.00  0.00    +0.150 A 
ATOM      7  N   LIG    1       -0.039  -3.292  -0.711  0.00  0.00    -0.210 NA
ATOM      8  N   LIG    1       -1.029  -2.509  -0.963  0.00  0.00    -0.290 NA
ATOM      9  C   LIG    1       -0.624  -1.251  -0.898  0.00  0.00    +0.190 A 
ATOM     10  C   LIG    1       -1.272  -0.015  -1.081  0.00  0.00    +0.090 A 
ATOM     11  C   LIG    1       -0.559   1.136  -0.941  0.00  0.00    +0.060 A 
ATOM     12  C   LIG    1        0.808   1.074  -0.618  0.00  0.00    +0.030 A 
ATOM     13  C   LIG    1        1.415  -0.119  -0.446  0.00  0.00    +0.230 A 
ATOM     14  N   LIG    1        0.713  -1.280  -0.583  0.00  0.00    -0.390 N 
ENDBRANCH   5   6
BRANCH   1  15
ATOM     15  C   LIG    1        2.148  -3.803   2.192  0.00  0.00    +0.200 C 
BRANCH  15  17
ATOM     16  N   LIG    1        1.609  -4.750   4.413  0.00  0.00    -0.580 N 
ATOM     17  C   LIG    1        1.784  -4.956   3.092  0.00  0.00    +0.520 C 
ATOM     18  O   LIG    1        1.649  -6.068   2.628  0.00  0.00    -0.490 OA
BRANCH  16  19
ATOM     19  C   LIG    1        1.165  -5.795   5.231  0.00  0.00    +0.150 A 
ATOM     20  C   LIG    1       -0.189  -6.093   5.307  0.00  0.00    +0.010 A 
ATOM     21  C   LIG    1       -0.623  -7.128   6.112  0.00  0.00    +0.020 A 
ATOM     22  C   LIG    1        0.289  -7.861   6.849  0.00  0.00    +0.010 A 
ATOM     23  C   LIG    1        1.637  -7.565   6.779  0.00  0.00    +0.020 A 
ATOM     24  C   LIG    1        2.078  -6.534   5.972  0.00  0.00    +0.010 A 
ENDBRANCH  16  19
BRANCH  16  26
ATOM     25  C   LIG    1        0.621  -2.907   5.681  0.00  0.00    +0.030 C 
ATOM     26  C   LIG    1        1.881  -3.432   4.992  0.00  0.00    +0.220 C 
ATOM     27  C   LIG    1        3.012  -3.550   6.016  0.00  0.00    +0.030 C 
ENDBRANCH  16  26
ENDBRANCH  15  17
ENDBRANCH   1  15
TORSDOF 5
