REMARK  Name = ZINCpe000000WyQb.0
REMARK                            x       y       z     vdW  Elec       q    Type
REMARK                         _______ _______ _______ _____ _____    ______ ____
ROOT
ATOM      1  C   LIG    1       -0.014   1.212   0.009  0.00  0.00    +0.590 C 
ATOM      2  N   LIG    1        1.019   1.863  -0.561  0.00  0.00    -0.610 N 
ATOM      3  C   LIG    1        0.808   3.139  -1.258  0.00  0.00    +0.250 C 
ATOM      4  C   LIG    1        1.390   3.031  -2.671  0.00  0.00    +0.020 C 
ATOM      5  C   LIG    1        2.855   2.597  -2.584  0.00  0.00    +0.030 C 
ATOM      6  C   LIG    1        2.942   1.222  -1.920  0.00  0.00    -0.020 C 
ATOM      7  C   LIG    1        2.380   1.311  -0.493  0.00  0.00    +0.290 C 
ATOM      8  O   LIG    1        0.148   0.100   0.474  0.00  0.00    -0.520 OA
ENDROOT
BRANCH   1  12
ATOM      9  C   LIG    1       -4.956   2.068   0.266  0.00  0.00    +0.190 A 
ATOM     10  C   LIG    1       -3.556   2.153   0.181  0.00  0.00    -0.150 A 
ATOM     11  C   LIG    1       -2.525   1.185   0.151  0.00  0.00    +0.080 A 
ATOM     12  C   LIG    1       -1.339   1.845   0.063  0.00  0.00    -0.000 A 
ATOM     13  N   LIG    1       -1.581   3.206   0.027  0.00  0.00    -0.580 N 
ATOM     14  H   LIG    1       -0.905   3.898  -0.038  0.00  0.00    +0.420 HD
ATOM     15  C   LIG    1       -2.938   3.416   0.099  0.00  0.00    +0.150 A 
ATOM     16  C   LIG    1       -3.723   4.565   0.102  0.00  0.00    -0.060 A 
ATOM     17  C   LIG    1       -5.095   4.465   0.186  0.00  0.00    +0.090 A 
ATOM     18  C   LIG    1       -5.711   3.224   0.267  0.00  0.00    -0.120 A 
BRANCH   9  20
ATOM     19  C   LIG    1       -6.990   0.849   0.429  0.00  0.00    +0.250 C 
ATOM     20  O   LIG    1       -5.563   0.856   0.345  0.00  0.00    -0.310 OA
ENDBRANCH   9  20
ENDBRANCH   1  12
BRANCH   6  21
ATOM     21  C   LIG    1        4.404   0.774  -1.863  0.00  0.00    +0.280 C 
BRANCH  21  22
ATOM     22  N   LIG    1        4.477  -0.592  -1.337  0.00  0.00    -1.130 NA
ATOM     23  H   LIG    1        3.709  -0.980  -0.890  0.00  0.00    +0.420 HD
BRANCH  22  24
ATOM     24  S   LIG    1        5.870  -1.471  -1.507  0.00  0.00    +2.800 S 
ATOM     25  O   LIG    1        6.256  -1.352  -2.869  0.00  0.00    -0.980 OA
ATOM     26  O   LIG    1        5.635  -2.721  -0.872  0.00  0.00    -0.980 OA
BRANCH  24  27
ATOM     27  N   LIG    1        7.042  -0.709  -0.620  0.00  0.00    -1.260 NA
ATOM     28  H   LIG    1        7.009   0.253  -0.497  0.00  0.00    +0.410 HD
ATOM     29  H   LIG    1        7.762  -1.224  -0.223  0.00  0.00    +0.420 HD
ENDBRANCH  24  27
ENDBRANCH  22  24
ENDBRANCH  21  22
ENDBRANCH   6  21
TORSDOF 6
