REMARK  Name = ZINCrD000000B3K8.0
REMARK                            x       y       z     vdW  Elec       q    Type
REMARK                         _______ _______ _______ _____ _____    ______ ____
ROOT
ATOM      1  O   LIG    1        0.257   7.128   0.992  0.00  0.00    -0.510 OA
ATOM      2  C   LIG    1       -0.707   7.843   1.163  0.00  0.00    +0.500 C 
ATOM      3  N   LIG    1       -0.546   9.177   1.268  0.00  0.00    -0.730 N 
ATOM      4  H   LIG    1       -1.317   9.750   1.405  0.00  0.00    +0.400 HD
ENDROOT
BRANCH   2   5
ATOM      5  C   LIG    1       -2.085   7.241   1.256  0.00  0.00    +0.210 C 
ATOM      6  C   LIG    1       -2.692   7.531   2.645  0.00  0.00    +0.060 C 
ATOM      7  C   LIG    1       -2.393   6.229   3.433  0.00  0.00    +0.040 C 
ATOM      8  C   LIG    1       -2.556   5.154   2.327  0.00  0.00    +0.250 C 
ATOM      9  N   LIG    1       -2.003   5.780   1.112  0.00  0.00    -0.600 N 
ATOM     10  C   LIG    1       -1.510   5.123   0.044  0.00  0.00    +0.550 C 
ATOM     11  O   LIG    1       -1.556   3.912   0.003  0.00  0.00    -0.540 OA
BRANCH  10  12
ATOM     12  C   LIG    1       -0.901   5.893  -1.099  0.00  0.00    -0.010 C 
ATOM     13  C   LIG    1        0.523   5.392  -1.350  0.00  0.00    +0.050 C 
ATOM     14  C   LIG    1        1.142   6.174  -2.510  0.00  0.00    +0.010 C 
ATOM     15  C   LIG    1        0.300   5.967  -3.771  0.00  0.00    +0.000 C 
ATOM     16  C   LIG    1       -1.124   6.467  -3.521  0.00  0.00    +0.020 C 
ATOM     17  C   LIG    1       -1.743   5.686  -2.360  0.00  0.00    +0.020 C 
ENDBRANCH  10  12
ENDBRANCH   2   5
BRANCH   3  18
ATOM     18  C   LIG    1        0.794   9.763   1.177  0.00  0.00    +0.270 C 
BRANCH  18  19
ATOM     19  C   LIG    1        0.698  11.282   1.329  0.00  0.00    +0.110 C 
BRANCH  19  20
ATOM     20  C   LIG    1        2.076  11.885   1.235  0.00  0.00    -0.170 A 
ATOM     21  C   LIG    1        2.885  12.191   2.261  0.00  0.00    +0.230 A 
ATOM     22  N   LIG    1        4.056  12.719   1.791  0.00  0.00    -0.590 N 
ATOM     23  H   LIG    1        4.796  13.016   2.344  0.00  0.00    +0.420 HD
ATOM     24  C   LIG    1        4.029  12.768   0.415  0.00  0.00    +0.090 A 
ATOM     25  C   LIG    1        4.935  13.202  -0.546  0.00  0.00    -0.010 A 
ATOM     26  C   LIG    1        4.609  13.118  -1.882  0.00  0.00    +0.030 A 
ATOM     27  C   LIG    1        3.383  12.604  -2.280  0.00  0.00    -0.020 A 
ATOM     28  C   LIG    1        2.477  12.171  -1.352  0.00  0.00    +0.050 A 
ATOM     29  C   LIG    1        2.789  12.241   0.006  0.00  0.00    -0.100 A 
ENDBRANCH  19  20
ENDBRANCH  18  19
ENDBRANCH   3  18
TORSDOF 5
