REMARK  Name = ZINCnE000001EQsT.0
REMARK                            x       y       z     vdW  Elec       q    Type
REMARK                         _______ _______ _______ _____ _____    ______ ____
ROOT
ATOM      1  C   LIG    1        1.865   0.015  -0.974  0.00  0.00    +0.590 C 
ATOM      2  N   LIG    1        3.086   0.183  -1.521  0.00  0.00    -0.600 N 
ATOM      3  C   LIG    1        3.612   1.530  -1.779  0.00  0.00    +0.270 C 
ATOM      4  C   LIG    1        4.986   1.659  -1.115  0.00  0.00    +0.010 C 
ATOM      5  C   LIG    1        5.892   0.526  -1.603  0.00  0.00    +0.000 C 
ATOM      6  C   LIG    1        5.287  -0.822  -1.204  0.00  0.00    +0.020 C 
ATOM      7  C   LIG    1        3.918  -0.978  -1.864  0.00  0.00    +0.210 C 
ATOM      8  O   LIG    1        1.489  -1.096  -0.656  0.00  0.00    -0.470 OA
ENDROOT
BRANCH   1  12
ATOM      9  C   LIG    1       -0.628   2.544  -0.189  0.00  0.00    +0.030 A 
ATOM     10  N   LIG    1        0.297   3.176  -0.851  0.00  0.00    -0.350 NA
ATOM     11  O   LIG    1        1.201   2.443  -1.178  0.00  0.00    +0.110 OA
ATOM     12  C   LIG    1        0.986   1.181  -0.762  0.00  0.00    -0.070 A 
ATOM     13  C   LIG    1       -0.212   1.197  -0.102  0.00  0.00    +0.030 A 
BRANCH   9  14
ATOM     14  C   LIG    1       -1.898   3.133   0.369  0.00  0.00    +0.080 C 
BRANCH  14  16
ATOM     15  C   LIG    1       -2.764   3.758  -1.889  0.00  0.00    +0.010 C 
ATOM     16  C   LIG    1       -3.037   2.930  -0.632  0.00  0.00    +0.030 C 
ENDBRANCH  14  16
BRANCH  14  17
ATOM     17  C   LIG    1       -2.247   2.437   1.687  0.00  0.00    +0.020 C 
ATOM     18  C   LIG    1       -3.439   3.143   2.336  0.00  0.00    +0.020 C 
ENDBRANCH  14  17
ENDBRANCH   9  14
ENDBRANCH   1  12
BRANCH   7  19
ATOM     19  C   LIG    1        3.249  -2.257  -1.355  0.00  0.00    +0.070 C 
BRANCH  19  20
ATOM     20  C   LIG    1        4.116  -3.465  -1.718  0.00  0.00    -0.080 C 
BRANCH  20  21
ATOM     21  C   LIG    1        3.494  -4.716  -1.155  0.00  0.00    +0.490 C 
ATOM     22  O   LIG    1        4.031  -5.797  -1.332  0.00  0.00    -0.710 OA
ATOM     23  O   LIG    1        2.453  -4.649  -0.524  0.00  0.00    -0.690 OA
ENDBRANCH  20  21
ENDBRANCH  19  20
ENDBRANCH   7  19
TORSDOF 7
