REMARK  Name = ZINCvU0000000Dz1.0
REMARK                            x       y       z     vdW  Elec       q    Type
REMARK                         _______ _______ _______ _____ _____    ______ ____
ROOT
ATOM      1  C   LIG    1        2.535   2.563  -0.046  0.00  0.00    +0.140 A 
ATOM      2  N   LIG    1        3.389   1.566  -0.065  0.00  0.00    -0.280 NA
ATOM      3  N   LIG    1        4.592   2.013  -0.001  0.00  0.00    -0.270 NA
ATOM      4  C   LIG    1        4.581   3.325   0.062  0.00  0.00    +0.280 A 
ATOM      5  N   LIG    1        3.263   3.719   0.030  0.00  0.00    -0.430 N 
ENDROOT
BRANCH   4   6
ATOM      6  C   LIG    1        5.760   4.210   0.146  0.00  0.00    -0.110 A 
ATOM      7  C   LIG    1        5.762   5.566   0.078  0.00  0.00    +0.260 A 
ATOM      8  N   LIG    1        7.040   6.031   0.197  0.00  0.00    -0.580 N 
ATOM      9  H   LIG    1        7.294   6.967   0.181  0.00  0.00    +0.420 HD
ATOM     10  C   LIG    1        7.918   4.978   0.339  0.00  0.00    +0.100 A 
ATOM     11  C   LIG    1        9.299   4.903   0.488  0.00  0.00    -0.010 A 
ATOM     12  C   LIG    1        9.912   3.675   0.609  0.00  0.00    +0.040 A 
ATOM     13  C   LIG    1        9.165   2.506   0.584  0.00  0.00    -0.010 A 
ATOM     14  C   LIG    1        7.796   2.559   0.437  0.00  0.00    +0.070 A 
ATOM     15  C   LIG    1        7.163   3.794   0.314  0.00  0.00    -0.070 A 
ENDBRANCH   4   6
BRANCH   5  16
ATOM     16  C   LIG    1        2.747   5.089   0.070  0.00  0.00    +0.190 C 
ATOM     17  C   LIG    1        1.264   5.276   0.397  0.00  0.00    +0.070 C 
ATOM     18  C   LIG    1        1.769   5.508  -1.029  0.00  0.00    +0.060 C 
ENDBRANCH   5  16
BRANCH   1  19
ATOM     19  S   LIG    1        0.779   2.436  -0.113  0.00  0.00    +0.090 S 
BRANCH  19  20
ATOM     20  C   LIG    1        0.597   0.637  -0.206  0.00  0.00    +0.100 C 
BRANCH  20  22
ATOM     21  N   LIG    1       -1.244  -1.008  -0.349  0.00  0.00    -0.570 N 
ATOM     22  C   LIG    1       -0.866   0.283  -0.274  0.00  0.00    +0.540 C 
ATOM     23  O   LIG    1       -1.704   1.160  -0.260  0.00  0.00    -0.510 OA
BRANCH  21  24
ATOM     24  C   LIG    1       -2.595  -1.342  -0.307  0.00  0.00    +0.090 C 
ATOM     25  C   LIG    1       -3.356  -0.941  -1.287  0.00  0.00    -0.020 C 
ATOM     26  C   LIG    1       -4.828  -1.221  -1.374  0.00  0.00    +0.080 C 
ATOM     27  C   LIG    1       -5.208  -2.352  -0.416  0.00  0.00    +0.020 C 
ATOM     28  C   LIG    1       -4.613  -2.041   0.963  0.00  0.00    +0.020 C 
ATOM     29  C   LIG    1       -3.089  -2.136   0.867  0.00  0.00    +0.070 C 
ENDBRANCH  21  24
BRANCH  21  30
ATOM     30  C   LIG    1       -0.233  -2.061  -0.475  0.00  0.00    +0.280 C 
BRANCH  30  32
ATOM     31  C   LIG    1        1.170  -3.704   0.780  0.00  0.00    +0.030 C 
ATOM     32  C   LIG    1        0.114  -2.604   0.912  0.00  0.00    -0.010 C 
ENDBRANCH  30  32
ENDBRANCH  21  30
ENDBRANCH  20  22
ENDBRANCH  19  20
ENDBRANCH   1  19
TORSDOF 8
