REMARK  Name = ZINCrH000004t0tJ.0
REMARK                            x       y       z     vdW  Elec       q    Type
REMARK                         _______ _______ _______ _____ _____    ______ ____
ROOT
ATOM      1  C   LIG    1       -5.756   6.485  -0.428  0.00  0.00    +0.280 A 
ATOM      2  N   LIG    1       -4.624   5.855  -0.374  0.00  0.00    -0.500 NA
ATOM      3  C   LIG    1       -4.675   4.536  -0.249  0.00  0.00    +0.130 A 
ATOM      4  C   LIG    1       -5.911   4.010  -0.183  0.00  0.00    -0.120 A 
ATOM      5  S   LIG    1       -7.076   5.327  -0.298  0.00  0.00    +0.210 S 
ENDROOT
BRANCH   3   6
ATOM      6  C   LIG    1       -3.452   3.698  -0.181  0.00  0.00    -0.040 A 
ATOM      7  C   LIG    1       -2.193   4.293  -0.254  0.00  0.00    +0.070 A 
ATOM      8  C   LIG    1       -1.059   3.512  -0.191  0.00  0.00    -0.020 A 
ATOM      9  C   LIG    1       -1.169   2.134  -0.054  0.00  0.00    +0.150 A 
ATOM     10  C   LIG    1       -2.423   1.538   0.014  0.00  0.00    +0.020 A 
ATOM     11  C   LIG    1       -3.561   2.315  -0.044  0.00  0.00    +0.050 A 
BRANCH   9  12
ATOM     12  N   LIG    1       -0.016   1.344   0.009  0.00  0.00    -0.670 N 
ATOM     13  H   LIG    1        0.775   1.598  -0.491  0.00  0.00    +0.410 HD
ATOM     14  C   LIG    1       -0.006   0.225   0.762  0.00  0.00    +0.520 C 
ATOM     15  O   LIG    1       -0.961  -0.044   1.460  0.00  0.00    -0.510 OA
BRANCH  14  16
ATOM     16  C   LIG    1        1.191  -0.690   0.735  0.00  0.00    -0.080 C 
ATOM     17  C   LIG    1        2.430   0.078   1.198  0.00  0.00    +0.050 C 
ATOM     18  C   LIG    1        1.410  -1.201  -0.690  0.00  0.00    +0.050 C 
ATOM     19  C   LIG    1        0.947  -1.876   1.671  0.00  0.00    +0.060 C 
ENDBRANCH  14  16
ENDBRANCH   9  12
ENDBRANCH   3   6
BRANCH   1  21
ATOM     20  C   LIG    1       -7.136   8.404  -0.600  0.00  0.00    +0.600 C 
ATOM     21  N   LIG    1       -5.904   7.859  -0.561  0.00  0.00    -0.620 N 
ATOM     22  H   LIG    1       -5.120   8.427  -0.626  0.00  0.00    +0.420 HD
ATOM     23  O   LIG    1       -8.118   7.691  -0.519  0.00  0.00    -0.510 OA
BRANCH  20  27
ATOM     24  C   LIG    1       -9.154  12.955  -1.024  0.00  0.00    +0.380 C 
ATOM     25  N   LIG    1       -8.186  11.859  -0.927  0.00  0.00    -0.360 N 
ATOM     26  C   LIG    1       -8.485  10.556  -0.802  0.00  0.00    +0.340 A 
ATOM     27  C   LIG    1       -7.293   9.862  -0.742  0.00  0.00    -0.300 A 
ATOM     28  C   LIG    1       -6.252  10.812  -0.847  0.00  0.00    +0.280 A 
ATOM     29  N   LIG    1       -6.793  11.994  -0.957  0.00  0.00    -0.290 NA
ENDBRANCH  20  27
ENDBRANCH   1  21
TORSDOF 5
