REMARK  Name = ZINCrg00001JduRc.0
REMARK                            x       y       z     vdW  Elec       q    Type
REMARK                         _______ _______ _______ _____ _____    ______ ____
ROOT
ATOM      1  C   LIG    1       -0.398   1.373  -2.453  0.00  0.00    +0.670 C 
ATOM      2  N   LIG    1       -0.743   1.582  -1.167  0.00  0.00    -0.610 N 
ATOM      3  C   LIG    1       -1.915   2.349  -0.707  0.00  0.00    +0.310 C 
ATOM      4  C   LIG    1       -1.545   2.819   0.722  0.00  0.00    +0.010 C 
ATOM      5  C   LIG    1       -0.756   1.594   1.262  0.00  0.00    +0.290 C 
ATOM      6  C   LIG    1       -0.013   1.086   0.008  0.00  0.00    +0.300 C 
ATOM      7  O   LIG    1       -1.079   1.833  -3.348  0.00  0.00    -0.550 OA
ENDROOT
BRANCH   5   8
ATOM      8  N   LIG    1       -1.672   0.571   1.771  0.00  0.00    -0.290 N 
ATOM      9  C   LIG    1       -2.356  -0.325   1.022  0.00  0.00    +0.170 A 
ATOM     10  C   LIG    1       -3.075  -1.073   1.891  0.00  0.00    -0.030 A 
ATOM     11  N   LIG    1       -2.800  -0.604   3.113  0.00  0.00    -0.250 NA
ATOM     12  N   LIG    1       -1.962   0.366   3.008  0.00  0.00    -0.070 NA
BRANCH  10  13
ATOM     13  C   LIG    1       -4.004  -2.209   1.549  0.00  0.00    +0.350 C 
BRANCH  13  14
ATOM     14  O   LIG    1       -4.024  -2.398   0.133  0.00  0.00    -0.290 OA
BRANCH  14  15
ATOM     15  C   LIG    1       -4.815  -3.389  -0.344  0.00  0.00    +0.510 A 
ATOM     16  N   LIG    1       -5.514  -4.123   0.507  0.00  0.00    -0.570 NA
ATOM     17  C   LIG    1       -6.300  -5.095   0.074  0.00  0.00    +0.370 A 
ATOM     18  C   LIG    1       -6.378  -5.346  -1.286  0.00  0.00    -0.120 A 
ATOM     19  C   LIG    1       -5.629  -4.561  -2.148  0.00  0.00    +0.370 A 
ATOM     20  N   LIG    1       -4.866  -3.602  -1.649  0.00  0.00    -0.520 NA
ENDBRANCH  14  15
ENDBRANCH  13  14
ENDBRANCH  10  13
ENDBRANCH   5   8
BRANCH   1  21
ATOM     21  O   LIG    1        0.702   0.653  -2.746  0.00  0.00    -0.360 OA
BRANCH  21  23
ATOM     22  C   LIG    1        1.227   1.831  -4.811  0.00  0.00    +0.040 C 
ATOM     23  C   LIG    1        1.013   0.467  -4.152  0.00  0.00    +0.140 C 
ATOM     24  C   LIG    1       -0.147  -0.255  -4.840  0.00  0.00    +0.040 C 
ATOM     25  C   LIG    1        2.286  -0.370  -4.287  0.00  0.00    +0.080 C 
ENDBRANCH  21  23
ENDBRANCH   1  21
BRANCH   4  26
ATOM     26  C   LIG    1       -2.801   3.075   1.558  0.00  0.00    +0.200 C 
BRANCH  26  27
ATOM     27  O   LIG    1       -3.514   4.188   1.017  0.00  0.00    -0.570 OA
ATOM     28  H   LIG    1       -4.324   4.408   1.498  0.00  0.00    +0.390 HD
ENDBRANCH  26  27
ENDBRANCH   4  26
TORSDOF 8
