REMARK  Name = ZINCpk00000y6vD4.0
REMARK                            x       y       z     vdW  Elec       q    Type
REMARK                         _______ _______ _______ _____ _____    ______ ____
ROOT
ATOM      1  C   LIG    1       -2.751   7.731   1.663  0.00  0.00    +0.060 C 
ATOM      2  C   LIG    1       -1.894   7.309   2.858  0.00  0.00    +0.070 C 
ATOM      3  C   LIG    1       -1.425   8.554   3.616  0.00  0.00    +0.240 C 
ATOM      4  O   LIG    1       -0.563   8.158   4.687  0.00  0.00    -0.370 OA
ATOM      5  C   LIG    1        0.590   7.428   4.258  0.00  0.00    +0.230 C 
ATOM      6  C   LIG    1        0.142   6.172   3.506  0.00  0.00    +0.170 C 
ATOM      7  C   LIG    1       -2.719   6.422   3.792  0.00  0.00    +0.020 C 
ATOM      8  N   LIG    1       -0.721   6.562   2.381  0.00  0.00    -0.500 NA
ENDROOT
BRANCH   5   9
ATOM      9  C   LIG    1        1.409   7.031   5.458  0.00  0.00    -0.080 A 
ATOM     10  C   LIG    1        0.807   6.907   6.696  0.00  0.00    +0.060 A 
ATOM     11  C   LIG    1        1.558   6.537   7.796  0.00  0.00    +0.010 A 
ATOM     12  C   LIG    1        2.913   6.302   7.662  0.00  0.00    +0.030 A 
ATOM     13  C   LIG    1        3.517   6.430   6.425  0.00  0.00    +0.030 A 
ATOM     14  C   LIG    1        2.766   6.795   5.323  0.00  0.00    -0.030 A 
ATOM     15 CL   LIG    1        3.524   6.956   3.769  0.00  0.00    -0.060 Cl
ENDBRANCH   5   9
BRANCH   8  16
ATOM     16  C   LIG    1       -1.127   5.388   1.597  0.00  0.00    +0.210 C 
BRANCH  16  17
ATOM     17  C   LIG    1        0.081   4.790   0.924  0.00  0.00    +0.520 C 
ATOM     18  N   LIG    1       -0.052   3.697   0.147  0.00  0.00    -0.620 N 
ATOM     19  C   LIG    1        1.108   3.089  -0.525  0.00  0.00    +0.300 C 
ATOM     20  C   LIG    1        1.269   1.661  -0.001  0.00  0.00    +0.250 C 
ATOM     21  N   LIG    1       -0.011   0.966   0.007  0.00  0.00    -0.720 N 
ATOM     22  H   LIG    1        0.002  -0.004   0.002  0.00  0.00    +0.400 HD
ATOM     23  C   LIG    1       -1.200   1.570   0.017  0.00  0.00    +0.510 C 
ATOM     24  O   LIG    1       -2.197   0.884   0.098  0.00  0.00    -0.540 OA
ATOM     25  C   LIG    1       -1.363   3.063  -0.064  0.00  0.00    +0.330 C 
ATOM     26  O   LIG    1        1.173   5.293   1.081  0.00  0.00    -0.500 OA
ENDBRANCH  16  17
ENDBRANCH   8  16
TORSDOF 3
