REMARK  Name = ZINCvU0000000I58.0
REMARK                            x       y       z     vdW  Elec       q    Type
REMARK                         _______ _______ _______ _____ _____    ______ ____
ROOT
ATOM      1  C   LIG    1       -3.384  -1.209  -0.366  0.00  0.00    +0.320 C 
ENDROOT
BRANCH   1   2
ATOM      2  C   LIG    1       -3.876  -0.680  -1.688  0.00  0.00    -0.170 A 
ATOM      3  C   LIG    1       -4.530   0.540  -1.756  0.00  0.00    +0.090 A 
ATOM      4  C   LIG    1       -4.966   0.987  -2.995  0.00  0.00    -0.030 A 
ATOM      5  C   LIG    1       -4.735   0.207  -4.112  0.00  0.00    +0.280 A 
ATOM      6  N   LIG    1       -4.109  -0.950  -4.009  0.00  0.00    -0.470 NA
ATOM      7  C   LIG    1       -3.676  -1.403  -2.849  0.00  0.00    +0.290 A 
ENDBRANCH   1   2
BRANCH   1   8
ATOM      8  C   LIG    1       -1.881  -1.312  -0.394  0.00  0.00    +0.520 C 
ATOM      9  N   LIG    1       -1.133  -0.210  -0.603  0.00  0.00    -0.660 N 
ATOM     10  H   LIG    1       -1.560   0.658  -0.676  0.00  0.00    +0.410 HD
ATOM     11  O   LIG    1       -1.343  -2.387  -0.230  0.00  0.00    -0.490 OA
BRANCH   9  12
ATOM     12  C   LIG    1        0.258  -0.318  -0.714  0.00  0.00    +0.180 A 
ATOM     13  C   LIG    1        0.938  -1.301  -0.008  0.00  0.00    +0.030 A 
ATOM     14  C   LIG    1        2.310  -1.409  -0.124  0.00  0.00    +0.050 A 
ATOM     15  C   LIG    1        3.007  -0.536  -0.938  0.00  0.00    +0.000 A 
ATOM     16  C   LIG    1        2.334   0.448  -1.639  0.00  0.00    +0.070 A 
ATOM     17  C   LIG    1        0.962   0.562  -1.527  0.00  0.00    -0.120 A 
ATOM     18 BR   LIG    1        0.042   1.908  -2.485  0.00  0.00    -0.040 Br
ENDBRANCH   9  12
ENDBRANCH   1   8
BRANCH   1  20
ATOM     19  C   LIG    1       -3.760  -3.151   1.057  0.00  0.00    +0.570 C 
ATOM     20  N   LIG    1       -3.959  -2.535  -0.125  0.00  0.00    -0.550 N 
ATOM     21  O   LIG    1       -3.206  -2.561   1.965  0.00  0.00    -0.520 OA
BRANCH  20  22
ATOM     22  C   LIG    1       -4.717  -3.160  -1.121  0.00  0.00    +0.150 A 
ATOM     23  C   LIG    1       -5.987  -2.681  -1.438  0.00  0.00    +0.040 A 
ATOM     24  C   LIG    1       -6.731  -3.277  -2.408  0.00  0.00    +0.090 A 
ATOM     25  C   LIG    1       -6.238  -4.399  -3.107  0.00  0.00    +0.090 A 
ATOM     26  N   LIG    1       -6.831  -5.113  -4.084  0.00  0.00    -0.460 NA
ATOM     27  C   LIG    1       -6.191  -6.104  -4.581  0.00  0.00    +0.320 A 
ATOM     28  S   LIG    1       -4.621  -6.272  -3.806  0.00  0.00    +0.060 S 
ATOM     29  C   LIG    1       -4.965  -4.880  -2.782  0.00  0.00    -0.160 A 
ATOM     30  C   LIG    1       -4.209  -4.259  -1.791  0.00  0.00    +0.070 A 
ENDBRANCH  20  22
BRANCH  19  32
ATOM     31  C   LIG    1       -4.087  -5.120   2.438  0.00  0.00    +0.160 C 
ATOM     32  C   LIG    1       -4.212  -4.538   1.248  0.00  0.00    -0.090 C 
ENDBRANCH  19  32
ENDBRANCH   1  20
TORSDOF 6
