REMARK  Name = ZINCrD000000fV9p.0
REMARK                            x       y       z     vdW  Elec       q    Type
REMARK                         _______ _______ _______ _____ _____    ______ ____
ROOT
ATOM      1  C   LIG    1        0.034   2.164  -6.749  0.00  0.00    +0.140 A 
ATOM      2  C   LIG    1       -1.073   2.649  -7.435  0.00  0.00    -0.020 A 
ATOM      3  C   LIG    1       -2.187   3.080  -6.739  0.00  0.00    +0.030 A 
ATOM      4  C   LIG    1       -2.205   3.032  -5.360  0.00  0.00    -0.010 A 
ATOM      5  C   LIG    1       -1.099   2.547  -4.663  0.00  0.00    +0.020 A 
ATOM      6  C   LIG    1        0.025   2.118  -5.363  0.00  0.00    +0.040 A 
ENDROOT
BRANCH   5   7
ATOM      7  C   LIG    1       -1.118   2.495  -3.181  0.00  0.00    +0.030 A 
ATOM      8  C   LIG    1       -2.176   2.796  -2.381  0.00  0.00    +0.150 A 
ATOM      9  N   LIG    1       -1.758   2.614  -1.098  0.00  0.00    -0.450 N 
ATOM     10  C   LIG    1       -2.533   2.807   0.130  0.00  0.00    +0.280 C 
ATOM     11  C   LIG    1       -1.820   2.089   1.281  0.00  0.00    +0.030 C 
ATOM     12  C   LIG    1       -0.344   2.501   1.305  0.00  0.00    +0.020 C 
ATOM     13  C   LIG    1        0.365   1.905   0.083  0.00  0.00    +0.150 C 
ATOM     14  C   LIG    1       -0.465   2.211  -1.142  0.00  0.00    +0.210 A 
ATOM     15  N   LIG    1       -0.087   2.141  -2.384  0.00  0.00    -0.470 NA
ENDBRANCH   5   7
BRANCH   1  17
ATOM     16  C   LIG    1        1.903   0.710  -6.980  0.00  0.00    +0.510 C 
ATOM     17  N   LIG    1        1.160   1.728  -7.457  0.00  0.00    -0.670 N 
ATOM     18  H   LIG    1        1.406   2.159  -8.290  0.00  0.00    +0.410 HD
ATOM     19  O   LIG    1        1.544   0.109  -5.989  0.00  0.00    -0.510 OA
BRANCH  16  20
ATOM     20  C   LIG    1        3.180   0.318  -7.677  0.00  0.00    +0.300 C 
BRANCH  20  22
ATOM     21  C   LIG    1        4.957  -1.329  -7.416  0.00  0.00    +0.520 C 
ATOM     22  N   LIG    1        3.798  -0.807  -6.970  0.00  0.00    -0.720 N 
ATOM     23  H   LIG    1        3.372  -1.175  -6.180  0.00  0.00    +0.410 HD
ATOM     24  O   LIG    1        5.489  -0.868  -8.404  0.00  0.00    -0.530 OA
BRANCH  21  25
ATOM     25  C   LIG    1        5.592  -2.486  -6.689  0.00  0.00    +0.070 C 
BRANCH  25  27
ATOM     26  C   LIG    1        7.852  -1.695  -7.403  0.00  0.00    +0.030 C 
ATOM     27  C   LIG    1        6.888  -2.884  -7.396  0.00  0.00    -0.050 C 
ATOM     28  C   LIG    1        6.578  -3.296  -8.837  0.00  0.00    +0.030 C 
ATOM     29  C   LIG    1        7.533  -4.059  -6.658  0.00  0.00    +0.030 C 
ENDBRANCH  25  27
ENDBRANCH  21  25
ENDBRANCH  20  22
ENDBRANCH  16  20
ENDBRANCH   1  17
TORSDOF 6
