REMARK  Name = ZINCtV000002L5qO.0
REMARK                            x       y       z     vdW  Elec       q    Type
REMARK                         _______ _______ _______ _____ _____    ______ ____
ROOT
ATOM      1  C   LIG    1        1.000   5.933   1.446  0.00  0.00    +0.160 A 
ATOM      2  N   LIG    1        1.003   6.532   0.276  0.00  0.00    -0.280 NA
ATOM      3  N   LIG    1        1.150   7.799   0.427  0.00  0.00    -0.260 NA
ATOM      4  C   LIG    1        1.261   8.089   1.703  0.00  0.00    +0.240 A 
ATOM      5  N   LIG    1        1.168   6.902   2.397  0.00  0.00    -0.420 N 
ENDROOT
BRANCH   4   6
ATOM      6  C   LIG    1        1.450   9.434   2.285  0.00  0.00    -0.030 A 
ATOM      7  C   LIG    1        1.167  10.572   1.528  0.00  0.00    +0.070 A 
ATOM      8  C   LIG    1        1.341  11.825   2.079  0.00  0.00    +0.010 A 
ATOM      9  C   LIG    1        1.805  11.955   3.376  0.00  0.00    +0.030 A 
ATOM     10  C   LIG    1        2.092  10.831   4.130  0.00  0.00    +0.010 A 
ATOM     11  C   LIG    1        1.918   9.573   3.593  0.00  0.00    +0.030 A 
ENDBRANCH   4   6
BRANCH   5  12
ATOM     12  C   LIG    1        1.232   6.724   3.785  0.00  0.00    +0.100 A 
ATOM     13  C   LIG    1        0.215   7.208   4.596  0.00  0.00    +0.040 A 
ATOM     14  C   LIG    1        0.278   7.027   5.964  0.00  0.00    +0.040 A 
ATOM     15  C   LIG    1        1.359   6.374   6.527  0.00  0.00    +0.040 A 
ATOM     16  C   LIG    1        2.377   5.896   5.723  0.00  0.00    +0.040 A 
ATOM     17  C   LIG    1        2.317   6.069   4.354  0.00  0.00    +0.030 A 
ENDBRANCH   5  12
BRANCH   1  18
ATOM     18  S   LIG    1        0.821   4.204   1.735  0.00  0.00    +0.030 S 
BRANCH  18  19
ATOM     19  C   LIG    1        0.651   3.616   0.032  0.00  0.00    +0.150 C 
BRANCH  19  24
ATOM     20  C   LIG    1       -0.941   0.193   0.104  0.00  0.00    -0.180 A 
ATOM     21  C   LIG    1        0.168  -0.628   0.031  0.00  0.00    +0.080 A 
ATOM     22  C   LIG    1        1.434  -0.076  -0.042  0.00  0.00    +0.020 A 
ATOM     23  C   LIG    1        1.590   1.297  -0.042  0.00  0.00    +0.070 A 
ATOM     24  C   LIG    1        0.481   2.119   0.032  0.00  0.00    -0.080 A 
ATOM     25  C   LIG    1       -0.785   1.567   0.104  0.00  0.00    +0.090 A 
BRANCH  20  27
ATOM     26  F   LIG    1       -2.826  -0.586  -1.109  0.00  0.00    -0.170 F 
ATOM     27  C   LIG    1       -2.320  -0.408   0.183  0.00  0.00    +0.510 C 
ATOM     28  F   LIG    1       -3.162   0.448   0.900  0.00  0.00    -0.180 F 
ATOM     29  F   LIG    1       -2.252  -1.646   0.831  0.00  0.00    -0.180 F 
ENDBRANCH  20  27
ENDBRANCH  19  24
ENDBRANCH  18  19
ENDBRANCH   1  18
TORSDOF 6
