REMARK  Name = ZINCrD00000F5Lye.0
REMARK                            x       y       z     vdW  Elec       q    Type
REMARK                         _______ _______ _______ _____ _____    ______ ____
ROOT
ATOM      1  O   LIG    1       -1.919  -3.668   5.916  0.00  0.00    -0.560 OA
ATOM      2  C   LIG    1       -2.302  -2.536   6.139  0.00  0.00    +0.710 C 
ATOM      3  N   LIG    1       -2.521  -2.136   7.407  0.00  0.00    -0.670 N 
ATOM      4  H   LIG    1       -2.747  -1.211   7.592  0.00  0.00    +0.410 HD
ATOM      5  N   LIG    1       -2.507  -1.681   5.118  0.00  0.00    -0.740 N 
ATOM      6  H   LIG    1       -2.813  -0.777   5.296  0.00  0.00    +0.400 HD
ENDROOT
BRANCH   3   7
ATOM      7  C   LIG    1       -2.422  -3.057   8.459  0.00  0.00    +0.190 A 
ATOM      8  C   LIG    1       -2.613  -4.409   8.219  0.00  0.00    +0.030 A 
ATOM      9  C   LIG    1       -2.510  -5.317   9.259  0.00  0.00    +0.100 A 
ATOM     10  C   LIG    1       -2.228  -4.876  10.541  0.00  0.00    +0.000 A 
ATOM     11  C   LIG    1       -2.042  -3.528  10.786  0.00  0.00    +0.010 A 
ATOM     12  F   LIG    1       -2.691  -6.635   9.024  0.00  0.00    -0.130 F 
ATOM     13  C   LIG    1       -2.138  -2.615   9.749  0.00  0.00    +0.060 A 
BRANCH  13  14
ATOM     14  O   LIG    1       -1.956  -1.289   9.991  0.00  0.00    -0.320 OA
BRANCH  14  15
ATOM     15  C   LIG    1       -1.668  -0.908  11.338  0.00  0.00    +0.600 C 
ATOM     16  F   LIG    1       -0.488  -1.532  11.756  0.00  0.00    -0.200 F 
ATOM     17  F   LIG    1       -2.723  -1.300  12.169  0.00  0.00    -0.200 F 
ENDBRANCH  14  15
ENDBRANCH  13  14
ENDBRANCH   3   7
BRANCH   5  18
ATOM     18  C   LIG    1       -2.269  -2.115   3.739  0.00  0.00    +0.360 C 
BRANCH  18  19
ATOM     19  C   LIG    1       -2.571  -0.980   2.795  0.00  0.00    -0.090 A 
ATOM     20  C   LIG    1       -3.845  -0.828   2.283  0.00  0.00    +0.070 A 
ATOM     21  C   LIG    1       -4.125   0.213   1.417  0.00  0.00    +0.050 A 
ATOM     22  C   LIG    1       -3.133   1.108   1.066  0.00  0.00    +0.040 A 
ATOM     23  C   LIG    1       -1.851   0.954   1.575  0.00  0.00    +0.050 A 
ATOM     24  C   LIG    1       -1.573  -0.091   2.443  0.00  0.00    +0.080 A 
BRANCH  23  25
ATOM     25  O   LIG    1       -0.871   1.829   1.227  0.00  0.00    -0.660 OA
BRANCH  25  26
ATOM     26  S   LIG    1       -0.087   1.420  -0.012  0.00  0.00    +2.740 S 
ATOM     27  F   LIG    1       -0.957   1.861  -1.293  0.00  0.00    -0.480 F 
ATOM     28  O   LIG    1        1.086   2.222  -0.028  0.00  0.00    -0.910 OA
ATOM     29  O   LIG    1       -0.057  -0.001  -0.017  0.00  0.00    -0.940 OA
ENDBRANCH  25  26
ENDBRANCH  23  25
ENDBRANCH  18  19
ENDBRANCH   5  18
TORSDOF 7
