REMARK  Name = ZINCtV00000tRPSZ.0
REMARK                            x       y       z     vdW  Elec       q    Type
REMARK                         _______ _______ _______ _____ _____    ______ ____
ROOT
ATOM      1  C   LIG    1        5.082   5.873  -0.019  0.00  0.00    +0.130 C 
ATOM      2  C   LIG    1        4.424   4.525  -0.165  0.00  0.00    +0.050 A 
ATOM      3  C   LIG    1        3.056   4.435  -0.425  0.00  0.00    -0.040 A 
ATOM      4  C   LIG    1        2.451   3.106  -0.560  0.00  0.00    +0.330 A 
ATOM      5  N   LIG    1        1.208   2.730  -0.801  0.00  0.00    -0.490 NA
ATOM      6  C   LIG    1        1.139   1.378  -0.836  0.00  0.00    +0.100 A 
ATOM      7  C   LIG    1        0.090   0.477  -1.049  0.00  0.00    +0.060 A 
ATOM      8  C   LIG    1        0.336  -0.876  -1.024  0.00  0.00    +0.040 A 
ATOM      9  C   LIG    1        1.617  -1.356  -0.789  0.00  0.00    +0.020 A 
ATOM     10  C   LIG    1        2.663  -0.482  -0.577  0.00  0.00    +0.050 A 
ATOM     11  C   LIG    1        2.436   0.886  -0.598  0.00  0.00    +0.020 A 
ATOM     12  N   LIG    1        3.248   1.995  -0.427  0.00  0.00    -0.400 N 
ATOM     13  C   LIG    1        4.584   2.126  -0.172  0.00  0.00    +0.390 A 
ATOM     14  C   LIG    1        5.173   3.364  -0.042  0.00  0.00    -0.140 A 
ENDROOT
BRANCH  13  15
ATOM     15  N   LIG    1        5.357   0.997  -0.044  0.00  0.00    -0.680 N 
ATOM     16  H   LIG    1        6.069   0.821  -0.680  0.00  0.00    +0.430 HD
BRANCH  15  17
ATOM     17  C   LIG    1        5.119   0.101   1.003  0.00  0.00    +0.200 A 
ATOM     18  C   LIG    1        4.214   0.427   2.005  0.00  0.00    -0.040 A 
ATOM     19  C   LIG    1        3.977  -0.462   3.035  0.00  0.00    +0.100 A 
ATOM     20  C   LIG    1        4.647  -1.672   3.075  0.00  0.00    -0.120 A 
ATOM     21  C   LIG    1        5.553  -1.997   2.081  0.00  0.00    +0.090 A 
ATOM     22 BR   LIG    1        4.325  -2.883   4.491  0.00  0.00    -0.050 Br
ATOM     23  C   LIG    1        5.790  -1.114   1.046  0.00  0.00    -0.020 A 
ENDBRANCH  15  17
ENDBRANCH  13  15
BRANCH   3  24
ATOM     24  C   LIG    1        2.259   5.617  -0.556  0.00  0.00    +0.270 C 
ATOM     25  N   LIG    1        1.626   6.555  -0.660  0.00  0.00    -0.400 NA
ENDBRANCH   3  24
BRANCH  14  26
ATOM     26  C   LIG    1        6.651   3.458   0.238  0.00  0.00    +0.100 C 
BRANCH  26  27
ATOM     27  C   LIG    1        7.409   3.637  -1.079  0.00  0.00    +0.020 C 
BRANCH  27  28
ATOM     28  C   LIG    1        8.909   3.733  -0.795  0.00  0.00    -0.030 C 
ATOM     29  C   LIG    1        9.195   5.001   0.013  0.00  0.00    +0.030 C 
ATOM     30  C   LIG    1        9.676   3.787  -2.118  0.00  0.00    +0.020 C 
ENDBRANCH  27  28
ENDBRANCH  26  27
ENDBRANCH  14  26
TORSDOF 6
