REMARK  Name = ZINCvU0000000BpA.0
REMARK                            x       y       z     vdW  Elec       q    Type
REMARK                         _______ _______ _______ _____ _____    ______ ____
ROOT
ATOM      1  C   LIG    1        1.754   2.096   0.003  0.00  0.00    +0.070 C 
ENDROOT
BRANCH   1   2
ATOM      2  C   LIG    1        2.352   1.598  -1.288  0.00  0.00    -0.090 A 
ATOM      3  C   LIG    1        1.905   2.101  -2.495  0.00  0.00    +0.040 A 
ATOM      4  C   LIG    1        2.456   1.647  -3.679  0.00  0.00    +0.000 A 
ATOM      5  C   LIG    1        3.447   0.684  -3.656  0.00  0.00    +0.010 A 
ATOM      6  C   LIG    1        3.890   0.177  -2.449  0.00  0.00    +0.000 A 
ATOM      7  C   LIG    1        3.342   0.634  -1.264  0.00  0.00    +0.060 A 
ENDBRANCH   1   2
BRANCH   1  10
ATOM      8  N   LIG    1        3.183   4.043   0.538  0.00  0.00    -0.660 N 
ATOM      9  H   LIG    1        3.872   3.422   0.822  0.00  0.00    +0.410 HD
ATOM     10  C   LIG    1        1.987   3.580   0.124  0.00  0.00    +0.540 C 
ATOM     11  O   LIG    1        1.097   4.358  -0.150  0.00  0.00    -0.500 OA
BRANCH   8  16
ATOM     12  C   LIG    1        4.190   9.625   0.623  0.00  0.00    +0.090 C 
ATOM     13  C   LIG    1        3.922   8.143   0.601  0.00  0.00    -0.100 A 
ATOM     14  C   LIG    1        2.659   7.665   0.896  0.00  0.00    +0.030 A 
ATOM     15  C   LIG    1        2.410   6.306   0.877  0.00  0.00    +0.030 A 
ATOM     16  C   LIG    1        3.431   5.420   0.559  0.00  0.00    +0.130 A 
ATOM     17  C   LIG    1        4.700   5.902   0.267  0.00  0.00    -0.010 A 
ATOM     18  C   LIG    1        4.941   7.262   0.284  0.00  0.00    +0.030 A 
ENDBRANCH   8  16
ENDBRANCH   1  10
BRANCH   1  19
ATOM     19  S   LIG    1       -0.025   1.761   0.014  0.00  0.00    +0.080 S 
BRANCH  19  20
ATOM     20  C   LIG    1       -0.004  -0.001   0.015  0.00  0.00    +0.140 A 
ATOM     21  N   LIG    1        1.060  -0.769   0.003  0.00  0.00    -0.280 NA
ATOM     22  N   LIG    1        0.707  -2.005   0.011  0.00  0.00    -0.280 NA
ATOM     23  C   LIG    1       -0.593  -2.098   0.019  0.00  0.00    +0.190 A 
ATOM     24  N   LIG    1       -1.093  -0.825   0.022  0.00  0.00    -0.460 N 
ATOM     25  C   LIG    1       -2.503  -0.429   0.030  0.00  0.00    +0.350 C 
BRANCH  23  26
ATOM     26  C   LIG    1       -1.396  -3.373   0.024  0.00  0.00    +0.210 C 
BRANCH  26  27
ATOM     27  C   LIG    1       -1.673  -3.798  -1.395  0.00  0.00    -0.090 A 
ATOM     28  C   LIG    1       -2.816  -3.360  -2.038  0.00  0.00    +0.010 A 
ATOM     29  C   LIG    1       -3.067  -3.746  -3.341  0.00  0.00    +0.000 A 
ATOM     30  C   LIG    1       -2.181  -4.579  -3.998  0.00  0.00    +0.000 A 
ATOM     31  C   LIG    1       -1.041  -5.022  -3.354  0.00  0.00    +0.000 A 
ATOM     32  C   LIG    1       -0.787  -4.632  -2.052  0.00  0.00    +0.030 A 
ENDBRANCH  26  27
ENDBRANCH  23  26
ENDBRANCH  19  20
ENDBRANCH   1  19
TORSDOF 7
