REMARK  Name = ZINCfA000000bl6X.0
REMARK                            x       y       z     vdW  Elec       q    Type
REMARK                         _______ _______ _______ _____ _____    ______ ____
ROOT
ATOM      1  N   LIG    1       -2.899   1.550  -2.411  0.00  0.00    -0.510 N 
ATOM      2  H   LIG    1       -2.382   1.294  -3.239  0.00  0.00    +0.430 HD
ATOM      3  H   LIG    1       -2.984   2.554  -2.364  0.00  0.00    +0.420 HD
ENDROOT
BRANCH   1   8
ATOM      4  C   LIG    1        0.011   1.072   2.506  0.00  0.00    +0.030 C 
ATOM      5  C   LIG    1       -0.729   1.579   1.267  0.00  0.00    -0.020 C 
ATOM      6  C   LIG    1       -2.164   1.050   1.278  0.00  0.00    +0.060 C 
ATOM      7  C   LIG    1       -2.904   1.556   0.038  0.00  0.00    +0.040 C 
ATOM      8  C   LIG    1       -2.188   1.063  -1.221  0.00  0.00    +0.170 C 
ATOM      9  C   LIG    1       -0.753   1.593  -1.232  0.00  0.00    -0.010 C 
ATOM     10  C   LIG    1       -0.037   1.099  -2.490  0.00  0.00    +0.040 C 
ATOM     11  C   LIG    1       -0.013   1.086   0.008  0.00  0.00    +0.060 C 
ENDBRANCH   1   8
BRANCH   1  12
ATOM     12  C   LIG    1       -4.237   0.946  -2.463  0.00  0.00    +0.380 C 
BRANCH  12  13
ATOM     13  C   LIG    1       -4.966   1.445  -3.684  0.00  0.00    -0.340 A 
ATOM     14  C   LIG    1       -4.947   0.882  -4.896  0.00  0.00    +0.300 A 
ATOM     15  N   LIG    1       -5.672   1.509  -5.801  0.00  0.00    -0.470 NA
ATOM     16  C   LIG    1       -6.294   2.574  -5.422  0.00  0.00    +0.280 A 
ATOM     17  S   LIG    1       -5.987   2.878  -3.768  0.00  0.00    +0.180 S 
ENDBRANCH  12  13
ENDBRANCH   1  12
TORSDOF 3
