REMARK  Name = ZINCrD00000F5LxN.1
REMARK                            x       y       z     vdW  Elec       q    Type
REMARK                         _______ _______ _______ _____ _____    ______ ____
ROOT
ATOM      1  C   LIG    1        0.016  -0.015   0.010  0.00  0.00    +0.060 A 
ATOM      2  C   LIG    1        0.617  -0.702  -1.034  0.00  0.00    -0.010 A 
ATOM      3  C   LIG    1        0.639  -2.085  -1.030  0.00  0.00    +0.000 A 
ATOM      4  C   LIG    1        0.053  -2.786   0.008  0.00  0.00    +0.030 A 
ATOM      5  C   LIG    1       -0.553  -2.110   1.050  0.00  0.00    +0.020 A 
ATOM      6  C   LIG    1       -0.575  -0.723   1.057  0.00  0.00    +0.170 A 
ENDROOT
BRANCH   1  10
ATOM      7  N   LIG    1        0.526   3.972  -1.050  0.00  0.00    -0.540 NA
ATOM      8  C   LIG    1        1.299   3.455   0.087  0.00  0.00    +0.180 C 
ATOM      9  C   LIG    1        1.362   1.928   0.006  0.00  0.00    +0.190 C 
ATOM     10  N   LIG    1       -0.003   1.384   0.010  0.00  0.00    -0.500 N 
ATOM     11  C   LIG    1       -0.776   1.901  -1.127  0.00  0.00    +0.190 C 
ATOM     12  C   LIG    1       -0.839   3.428  -1.046  0.00  0.00    +0.180 C 
BRANCH   7  14
ATOM     13  C   LIG    1       -0.502   5.939  -2.088  0.00  0.00    +0.020 C 
ATOM     14  C   LIG    1        0.506   5.441  -1.050  0.00  0.00    +0.160 C 
ENDBRANCH   7  14
ENDBRANCH   1  10
BRANCH   6  15
ATOM     15  N   LIG    1       -1.189  -0.036   2.111  0.00  0.00    -0.650 N 
ATOM     16  H   LIG    1       -0.825   0.810   2.416  0.00  0.00    +0.420 HD
ATOM     17  C   LIG    1       -2.287  -0.549   2.701  0.00  0.00    +0.550 C 
ATOM     18  O   LIG    1       -2.697  -1.647   2.374  0.00  0.00    -0.530 OA
BRANCH  17  19
ATOM     19  C   LIG    1       -2.986   0.215   3.737  0.00  0.00    -0.070 C 
ATOM     20  C   LIG    1       -4.084  -0.298   4.328  0.00  0.00    +0.120 C 
BRANCH  20  21
ATOM     21  C   LIG    1       -4.787   0.470   5.369  0.00  0.00    -0.050 A 
ATOM     22  C   LIG    1       -4.312   1.730   5.749  0.00  0.00    +0.040 A 
ATOM     23  C   LIG    1       -4.970   2.447   6.716  0.00  0.00    +0.070 A 
ATOM     24  C   LIG    1       -6.108   1.914   7.328  0.00  0.00    -0.020 A 
ATOM     25  C   LIG    1       -6.580   0.653   6.952  0.00  0.00    +0.070 A 
ATOM     26  C   LIG    1       -5.926  -0.062   5.982  0.00  0.00    +0.050 A 
BRANCH  24  27
ATOM     27  C   LIG    1       -6.792   2.661   8.340  0.00  0.00    +0.250 C 
ATOM     28  N   LIG    1       -7.334   3.254   9.144  0.00  0.00    -0.410 NA
ENDBRANCH  24  27
ENDBRANCH  20  21
ENDBRANCH  17  19
ENDBRANCH   6  15
TORSDOF 6
