REMARK  Name = ZINCrH00000No587.0
REMARK                            x       y       z     vdW  Elec       q    Type
REMARK                         _______ _______ _______ _____ _____    ______ ____
ROOT
ATOM      1  N   LIG    1        0.008   6.498   0.603  0.00  0.00    -0.570 N 
ENDROOT
BRANCH   1   6
ATOM      2 CL   LIG    1        4.232   9.904  -1.441  0.00  0.00    -0.050 Cl
ATOM      3  C   LIG    1        2.967   8.883  -0.829  0.00  0.00    -0.220 A 
ATOM      4  C   LIG    1        1.879   8.551  -1.622  0.00  0.00    +0.370 A 
ATOM      5  N   LIG    1        0.932   7.772  -1.125  0.00  0.00    -0.530 NA
ATOM      6  C   LIG    1        1.017   7.311   0.114  0.00  0.00    +0.560 A 
ATOM      7  N   LIG    1        2.040   7.613   0.899  0.00  0.00    -0.550 NA
ATOM      8  C   LIG    1        3.023   8.383   0.463  0.00  0.00    +0.380 A 
ENDBRANCH   1   6
BRANCH   1   9
ATOM      9  C   LIG    1        0.083   5.978   1.970  0.00  0.00    +0.300 C 
BRANCH   9  10
ATOM     10  C   LIG    1        0.943   4.712   1.988  0.00  0.00    -0.020 C 
ATOM     11  C   LIG    1        0.319   3.656   1.071  0.00  0.00    -0.010 C 
ATOM     12  C   LIG    1        1.141   2.368   1.156  0.00  0.00    +0.200 C 
ATOM     13  O   LIG    1        1.189   1.923   2.513  0.00  0.00    -0.380 OA
ATOM     14  C   LIG    1        1.805   2.850   3.409  0.00  0.00    +0.210 C 
ATOM     15  C   LIG    1        1.009   4.158   3.415  0.00  0.00    +0.000 C 
ENDBRANCH   9  10
ENDBRANCH   1   9
BRANCH   1  16
ATOM     16  C   LIG    1       -1.135   6.157  -0.248  0.00  0.00    +0.370 C 
BRANCH  16  17
ATOM     17  C   LIG    1       -2.312   7.024   0.120  0.00  0.00    -0.110 A 
ATOM     18  C   LIG    1       -3.362   6.496   0.849  0.00  0.00    +0.030 A 
ATOM     19  C   LIG    1       -4.442   7.290   1.188  0.00  0.00    +0.020 A 
ATOM     20  C   LIG    1       -4.480   8.617   0.800  0.00  0.00    +0.020 A 
ATOM     21  C   LIG    1       -3.430   9.149   0.070  0.00  0.00    +0.060 A 
ATOM     22  O   LIG    1       -3.454  10.456  -0.320  0.00  0.00    -0.320 OA
ATOM     23  C   LIG    1       -2.494  11.312   0.304  0.00  0.00    +0.220 C 
ATOM     24  C   LIG    1       -1.158  11.238  -0.418  0.00  0.00    -0.010 C 
ATOM     25  C   LIG    1       -0.521   9.861  -0.318  0.00  0.00    +0.210 C 
ATOM     26  O   LIG    1       -1.318   8.884  -0.993  0.00  0.00    -0.290 OA
ATOM     27  C   LIG    1       -2.346   8.352  -0.271  0.00  0.00    +0.090 A 
ENDBRANCH  16  17
ENDBRANCH   1  16
TORSDOF 5
