REMARK  Name = ZINCpe00000MJKlz.0
REMARK                            x       y       z     vdW  Elec       q    Type
REMARK                         _______ _______ _______ _____ _____    ______ ____
ROOT
ATOM      1  N   LIG    1        0.128   1.392   6.281  0.00  0.00    -0.730 N 
ATOM      2  H   LIG    1       -0.722   1.856   6.216  0.00  0.00    +0.400 HD
ATOM      3  C   LIG    1        0.667   1.142   7.491  0.00  0.00    +0.520 C 
ATOM      4  O   LIG    1        1.729   0.562   7.573  0.00  0.00    -0.510 OA
ENDROOT
BRANCH   1   5
ATOM      5  C   LIG    1        0.823   0.962   5.066  0.00  0.00    +0.250 C 
BRANCH   5   6
ATOM      6  C   LIG    1        0.003   1.365   3.839  0.00  0.00    +0.100 C 
BRANCH   6   7
ATOM      7  C   LIG    1        0.729   0.916   2.570  0.00  0.00    +0.030 C 
ATOM      8  N   LIG    1        2.191   0.820   2.594  0.00  0.00    -0.110 NA
ATOM      9  N   LIG    1        1.593  -0.266   2.637  0.00  0.00    -0.120 NA
BRANCH   7  10
ATOM     10  C   LIG    1        0.038   1.243   1.244  0.00  0.00    +0.120 C 
BRANCH  10  11
ATOM     11  C   LIG    1        0.955   0.854   0.082  0.00  0.00    +0.160 C 
BRANCH  11  13
ATOM     12  C   LIG    1       -0.239   1.421  -2.210  0.00  0.00    +0.030 C 
ATOM     13  C   LIG    1        0.290   1.169  -1.193  0.00  0.00    -0.190 C 
ENDBRANCH  11  13
ENDBRANCH  10  11
ENDBRANCH   7  10
ENDBRANCH   6   7
ENDBRANCH   5   6
ENDBRANCH   1   5
BRANCH   3  14
ATOM     14  C   LIG    1       -0.048   1.584   8.741  0.00  0.00    +0.220 C 
BRANCH  14  15
ATOM     15  N   LIG    1        0.321   0.701   9.855  0.00  0.00    -0.510 NA
ATOM     16  C   LIG    1       -0.068  -0.690   9.575  0.00  0.00    +0.150 C 
ATOM     17  C   LIG    1        0.388  -1.583  10.732  0.00  0.00    +0.230 C 
ATOM     18  O   LIG    1       -0.177  -1.099  11.953  0.00  0.00    -0.390 OA
ATOM     19  C   LIG    1        0.181   0.252  12.257  0.00  0.00    +0.220 C 
ATOM     20  C   LIG    1       -0.276   1.165  11.116  0.00  0.00    +0.150 C 
ENDBRANCH  14  15
BRANCH  14  21
ATOM     21  C   LIG    1        0.347   3.001   9.072  0.00  0.00    -0.240 A 
ATOM     22  C   LIG    1       -0.421   4.102   8.903  0.00  0.00    +0.240 A 
ATOM     23  N   LIG    1        0.292   5.169   9.319  0.00  0.00    -0.370 N 
ATOM     24  N   LIG    1        1.543   4.710   9.751  0.00  0.00    -0.290 NA
ATOM     25  C   LIG    1       -0.160   6.562   9.316  0.00  0.00    +0.360 C 
ATOM     26  C   LIG    1        1.575   3.410   9.602  0.00  0.00    +0.270 A 
ENDBRANCH  14  21
ENDBRANCH   3  14
TORSDOF 9
