REMARK  Name = ZINCpk00000j9rpT.0
REMARK                            x       y       z     vdW  Elec       q    Type
REMARK                         _______ _______ _______ _____ _____    ______ ____
ROOT
ATOM      1  C   LIG    1        0.157  -3.373  -0.384  0.00  0.00    +0.510 C 
ATOM      2  N   LIG    1        0.387  -4.492  -1.099  0.00  0.00    -0.620 N 
ATOM      3  C   LIG    1       -0.383  -4.781  -2.319  0.00  0.00    +0.310 C 
ATOM      4  C   LIG    1        0.600  -5.097  -3.451  0.00  0.00    +0.120 C 
ATOM      5  N   LIG    1        1.508  -6.169  -3.022  0.00  0.00    -0.510 NA
ATOM      6  C   LIG    1        2.327  -5.747  -1.877  0.00  0.00    +0.110 C 
ATOM      7  C   LIG    1        3.309  -6.863  -1.513  0.00  0.00    +0.050 C 
ATOM      8  C   LIG    1       -0.176  -5.550  -4.689  0.00  0.00    +0.050 C 
ATOM      9  C   LIG    1        1.419  -5.454  -0.684  0.00  0.00    +0.280 C 
ATOM     10  O   LIG    1       -0.695  -2.588  -0.744  0.00  0.00    -0.500 OA
ENDROOT
BRANCH   1  11
ATOM     11  C   LIG    1        0.957  -3.098   0.863  0.00  0.00    +0.250 C 
BRANCH  11  14
ATOM     12  C   LIG    1       -0.386   0.373   1.762  0.00  0.00    +0.080 C 
ATOM     13  C   LIG    1       -0.310  -1.096   1.431  0.00  0.00    +0.520 C 
ATOM     14  N   LIG    1        0.884  -1.671   1.185  0.00  0.00    -0.720 N 
ATOM     15  H   LIG    1        1.694  -1.139   1.221  0.00  0.00    +0.410 HD
ATOM     16  O   LIG    1       -1.324  -1.760   1.385  0.00  0.00    -0.520 OA
ENDBRANCH  11  14
BRANCH  11  17
ATOM     17  C   LIG    1        0.387  -3.913   2.026  0.00  0.00    +0.190 C 
BRANCH  17  18
ATOM     18  O   LIG    1        1.214  -3.742   3.178  0.00  0.00    -0.380 OA
BRANCH  18  19
ATOM     19  C   LIG    1        0.768  -4.465   4.327  0.00  0.00    +0.140 C 
ATOM     20  C   LIG    1        1.176  -3.712   5.594  0.00  0.00    +0.040 C 
ATOM     21  C   LIG    1        1.404  -5.856   4.333  0.00  0.00    +0.010 C 
ENDBRANCH  18  19
ENDBRANCH  17  18
ENDBRANCH  11  17
ENDBRANCH   1  11
BRANCH   5  22
ATOM     22  C   LIG    1        2.353  -6.620  -4.136  0.00  0.00    +0.270 C 
BRANCH  22  23
ATOM     23  C   LIG    1        3.284  -5.483  -4.563  0.00  0.00    +0.410 C 
ATOM     24  F   LIG    1        2.522  -4.369  -4.929  0.00  0.00    -0.180 F 
ATOM     25  F   LIG    1        4.057  -5.898  -5.653  0.00  0.00    -0.180 F 
ATOM     26  F   LIG    1        4.125  -5.143  -3.498  0.00  0.00    -0.180 F 
ENDBRANCH  22  23
ENDBRANCH   5  22
TORSDOF 7
