REMARK  Name = ZINCrH000004r8ca.0
REMARK                            x       y       z     vdW  Elec       q    Type
REMARK                         _______ _______ _______ _____ _____    ______ ____
ROOT
ATOM      1  C   LIG    1        1.778  -0.589   0.915  0.00  0.00    +0.160 A 
ATOM      2  C   LIG    1        0.672  -0.191   0.174  0.00  0.00    +0.010 A 
ATOM      3  C   LIG    1        0.612  -0.451  -1.183  0.00  0.00    +0.050 A 
ATOM      4  C   LIG    1        1.645  -1.118  -1.808  0.00  0.00    +0.030 A 
ATOM      5  C   LIG    1        2.759  -1.527  -1.072  0.00  0.00    -0.110 A 
ATOM      6  C   LIG    1        2.822  -1.259   0.296  0.00  0.00    +0.080 A 
ENDROOT
BRANCH   5   7
ATOM      7  C   LIG    1        3.868  -2.242  -1.739  0.00  0.00    +0.560 C 
ATOM      8  N   LIG    1        3.804  -2.500  -3.060  0.00  0.00    -0.670 N 
ATOM      9  H   LIG    1        3.065  -2.157  -3.587  0.00  0.00    +0.410 HD
ATOM     10  O   LIG    1        4.836  -2.598  -1.096  0.00  0.00    -0.510 OA
BRANCH   8  11
ATOM     11  C   LIG    1        4.802  -3.260  -3.671  0.00  0.00    +0.190 A 
ATOM     12  C   LIG    1        6.127  -3.173  -3.248  0.00  0.00    -0.030 A 
ATOM     13  C   LIG    1        7.083  -3.945  -3.875  0.00  0.00    +0.280 A 
ATOM     14  N   LIG    1        6.757  -4.750  -4.869  0.00  0.00    -0.500 NA
ATOM     15  C   LIG    1        5.515  -4.856  -5.302  0.00  0.00    +0.280 A 
ATOM     16  C   LIG    1        4.500  -4.121  -4.725  0.00  0.00    -0.060 A 
ENDBRANCH   8  11
ENDBRANCH   5   7
BRANCH   1  17
ATOM     17  N   LIG    1        1.836  -0.318   2.284  0.00  0.00    -1.060 N 
ATOM     18  H   LIG    1        2.106  -1.012   2.905  0.00  0.00    +0.430 HD
BRANCH  17  19
ATOM     19  S   LIG    1        1.445   1.190   2.847  0.00  0.00    +2.690 S 
ATOM     20  O   LIG    1        1.614   1.148   4.258  0.00  0.00    -0.940 OA
ATOM     21  O   LIG    1        2.122   2.119   2.011  0.00  0.00    -0.940 OA
BRANCH  19  27
ATOM     22  C   LIG    1       -2.524   3.672   0.522  0.00  0.00    +0.100 C 
ATOM     23  C   LIG    1       -2.057   2.595   1.467  0.00  0.00    -0.110 A 
ATOM     24  C   LIG    1       -2.980   1.790   2.107  0.00  0.00    +0.070 A 
ATOM     25  C   LIG    1       -2.552   0.798   2.970  0.00  0.00    +0.000 A 
ATOM     26  C   LIG    1       -1.201   0.619   3.200  0.00  0.00    +0.010 A 
ATOM     27  C   LIG    1       -0.277   1.423   2.559  0.00  0.00    -0.680 A 
ATOM     28  C   LIG    1       -0.734  -0.459   4.145  0.00  0.00    +0.110 C 
ATOM     29  C   LIG    1       -0.705   2.411   1.692  0.00  0.00    +0.130 A 
ENDBRANCH  19  27
ENDBRANCH  17  19
ENDBRANCH   1  17
TORSDOF 5
