REMARK  Name = ZINCrH000004t74P.0
REMARK                            x       y       z     vdW  Elec       q    Type
REMARK                         _______ _______ _______ _____ _____    ______ ____
ROOT
ATOM      1  C   LIG    1       -0.267  -2.800  -0.069  0.00  0.00    -0.070 A 
ATOM      2  C   LIG    1        0.795  -1.900  -0.124  0.00  0.00    +0.120 A 
ATOM      3  C   LIG    1        0.548  -0.547  -0.164  0.00  0.00    +0.100 A 
ATOM      4  C   LIG    1       -0.769  -0.080  -0.139  0.00  0.00    -0.100 A 
ATOM      5  C   LIG    1       -1.830  -0.990  -0.084  0.00  0.00    +0.170 A 
ATOM      6  C   LIG    1       -1.578  -2.332  -0.049  0.00  0.00    +0.010 A 
ENDROOT
BRANCH   4   7
ATOM      7  C   LIG    1       -1.041   1.369  -0.176  0.00  0.00    +0.560 C 
ATOM      8  N   LIG    1       -0.018   2.245  -0.230  0.00  0.00    -0.720 N 
ATOM      9  H   LIG    1        0.897   1.923  -0.243  0.00  0.00    +0.400 HD
ATOM     10  O   LIG    1       -2.187   1.774  -0.165  0.00  0.00    -0.520 OA
BRANCH   8  11
ATOM     11  C   LIG    1       -0.287   3.685  -0.267  0.00  0.00    +0.240 C 
ATOM     12  C   LIG    1       -0.541   4.119  -1.712  0.00  0.00    +0.000 C 
ATOM     13  C   LIG    1       -1.202   5.498  -1.721  0.00  0.00    +0.010 C 
ATOM     14  C   LIG    1       -2.302   5.545  -0.659  0.00  0.00    -0.000 C 
ATOM     15  C   LIG    1       -1.900   6.522   0.449  0.00  0.00    +0.000 C 
ATOM     16  C   LIG    1       -0.841   5.871   1.341  0.00  0.00    +0.000 C 
ATOM     17  C   LIG    1        0.509   5.880   0.622  0.00  0.00    +0.030 C 
ATOM     18  C   LIG    1        0.919   4.444   0.289  0.00  0.00    +0.010 C 
ENDBRANCH   8  11
ENDBRANCH   4   7
BRANCH   6  19
ATOM     19  N   LIG    1       -2.704  -3.292   0.009  0.00  0.00    +0.020 N 
ATOM     20  O   LIG    1       -2.481  -4.489   0.040  0.00  0.00    -0.130 OA
ATOM     21  O   LIG    1       -3.851  -2.885   0.027  0.00  0.00    -0.150 OA
ENDBRANCH   6  19
BRANCH   1  22
ATOM     22  S   LIG    1        0.050  -4.532  -0.023  0.00  0.00    +0.170 S 
BRANCH  22  28
ATOM     23  C   LIG    1        0.013  -7.373   1.669  0.00  0.00    +0.360 C 
ATOM     24  N   LIG    1       -0.226  -6.072   2.297  0.00  0.00    -0.460 N 
ATOM     25  C   LIG    1       -0.490  -5.828   3.616  0.00  0.00    +0.400 A 
ATOM     26  N   LIG    1       -0.637  -4.540   3.751  0.00  0.00    -0.290 NA
ATOM     27  N   LIG    1       -0.481  -3.957   2.616  0.00  0.00    -0.290 NA
ATOM     28  C   LIG    1       -0.232  -4.850   1.687  0.00  0.00    +0.140 A 
ENDBRANCH  22  28
ENDBRANCH   1  22
TORSDOF 5
