REMARK  Name = ZINCtV00000KZtji.0
REMARK                            x       y       z     vdW  Elec       q    Type
REMARK                         _______ _______ _______ _____ _____    ______ ____
ROOT
ATOM      1  C   LIG    1        2.893  -5.005  -1.978  0.00  0.00    +0.120 C 
ATOM      2  C   LIG    1        2.068  -4.237  -0.977  0.00  0.00    +0.020 A 
ATOM      3  C   LIG    1        2.222  -2.866  -0.827  0.00  0.00    -0.080 A 
ATOM      4  C   LIG    1        1.431  -2.178   0.123  0.00  0.00    +0.250 A 
ATOM      5  N   LIG    1        0.553  -2.815   0.871  0.00  0.00    -0.460 NA
ATOM      6  C   LIG    1        0.362  -4.133   0.761  0.00  0.00    +0.170 A 
ATOM      7  C   LIG    1       -0.584  -4.789   1.565  0.00  0.00    +0.060 A 
ATOM      8  C   LIG    1       -0.763  -6.138   1.448  0.00  0.00    +0.070 A 
ATOM      9  C   LIG    1       -0.009  -6.886   0.528  0.00  0.00    +0.050 A 
ATOM     10  O   LIG    1       -0.388  -8.195   0.621  0.00  0.00    -0.300 OA
ATOM     11  C   LIG    1       -1.075  -8.307   1.881  0.00  0.00    +0.440 C 
ATOM     12  C   LIG    1        0.917  -6.277  -0.269  0.00  0.00    +0.070 A 
ATOM     13  O   LIG    1       -1.606  -6.989   2.105  0.00  0.00    -0.300 OA
ATOM     14  C   LIG    1        1.122  -4.890  -0.169  0.00  0.00    -0.090 A 
ENDROOT
BRANCH   3  15
ATOM     15  C   LIG    1        3.203  -2.132  -1.651  0.00  0.00    +0.160 A 
ATOM     16  N   LIG    1        2.947  -1.057  -2.320  0.00  0.00    -0.430 NA
ATOM     17  C   LIG    1        3.947  -0.501  -3.025  0.00  0.00    +0.080 A 
ATOM     18  C   LIG    1        3.924   0.660  -3.828  0.00  0.00    +0.080 A 
ATOM     19  C   LIG    1        5.047   1.077  -4.474  0.00  0.00    +0.030 A 
ATOM     20  C   LIG    1        6.236   0.371  -4.358  0.00  0.00    +0.050 A 
ATOM     21  C   LIG    1        6.290  -0.766  -3.583  0.00  0.00    +0.050 A 
ATOM     22  C   LIG    1        5.150  -1.208  -2.914  0.00  0.00    -0.170 A 
ATOM     23  S   LIG    1        4.888  -2.592  -1.856  0.00  0.00    +0.070 S 
ENDBRANCH   3  15
BRANCH   4  24
ATOM     24  C   LIG    1        1.596  -0.715   0.283  0.00  0.00    -0.040 A 
ATOM     25  C   LIG    1        0.476   0.108   0.397  0.00  0.00    +0.060 A 
ATOM     26  C   LIG    1        0.637   1.471   0.546  0.00  0.00    +0.010 A 
ATOM     27  C   LIG    1        1.906   2.020   0.582  0.00  0.00    +0.020 A 
ATOM     28  C   LIG    1        3.021   1.209   0.470  0.00  0.00    +0.000 A 
ATOM     29  C   LIG    1        2.873  -0.155   0.321  0.00  0.00    +0.030 A 
ENDBRANCH   4  24
TORSDOF 2
