REMARK  Name = ZINCkj000005lDQy.0
REMARK                            x       y       z     vdW  Elec       q    Type
REMARK                         _______ _______ _______ _____ _____    ______ ____
ROOT
ATOM      1  O   LIG    1       -1.005   2.030   2.433  0.00  0.00    -0.490 OA
ATOM      2  C   LIG    1       -1.657   2.452   1.502  0.00  0.00    +0.520 C 
ATOM      3  N   LIG    1       -2.753   3.203   1.731  0.00  0.00    -0.640 N 
ATOM      4  C   LIG    1       -3.556   3.730   0.617  0.00  0.00    +0.320 C 
ATOM      5  C   LIG    1       -5.029   3.377   0.875  0.00  0.00    +0.270 C 
ATOM      6  N   LIG    1       -5.425   3.877   2.197  0.00  0.00    -0.370 N 
ATOM      7  C   LIG    1       -4.665   3.183   3.244  0.00  0.00    +0.240 C 
ATOM      8  H   LIG    1       -5.240   4.868   2.249  0.00  0.00    +0.430 HD
ATOM      9  C   LIG    1       -3.177   3.522   3.103  0.00  0.00    +0.320 C 
ENDROOT
BRANCH   6  10
ATOM     10  C   LIG    1       -6.861   3.640   2.398  0.00  0.00    +0.170 C 
ATOM     11  C   LIG    1       -7.262   4.018   3.839  0.00  0.00    +0.050 C 
ATOM     12  C   LIG    1       -8.671   4.644   3.689  0.00  0.00    +0.060 C 
ATOM     13  C   LIG    1       -8.552   5.441   2.366  0.00  0.00    +0.020 C 
ATOM     14  C   LIG    1       -7.681   4.545   1.462  0.00  0.00    +0.190 C 
BRANCH  14  15
ATOM     15  O   LIG    1       -6.806   5.351   0.670  0.00  0.00    -0.580 OA
ATOM     16  H   LIG    1       -7.263   5.944   0.059  0.00  0.00    +0.410 HD
ENDBRANCH  14  15
ENDBRANCH   6  10
BRANCH   2  17
ATOM     17  C   LIG    1       -1.242   2.138   0.088  0.00  0.00    +0.160 C 
BRANCH  17  18
ATOM     18  C   LIG    1        0.004   1.291   0.106  0.00  0.00    -0.190 A 
ATOM     19  C   LIG    1        0.027  -0.042   0.137  0.00  0.00    +0.030 A 
ATOM     20  C   LIG    1        1.292  -0.604   0.143  0.00  0.00    +0.000 A 
ATOM     21  C   LIG    1        2.297   0.274   0.118  0.00  0.00    -0.030 A 
ATOM     22  S   LIG    1        1.650   1.909   0.084  0.00  0.00    +0.120 S 
ENDBRANCH  17  18
ENDBRANCH   2  17
TORSDOF 4
