REMARK  Name = ZINCqH0000008AdH.0
REMARK                            x       y       z     vdW  Elec       q    Type
REMARK                         _______ _______ _______ _____ _____    ______ ____
ROOT
ATOM      1  C   LIG    1        1.155   1.740   0.067  0.00  0.00    -0.140 A 
ATOM      2  C   LIG    1       -0.056   1.043   0.002  0.00  0.00    +0.120 A 
ATOM      3  C   LIG    1       -1.245   1.735  -0.011  0.00  0.00    +0.000 A 
ATOM      4  C   LIG    1       -1.245   3.125   0.053  0.00  0.00    +0.170 A 
ATOM      5  C   LIG    1       -0.041   3.822   0.117  0.00  0.00    +0.000 A 
ATOM      6  C   LIG    1        1.152   3.136   0.125  0.00  0.00    +0.060 A 
ENDROOT
BRANCH   1   9
ATOM      7  N   LIG    1        3.599   1.674   0.139  0.00  0.00    -0.720 N 
ATOM      8  H   LIG    1        3.598   2.644   0.178  0.00  0.00    +0.400 HD
ATOM      9  C   LIG    1        2.432   1.002   0.076  0.00  0.00    +0.560 C 
ATOM     10  O   LIG    1        2.433  -0.213   0.026  0.00  0.00    -0.530 OA
BRANCH   7  17
ATOM     11  C   LIG    1        5.521   2.098   2.264  0.00  0.00    +0.020 C 
ATOM     12  C   LIG    1        5.943   1.793   0.825  0.00  0.00    -0.010 C 
ATOM     13  C   LIG    1        6.116   3.104   0.056  0.00  0.00    +0.010 C 
ATOM     14  C   LIG    1        6.539   2.799  -1.383  0.00  0.00    +0.000 C 
ATOM     15  C   LIG    1        5.463   1.948  -2.061  0.00  0.00    +0.000 C 
ATOM     16  C   LIG    1        5.290   0.637  -1.291  0.00  0.00    +0.010 C 
ATOM     17  C   LIG    1        4.867   0.942   0.147  0.00  0.00    +0.240 C 
ENDBRANCH   7  17
ENDBRANCH   1   9
BRANCH   4  18
ATOM     18  N   LIG    1       -2.449   3.821   0.045  0.00  0.00    -1.060 N 
ATOM     19  H   LIG    1       -2.597   4.541   0.678  0.00  0.00    +0.430 HD
BRANCH  18  20
ATOM     20  S   LIG    1       -3.630   3.420  -1.044  0.00  0.00    +2.690 S 
ATOM     21  O   LIG    1       -4.671   4.373  -0.876  0.00  0.00    -0.950 OA
ATOM     22  O   LIG    1       -3.832   2.019  -0.919  0.00  0.00    -0.940 OA
BRANCH  20  23
ATOM     23  C   LIG    1       -2.966   3.686  -2.654  0.00  0.00    -0.680 A 
ATOM     24  C   LIG    1       -3.018   4.944  -3.224  0.00  0.00    +0.120 A 
ATOM     25  C   LIG    1       -2.494   5.154  -4.486  0.00  0.00    -0.010 A 
ATOM     26  C   LIG    1       -1.925   4.103  -5.181  0.00  0.00    +0.070 A 
ATOM     27  C   LIG    1       -1.878   2.843  -4.614  0.00  0.00    +0.000 A 
ATOM     28  C   LIG    1       -2.399   2.635  -3.350  0.00  0.00    +0.120 A 
ENDBRANCH  20  23
ENDBRANCH  18  20
ENDBRANCH   4  18
TORSDOF 5
