REMARK  Name = ZINCrH000004svMg.0
REMARK                            x       y       z     vdW  Elec       q    Type
REMARK                         _______ _______ _______ _____ _____    ______ ____
ROOT
ATOM      1  C   LIG    1        4.115   5.180  -0.176  0.00  0.00    +0.530 C 
ATOM      2  N   LIG    1        3.798   6.478  -0.000  0.00  0.00    -0.670 N 
ATOM      3  H   LIG    1        2.868   6.747   0.057  0.00  0.00    +0.420 HD
ATOM      4  O   LIG    1        5.272   4.855  -0.343  0.00  0.00    -0.500 OA
ENDROOT
BRANCH   2   5
ATOM      5  C   LIG    1        4.812   7.439   0.101  0.00  0.00    +0.150 A 
ATOM      6  C   LIG    1        4.605   8.720  -0.392  0.00  0.00    +0.010 A 
ATOM      7  C   LIG    1        5.604   9.672  -0.294  0.00  0.00    +0.050 A 
ATOM      8  C   LIG    1        6.812   9.344   0.296  0.00  0.00    +0.050 A 
ATOM      9  O   LIG    1        7.804  10.277   0.396  0.00  0.00    -0.320 OA
ATOM     10  C   LIG    1        8.112  10.723   1.718  0.00  0.00    +0.230 C 
ATOM     11  C   LIG    1        9.089   9.774   2.394  0.00  0.00    -0.010 C 
ATOM     12  C   LIG    1        8.494   8.392   2.616  0.00  0.00    +0.230 C 
ATOM     13  O   LIG    1        8.219   7.753   1.368  0.00  0.00    -0.320 OA
ATOM     14  C   LIG    1        7.022   8.064   0.789  0.00  0.00    +0.090 A 
ATOM     15  C   LIG    1        6.023   7.111   0.699  0.00  0.00    +0.030 A 
ENDBRANCH   2   5
BRANCH   1  16
ATOM     16  C   LIG    1        3.033   4.132  -0.165  0.00  0.00    +0.110 C 
BRANCH  16  17
ATOM     17  S   LIG    1        3.771   2.500  -0.425  0.00  0.00    +0.040 S 
BRANCH  17  21
ATOM     18  C   LIG    1       -1.287   2.041   0.094  0.00  0.00    +0.140 C 
ATOM     19  C   LIG    1        0.032   1.345  -0.124  0.00  0.00    +0.180 A 
ATOM     20  N   LIG    1        1.139   2.059  -0.173  0.00  0.00    -0.490 NA
ATOM     21  C   LIG    1        2.323   1.497  -0.368  0.00  0.00    +0.150 A 
ATOM     22  C   LIG    1        2.430   0.104  -0.530  0.00  0.00    -0.070 A 
ATOM     23  C   LIG    1        1.266  -0.671  -0.482  0.00  0.00    +0.030 A 
ATOM     24  C   LIG    1        1.327  -2.168  -0.650  0.00  0.00    +0.120 C 
ATOM     25  C   LIG    1        0.057  -0.030  -0.275  0.00  0.00    -0.150 A 
ATOM     26  C   LIG    1       -1.223  -0.824  -0.215  0.00  0.00    +0.130 C 
BRANCH  22  27
ATOM     27  C   LIG    1        3.707  -0.510  -0.742  0.00  0.00    +0.250 C 
ATOM     28  N   LIG    1        4.719  -0.997  -0.909  0.00  0.00    -0.390 NA
ENDBRANCH  22  27
ENDBRANCH  17  21
ENDBRANCH  16  17
ENDBRANCH   1  16
TORSDOF 5
