REMARK  Name = ZINCrD0000074Xno.0
REMARK                            x       y       z     vdW  Elec       q    Type
REMARK                         _______ _______ _______ _____ _____    ______ ____
ROOT
ATOM      1  C   LIG    1       -0.742   1.573   1.098  0.00  0.00    +0.190 C 
ATOM      2  C   LIG    1        0.048   0.921  -0.038  0.00  0.00    +0.070 C 
ENDROOT
BRANCH   1   3
ATOM      3  C   LIG    1       -2.150   1.035   1.105  0.00  0.00    +0.520 C 
ATOM      4  N   LIG    1       -2.372  -0.267   1.374  0.00  0.00    -0.670 N 
ATOM      5  H   LIG    1       -1.623  -0.873   1.488  0.00  0.00    +0.410 HD
ATOM      6  O   LIG    1       -3.083   1.773   0.868  0.00  0.00    -0.490 OA
BRANCH   4   7
ATOM      7  C   LIG    1       -3.681  -0.744   1.490  0.00  0.00    +0.160 A 
ATOM      8  C   LIG    1       -3.979  -2.025   1.081  0.00  0.00    -0.010 A 
ATOM      9  C   LIG    1       -5.295  -2.500   1.198  0.00  0.00    -0.030 A 
ATOM     10  C   LIG    1       -5.638  -3.801   0.792  0.00  0.00    +0.020 A 
ATOM     11  C   LIG    1       -6.923  -4.231   0.921  0.00  0.00    +0.010 A 
ATOM     12  C   LIG    1       -7.907  -3.398   1.449  0.00  0.00    +0.000 A 
ATOM     13  C   LIG    1       -7.612  -2.132   1.853  0.00  0.00    +0.030 A 
ATOM     14  C   LIG    1       -6.296  -1.653   1.737  0.00  0.00    -0.060 A 
ATOM     15  C   LIG    1       -5.957  -0.351   2.144  0.00  0.00    +0.050 A 
ATOM     16  C   LIG    1       -4.675   0.084   2.025  0.00  0.00    +0.020 A 
ENDBRANCH   4   7
ENDBRANCH   1   3
BRANCH   1  17
ATOM     17  O   LIG    1       -0.775   3.012   0.901  0.00  0.00    -0.320 OA
BRANCH  17  18
ATOM     18  C   LIG    1        0.217   3.726   1.454  0.00  0.00    +0.470 C 
ATOM     19  O   LIG    1        1.085   3.168   2.083  0.00  0.00    -0.500 OA
BRANCH  18  20
ATOM     20  C   LIG    1        0.249   5.224   1.292  0.00  0.00    +0.110 C 
BRANCH  20  21
ATOM     21  C   LIG    1        1.474   5.789   2.014  0.00  0.00    +0.330 C 
BRANCH  21  28
ATOM     22  C   LIG    1        2.868   7.015  -0.235  0.00  0.00    +0.160 C 
ATOM     23  C   LIG    1        2.153   7.832   0.810  0.00  0.00    +0.100 A 
ATOM     24  C   LIG    1        2.118   9.156   0.755  0.00  0.00    -0.040 A 
ATOM     25  S   LIG    1        1.185   9.659   2.175  0.00  0.00    +0.010 S 
ATOM     26  C   LIG    1        0.901   8.057   2.739  0.00  0.00    +0.480 A 
ATOM     27  O   LIG    1        0.280   7.728   3.733  0.00  0.00    -0.470 OA
ATOM     28  N   LIG    1        1.505   7.245   1.856  0.00  0.00    -0.530 N 
ENDBRANCH  21  28
ENDBRANCH  20  21
ENDBRANCH  18  20
ENDBRANCH  17  18
ENDBRANCH   1  17
TORSDOF 7
