REMARK  Name = ZINCkj00000y7DlF.2
REMARK                            x       y       z     vdW  Elec       q    Type
REMARK                         _______ _______ _______ _____ _____    ______ ____
ROOT
ATOM      1  N   LIG    1        3.913   2.686  -0.893  0.00  0.00    -0.500 N 
ATOM      2  H   LIG    1        4.291   2.176  -0.108  0.00  0.00    +0.430 HD
ATOM      3  H   LIG    1        3.467   3.529  -0.563  0.00  0.00    +0.430 HD
ENDROOT
BRANCH   1   4
ATOM      4  C   LIG    1        4.998   3.035  -1.819  0.00  0.00    +0.170 C 
ATOM      5  C   LIG    1        6.184   3.700  -1.170  0.00  0.00    -0.010 C 
ATOM      6  C   LIG    1        6.527   3.692   0.317  0.00  0.00    +0.030 C 
ATOM      7  C   LIG    1        6.670   5.233   0.565  0.00  0.00    +0.240 C 
ATOM      8  O   LIG    1        5.888   5.873  -0.481  0.00  0.00    -0.340 OA
ATOM      9  C   LIG    1        5.127   4.878  -1.081  0.00  0.00    +0.090 C 
ATOM     10  C   LIG    1        4.856   4.446  -2.483  0.00  0.00    -0.030 C 
ATOM     11  C   LIG    1        3.450   4.772  -2.990  0.00  0.00    +0.070 C 
ATOM     12  C   LIG    1        5.963   4.794  -3.480  0.00  0.00    +0.110 C 
ENDBRANCH   1   4
BRANCH   1  13
ATOM     13  C   LIG    1        2.925   1.850  -1.589  0.00  0.00    +0.270 C 
BRANCH  13  17
ATOM     14  N   LIG    1       -0.475   0.712  -0.559  0.00  0.00    -0.520 NA
ATOM     15  C   LIG    1       -0.467   2.067   0.022  0.00  0.00    +0.200 C 
ATOM     16  C   LIG    1        0.887   2.712  -0.343  0.00  0.00    +0.000 C 
ATOM     17  C   LIG    1        1.795   1.486  -0.624  0.00  0.00    -0.020 C 
ATOM     18  C   LIG    1        0.797   0.502  -1.284  0.00  0.00    +0.200 C 
BRANCH  14  19
ATOM     19  C   LIG    1       -1.626   0.529  -1.453  0.00  0.00    +0.190 C 
BRANCH  19  20
ATOM     20  C   LIG    1       -1.547  -0.849  -2.113  0.00  0.00    +0.170 C 
BRANCH  20  22
ATOM     21  C   LIG    1       -1.681  -3.194  -1.637  0.00  0.00    +0.200 C 
ATOM     22  O   LIG    1       -1.736  -1.862  -1.123  0.00  0.00    -0.380 OA
ENDBRANCH  20  22
ENDBRANCH  19  20
ENDBRANCH  14  19
ENDBRANCH  13  17
ENDBRANCH   1  13
TORSDOF 6
