REMARK  Name = ZINCrH000004njop.0
REMARK                            x       y       z     vdW  Elec       q    Type
REMARK                         _______ _______ _______ _____ _____    ______ ____
ROOT
ATOM      1  C   LIG    1       -7.202   5.041  -0.672  0.00  0.00    +0.030 C 
ATOM      2  C   LIG    1       -7.087   3.519  -0.790  0.00  0.00    +0.020 C 
ATOM      3  C   LIG    1       -6.129   2.999   0.287  0.00  0.00    +0.280 C 
ATOM      4  N   LIG    1       -4.850   3.713   0.168  0.00  0.00    -0.610 N 
ATOM      5  C   LIG    1       -4.857   5.182   0.183  0.00  0.00    +0.270 C 
ATOM      6  C   LIG    1       -3.693   3.033   0.051  0.00  0.00    +0.570 C 
ATOM      7  O   LIG    1       -3.707   1.822  -0.061  0.00  0.00    -0.500 OA
ATOM      8  C   LIG    1       -5.830   5.677  -0.899  0.00  0.00    +0.020 C 
ENDROOT
BRANCH   6   9
ATOM      9  C   LIG    1       -2.408   3.757   0.061  0.00  0.00    -0.060 A 
ATOM     10  C   LIG    1       -2.099   4.622   1.099  0.00  0.00    +0.060 A 
ATOM     11  C   LIG    1       -0.887   5.309   1.113  0.00  0.00    +0.120 A 
ATOM     12  C   LIG    1        0.025   5.150   0.111  0.00  0.00    +0.060 A 
ATOM     13  C   LIG    1       -0.248   4.281  -0.961  0.00  0.00    +0.100 A 
ATOM     14  N   LIG    1        0.634   4.114  -1.952  0.00  0.00    -0.420 NA
ATOM     15  C   LIG    1        0.354   3.297  -2.942  0.00  0.00    +0.270 A 
ATOM     16  C   LIG    1       -0.856   2.602  -2.972  0.00  0.00    +0.260 A 
ATOM     17  N   LIG    1       -1.740   2.755  -2.011  0.00  0.00    -0.410 NA
ATOM     18  F   LIG    1       -0.610   6.146   2.137  0.00  0.00    -0.120 F 
ATOM     19  C   LIG    1       -1.476   3.575  -0.992  0.00  0.00    +0.100 A 
ENDBRANCH   6   9
BRANCH   1  24
ATOM     20  C   LIG    1      -10.196   6.704  -2.270  0.00  0.00    +0.130 A 
ATOM     21  C   LIG    1       -9.943   6.488  -3.617  0.00  0.00    -0.080 A 
ATOM     22  C   LIG    1       -8.806   5.805  -4.005  0.00  0.00    +0.040 A 
ATOM     23  C   LIG    1       -7.918   5.343  -3.052  0.00  0.00    -0.030 A 
ATOM     24  C   LIG    1       -8.170   5.552  -1.708  0.00  0.00    -0.040 A 
ATOM     25  C   LIG    1       -9.305   6.234  -1.316  0.00  0.00    -0.020 A 
BRANCH  20  27
ATOM     26  C   LIG    1      -12.185   7.831  -2.923  0.00  0.00    +0.250 C 
ATOM     27  O   LIG    1      -11.313   7.376  -1.886  0.00  0.00    -0.320 OA
ENDBRANCH  20  27
ENDBRANCH   1  24
TORSDOF 3
