REMARK  Name = ZINCrH00000No4ZL.2
REMARK                            x       y       z     vdW  Elec       q    Type
REMARK                         _______ _______ _______ _____ _____    ______ ____
ROOT
ATOM      1  N   LIG    1       -1.139   1.264  -0.198  0.00  0.00    -0.530 NA
ENDROOT
BRANCH   1   2
ATOM      2  C   LIG    1       -2.150   0.200  -0.271  0.00  0.00    +0.270 C 
BRANCH   2   6
ATOM      3  C   LIG    1       -2.901  -0.622  -3.835  0.00  0.00    -0.110 A 
ATOM      4  C   LIG    1       -3.862   0.302  -3.885  0.00  0.00    -0.040 A 
ATOM      5  S   LIG    1       -3.991   1.103  -2.324  0.00  0.00    +0.120 S 
ATOM      6  C   LIG    1       -2.688   0.115  -1.676  0.00  0.00    -0.150 A 
ATOM      7  C   LIG    1       -2.253  -0.725  -2.616  0.00  0.00    +0.020 A 
BRANCH   3   8
ATOM      8  C   LIG    1       -2.547  -1.488  -5.017  0.00  0.00    +0.240 C 
BRANCH   8  10
ATOM      9  C   LIG    1       -3.163  -3.512  -6.143  0.00  0.00    +0.200 C 
ATOM     10  O   LIG    1       -3.416  -2.622  -5.054  0.00  0.00    -0.390 OA
ENDBRANCH   8  10
ENDBRANCH   3   8
ENDBRANCH   2   6
ENDBRANCH   1   2
BRANCH   1  11
ATOM     11  C   LIG    1        0.144   0.808  -0.749  0.00  0.00    +0.220 C 
BRANCH  11  12
ATOM     12  C   LIG    1        0.755  -0.242   0.181  0.00  0.00    +0.070 C 
ATOM     13  C   LIG    1        1.657   0.354   1.275  0.00  0.00    +0.030 C 
ATOM     14  C   LIG    1        2.602  -0.835   1.033  0.00  0.00    +0.010 C 
ATOM     15  C   LIG    1        2.019  -0.908  -0.388  0.00  0.00    +0.040 C 
BRANCH  12  16
ATOM     16  O   LIG    1       -0.209  -1.173   0.675  0.00  0.00    -0.540 OA
ATOM     17  H   LIG    1       -0.856  -0.786   1.281  0.00  0.00    +0.370 HD
ENDBRANCH  12  16
ENDBRANCH  11  12
ENDBRANCH   1  11
BRANCH   1  18
ATOM     18  C   LIG    1       -0.979   1.744   1.181  0.00  0.00    +0.250 C 
BRANCH  18  19
ATOM     19  C   LIG    1       -0.126   2.986   1.185  0.00  0.00    +0.100 A 
ATOM     20  C   LIG    1       -0.732   4.229   1.164  0.00  0.00    +0.030 A 
ATOM     21  C   LIG    1        0.059   5.367   1.172  0.00  0.00    -0.020 A 
ATOM     22  C   LIG    1        1.441   5.211   1.191  0.00  0.00    +0.090 A 
ATOM     23  C   LIG    1        1.975   3.931   1.205  0.00  0.00    +0.230 A 
ATOM     24  N   LIG    1        1.188   2.874   1.202  0.00  0.00    -0.430 NA
BRANCH  22  25
ATOM     25  O   LIG    1        2.257   6.298   1.194  0.00  0.00    -0.280 OA
BRANCH  25  26
ATOM     26  C   LIG    1        1.631   7.579   1.304  0.00  0.00    +0.120 C 
ATOM     27  C   LIG    1        2.109   8.682   0.357  0.00  0.00    +0.040 C 
ATOM     28  C   LIG    1        2.477   8.735   1.841  0.00  0.00    +0.050 C 
ENDBRANCH  25  26
ENDBRANCH  22  25
ENDBRANCH  18  19
ENDBRANCH   1  18
TORSDOF 11
