REMARK  Name = ZINCqH0000031IDn.0
REMARK                            x       y       z     vdW  Elec       q    Type
REMARK                         _______ _______ _______ _____ _____    ______ ____
ROOT
ATOM      1  C   LIG    1        1.168   4.077  -1.492  0.00  0.00    +0.110 C 
ENDROOT
BRANCH   1   2
ATOM      2  C   LIG    1        1.063   3.611  -0.039  0.00  0.00    +0.320 C 
ATOM      3  C   LIG    1        1.093   2.104   0.011  0.00  0.00    -0.110 A 
ATOM      4  C   LIG    1        2.291   1.426   0.063  0.00  0.00    +0.030 A 
ATOM      5  C   LIG    1        2.303   0.041   0.066  0.00  0.00    +0.010 A 
ATOM      6  C   LIG    1        1.116  -0.668   0.018  0.00  0.00    +0.020 A 
ATOM      7  C   LIG    1       -0.092  -0.000  -0.025  0.00  0.00    +0.020 A 
ATOM      8  C   LIG    1       -0.110   1.393  -0.020  0.00  0.00    -0.030 A 
ATOM      9  C   LIG    1       -1.386   2.134  -0.056  0.00  0.00    -0.030 C 
ATOM     10  C   LIG    1       -1.390   3.446   0.208  0.00  0.00    +0.240 C 
ATOM     11  N   LIG    1       -0.200   4.083   0.538  0.00  0.00    -0.560 N 
ATOM     12  C   LIG    1       -0.207   5.131   1.386  0.00  0.00    +0.510 C 
ATOM     13  O   LIG    1        0.833   5.686   1.673  0.00  0.00    -0.480 OA
ATOM     14  C   LIG    1       -1.506   5.614   1.977  0.00  0.00    +0.100 C 
ENDBRANCH   1   2
BRANCH   1  15
ATOM     15  C   LIG    1        1.262   5.581  -1.532  0.00  0.00    +0.450 C 
ATOM     16  O   LIG    1        1.246   6.214  -0.504  0.00  0.00    -0.450 OA
BRANCH  15  17
ATOM     17  O   LIG    1        1.362   6.216  -2.711  0.00  0.00    -0.300 OA
BRANCH  17  21
ATOM     18  C   LIG    1        1.290  10.344  -2.629  0.00  0.00    -0.170 A 
ATOM     19  C   LIG    1        2.446   9.653  -2.244  0.00  0.00    +0.100 A 
ATOM     20  C   LIG    1        2.465   8.277  -2.273  0.00  0.00    +0.000 A 
ATOM     21  C   LIG    1        1.338   7.573  -2.684  0.00  0.00    +0.120 A 
ATOM     22  C   LIG    1        0.190   8.254  -3.072  0.00  0.00    +0.010 A 
ATOM     23  C   LIG    1        0.159   9.630  -3.041  0.00  0.00    +0.080 A 
BRANCH  18  25
ATOM     24  C   LIG    1       -0.017  12.550  -2.889  0.00  0.00    +0.080 C 
ATOM     25  C   LIG    1        1.265  11.812  -2.601  0.00  0.00    +0.400 C 
ATOM     26  O   LIG    1        2.276  12.431  -2.345  0.00  0.00    -0.450 OA
ENDBRANCH  18  25
ENDBRANCH  17  21
ENDBRANCH  15  17
ENDBRANCH   1  15
TORSDOF 5
