REMARK  Name = ZINCrH000004n3qh.1
REMARK                            x       y       z     vdW  Elec       q    Type
REMARK                         _______ _______ _______ _____ _____    ______ ____
ROOT
ATOM      1  C   LIG    1       -4.806   0.192  -0.010  0.00  0.00    +0.170 C 
ENDROOT
BRANCH   1   5
ATOM      2  C   LIG    1       -8.478  -1.882   0.684  0.00  0.00    +0.130 A 
ATOM      3  C   LIG    1       -8.124  -1.507  -0.604  0.00  0.00    -0.020 A 
ATOM      4  C   LIG    1       -6.937  -0.837  -0.826  0.00  0.00    +0.040 A 
ATOM      5  C   LIG    1       -6.101  -0.539   0.235  0.00  0.00    -0.120 A 
ATOM      6  C   LIG    1       -6.449  -0.917   1.519  0.00  0.00    +0.080 A 
ATOM      7  C   LIG    1       -7.638  -1.582   1.746  0.00  0.00    -0.080 A 
BRANCH   2   9
ATOM      8  C   LIG    1       -9.944  -2.897   2.256  0.00  0.00    +0.250 C 
ATOM      9  O   LIG    1       -9.645  -2.542   0.905  0.00  0.00    -0.320 OA
ENDBRANCH   2   9
ENDBRANCH   1   5
BRANCH   1  10
ATOM     10  N   LIG    1       -4.589   1.174   1.060  0.00  0.00    -0.510 NA
ATOM     11  C   LIG    1       -3.305   1.896   0.867  0.00  0.00    +0.170 C 
ATOM     12  C   LIG    1       -3.490   3.181   1.713  0.00  0.00    +0.030 C 
ATOM     13  C   LIG    1       -4.979   3.533   1.486  0.00  0.00    +0.010 C 
ATOM     14  C   LIG    1       -5.641   2.213   1.048  0.00  0.00    +0.170 C 
ENDBRANCH   1  10
BRANCH   1  15
ATOM     15  C   LIG    1       -3.650  -0.810  -0.026  0.00  0.00    +0.290 C 
BRANCH  15  16
ATOM     16  N   LIG    1       -3.799  -1.711  -1.171  0.00  0.00    -0.720 N 
ATOM     17  H   LIG    1       -4.587  -1.653  -1.734  0.00  0.00    +0.400 HD
ATOM     18  C   LIG    1       -2.842  -2.620  -1.443  0.00  0.00    +0.560 C 
ATOM     19  O   LIG    1       -1.855  -2.693  -0.737  0.00  0.00    -0.530 OA
BRANCH  18  20
ATOM     20  C   LIG    1       -2.993  -3.529  -2.599  0.00  0.00    -0.140 A 
ATOM     21  C   LIG    1       -4.125  -3.449  -3.412  0.00  0.00    +0.040 A 
ATOM     22  C   LIG    1       -4.257  -4.300  -4.488  0.00  0.00    +0.020 A 
ATOM     23  C   LIG    1       -3.273  -5.235  -4.768  0.00  0.00    -0.070 A 
ATOM     24  C   LIG    1       -3.189  -6.265  -5.875  0.00  0.00    +0.080 C 
ATOM     25  C   LIG    1       -2.116  -7.272  -5.409  0.00  0.00    +0.030 C 
ATOM     26  C   LIG    1       -1.234  -6.412  -4.480  0.00  0.00    +0.080 C 
ATOM     27  C   LIG    1       -2.148  -5.320  -3.966  0.00  0.00    -0.100 A 
ATOM     28  C   LIG    1       -2.005  -4.471  -2.884  0.00  0.00    +0.080 A 
ENDBRANCH  18  20
ENDBRANCH  15  16
ENDBRANCH   1  15
TORSDOF 6
