REMARK  Name = ZINCqH00000013uG.0
REMARK                            x       y       z     vdW  Elec       q    Type
REMARK                         _______ _______ _______ _____ _____    ______ ____
ROOT
ATOM      1  N   LIG    1       -5.741   1.347   2.946  0.00  0.00    -0.540 NA
ATOM      2  C   LIG    1       -5.694   0.096   3.713  0.00  0.00    +0.190 C 
ATOM      3  C   LIG    1       -6.199   0.349   5.136  0.00  0.00    +0.020 C 
ATOM      4  C   LIG    1       -7.634   0.879   5.076  0.00  0.00    +0.250 C 
ATOM      5  C   LIG    1       -7.663   2.156   4.231  0.00  0.00    +0.040 C 
ATOM      6  C   LIG    1       -7.116   1.850   2.835  0.00  0.00    +0.190 C 
ENDROOT
BRANCH   4   7
ATOM      7  N   LIG    1       -8.103   1.178   6.431  0.00  0.00    -0.740 N 
ATOM      8  H   LIG    1       -8.028   2.079   6.783  0.00  0.00    +0.400 HD
ATOM      9  C   LIG    1       -8.640   0.201   7.189  0.00  0.00    +0.700 C 
ATOM     10  N   LIG    1       -9.072   0.476   8.436  0.00  0.00    -0.690 N 
ATOM     11  H   LIG    1       -8.927   1.357   8.816  0.00  0.00    +0.410 HD
ATOM     12  O   LIG    1       -8.735  -0.928   6.748  0.00  0.00    -0.570 OA
BRANCH  10  13
ATOM     13  C   LIG    1       -9.730  -0.508   9.182  0.00  0.00    +0.160 A 
ATOM     14  C   LIG    1      -10.539  -1.440   8.544  0.00  0.00    +0.010 A 
ATOM     15  C   LIG    1      -11.182  -2.414   9.282  0.00  0.00    +0.030 A 
ATOM     16  C   LIG    1      -11.030  -2.455  10.656  0.00  0.00    -0.020 A 
ATOM     17  C   LIG    1      -10.230  -1.526  11.295  0.00  0.00    +0.030 A 
ATOM     18  C   LIG    1       -9.580  -0.553  10.561  0.00  0.00    -0.030 A 
ENDBRANCH  10  13
ENDBRANCH   4   7
BRANCH   1  19
ATOM     19  C   LIG    1       -5.135   1.174   1.619  0.00  0.00    +0.340 C 
BRANCH  19  23
ATOM     20  C   LIG    1       -1.517   1.178   1.953  0.00  0.00    -0.030 A 
ATOM     21  C   LIG    1       -1.789  -0.136   2.007  0.00  0.00    +0.140 A 
ATOM     22  N   LIG    1       -3.121  -0.283   1.893  0.00  0.00    -0.470 NA
ATOM     23  C   LIG    1       -3.662   0.896   1.772  0.00  0.00    +0.190 A 
ATOM     24  O   LIG    1       -2.693   1.821   1.812  0.00  0.00    -0.190 OA
BRANCH  20  26
ATOM     25  C   LIG    1        0.722   1.304   0.895  0.00  0.00    +0.050 C 
ATOM     26  C   LIG    1       -0.154   1.815   2.041  0.00  0.00    +0.020 C 
ATOM     27  C   LIG    1       -0.294   3.335   1.937  0.00  0.00    +0.050 C 
ATOM     28  C   LIG    1        0.493   1.453   3.379  0.00  0.00    +0.050 C 
ENDBRANCH  20  26
ENDBRANCH  19  23
ENDBRANCH   1  19
TORSDOF 5
