REMARK  Name = ZINCpe000000Wm7s.0
REMARK                            x       y       z     vdW  Elec       q    Type
REMARK                         _______ _______ _______ _____ _____    ______ ____
ROOT
ATOM      1  C   LIG    1        2.505   1.082   0.174  0.00  0.00    +0.290 A 
ATOM      2  N   LIG    1        2.664  -0.208   0.176  0.00  0.00    -0.320 NA
ATOM      3  O   LIG    1        3.808  -0.515  -0.074  0.00  0.00    +0.000 OA
ATOM      4  C   LIG    1        4.563   0.576  -0.277  0.00  0.00    +0.570 A 
ATOM      5  O   LIG    1        5.749   0.602  -0.546  0.00  0.00    -0.470 OA
ATOM      6  N   LIG    1        3.740   1.641  -0.128  0.00  0.00    -0.540 N 
ENDROOT
BRANCH   1  10
ATOM      7  C   LIG    1       -1.109   3.195   0.928  0.00  0.00    +0.130 A 
ATOM      8  C   LIG    1        0.083   3.889   0.782  0.00  0.00    -0.020 A 
ATOM      9  C   LIG    1        1.257   3.207   0.537  0.00  0.00    +0.040 A 
ATOM     10  C   LIG    1        1.247   1.815   0.436  0.00  0.00    -0.030 A 
ATOM     11  C   LIG    1        0.048   1.116   0.583  0.00  0.00    +0.020 A 
ATOM     12  C   LIG    1       -1.126   1.805   0.822  0.00  0.00    +0.110 A 
BRANCH   7  14
ATOM     13  C   LIG    1       -2.173   5.294   1.259  0.00  0.00    +0.250 C 
ATOM     14  O   LIG    1       -2.262   3.871   1.169  0.00  0.00    -0.300 OA
ENDBRANCH   7  14
BRANCH  12  15
ATOM     15  O   LIG    1       -2.297   1.127   0.960  0.00  0.00    -0.300 OA
ATOM     16  C   LIG    1       -2.239  -0.296   0.846  0.00  0.00    +0.250 C 
ENDBRANCH  12  15
ENDBRANCH   1  10
BRANCH   6  17
ATOM     17  C   LIG    1        4.076   3.061  -0.253  0.00  0.00    +0.390 C 
BRANCH  17  18
ATOM     18  C   LIG    1        4.389   3.626   1.109  0.00  0.00    +0.490 C 
ATOM     19  N   LIG    1        4.727   4.924   1.238  0.00  0.00    -0.610 N 
ATOM     20  C   LIG    1        4.791   5.786   0.056  0.00  0.00    +0.300 C 
ATOM     21  O   LIG    1        4.336   2.912   2.088  0.00  0.00    -0.510 OA
BRANCH  19  22
ATOM     22  C   LIG    1        5.031   5.473   2.562  0.00  0.00    +0.320 C 
BRANCH  22  23
ATOM     23  C   LIG    1        6.527   5.319   2.847  0.00  0.00    +0.180 C 
BRANCH  23  24
ATOM     24  C   LIG    1        6.832   5.870   4.177  0.00  0.00    +0.210 C 
ATOM     25  N   LIG    1        7.067   6.296   5.204  0.00  0.00    -0.420 NA
ENDBRANCH  23  24
ENDBRANCH  22  23
ENDBRANCH  19  22
ENDBRANCH  17  18
ENDBRANCH   6  17
TORSDOF 8
