REMARK  Name = ZINCrD00000DaQlp.0
REMARK                            x       y       z     vdW  Elec       q    Type
REMARK                         _______ _______ _______ _____ _____    ______ ____
ROOT
ATOM      1  N   LIG    1       -5.244   1.089  -4.458  0.00  0.00    -0.530 NA
ATOM      2  C   LIG    1       -5.960   1.644  -5.617  0.00  0.00    +0.200 C 
ATOM      3  C   LIG    1       -7.289   0.905  -5.772  0.00  0.00    +0.140 C 
ATOM      4  C   LIG    1       -8.022   0.887  -4.455  0.00  0.00    +0.090 A 
ATOM      5  N   LIG    1       -9.315   0.603  -4.445  0.00  0.00    -0.230 NA
ATOM      6  N   LIG    1      -10.003   0.562  -3.364  0.00  0.00    -0.230 NA
ATOM      7  C   LIG    1       -9.463   0.802  -2.176  0.00  0.00    +0.110 A 
ATOM      8  C   LIG    1       -8.104   1.113  -2.089  0.00  0.00    +0.040 A 
ATOM      9  C   LIG    1       -7.371   1.155  -3.267  0.00  0.00    -0.070 A 
ATOM     10  C   LIG    1       -5.907   1.489  -3.211  0.00  0.00    +0.250 C 
ENDROOT
BRANCH   7  11
ATOM     11  C   LIG    1      -10.296   0.741  -0.950  0.00  0.00    -0.020 A 
ATOM     12  C   LIG    1      -11.651   0.431  -1.040  0.00  0.00    +0.060 A 
ATOM     13  C   LIG    1      -12.423   0.375   0.103  0.00  0.00    +0.050 A 
ATOM     14  C   LIG    1      -11.854   0.625   1.338  0.00  0.00    +0.000 A 
ATOM     15  C   LIG    1      -10.506   0.933   1.435  0.00  0.00    +0.100 A 
ATOM     16  F   LIG    1       -9.955   1.176   2.645  0.00  0.00    -0.140 F 
ATOM     17  C   LIG    1       -9.724   0.988   0.297  0.00  0.00    +0.000 A 
ENDBRANCH   7  11
BRANCH   1  18
ATOM     18  C   LIG    1       -3.834   1.504  -4.461  0.00  0.00    +0.310 C 
BRANCH  18  22
ATOM     19  C   LIG    1       -1.962  -0.191  -1.417  0.00  0.00    -0.210 A 
ATOM     20  C   LIG    1       -1.879  -0.916  -2.536  0.00  0.00    +0.240 A 
ATOM     21  N   LIG    1       -2.496  -0.389  -3.575  0.00  0.00    -0.450 NA
ATOM     22  C   LIG    1       -3.085   0.745  -3.397  0.00  0.00    +0.050 A 
ATOM     23  S   LIG    1       -2.893   1.261  -1.778  0.00  0.00    +0.110 S 
BRANCH  19  24
ATOM     24  C   LIG    1       -1.360  -0.549  -0.083  0.00  0.00    +0.280 C 
BRANCH  24  26
ATOM     25  C   LIG    1       -0.018   1.465   0.010  0.00  0.00    +0.190 C 
ATOM     26  N   LIG    1        0.002  -0.004   0.002  0.00  0.00    -0.540 NA
ATOM     27  C   LIG    1        0.706  -0.527   1.180  0.00  0.00    +0.190 C 
ENDBRANCH  24  26
ENDBRANCH  19  24
ENDBRANCH  18  22
ENDBRANCH   1  18
TORSDOF 5
