REMARK  Name = ZINCpe000000YiZo.0
REMARK                            x       y       z     vdW  Elec       q    Type
REMARK                         _______ _______ _______ _____ _____    ______ ____
ROOT
ATOM      1  C   LIG    1       -1.735   5.351   0.047  0.00  0.00    +0.560 A 
ATOM      2  N   LIG    1       -2.229   4.130   0.045  0.00  0.00    -0.530 NA
ATOM      3  C   LIG    1       -1.238   3.237   0.031  0.00  0.00    +0.360 A 
ATOM      4  C   LIG    1       -0.039   3.942   0.024  0.00  0.00    -0.180 A 
ATOM      5  C   LIG    1        1.174   3.232   0.008  0.00  0.00    +0.600 A 
ATOM      6  N   LIG    1        1.150   1.883   0.001  0.00  0.00    -0.650 N 
ATOM      7  H   LIG    1        1.986   1.391  -0.009  0.00  0.00    +0.440 HD
ATOM      8  C   LIG    1       -0.014   1.212   0.009  0.00  0.00    +0.710 A 
ATOM      9  O   LIG    1        0.002  -0.004   0.002  0.00  0.00    -0.540 OA
ATOM     10  O   LIG    1        2.237   3.829   0.002  0.00  0.00    -0.530 OA
ATOM     11  N   LIG    1       -1.199   1.853   0.018  0.00  0.00    -0.510 N 
ATOM     12  C   LIG    1       -2.446   1.085   0.019  0.00  0.00    +0.350 C 
ATOM     13  N   LIG    1       -0.377   5.289   0.034  0.00  0.00    -0.450 N 
ATOM     14  C   LIG    1        0.550   6.423   0.031  0.00  0.00    +0.340 C 
ENDROOT
BRANCH   1  15
ATOM     15  N   LIG    1       -2.478   6.510   0.061  0.00  0.00    -0.690 N 
ATOM     16  H   LIG    1       -2.032   7.372   0.061  0.00  0.00    +0.410 HD
BRANCH  15  17
ATOM     17  C   LIG    1       -3.941   6.442   0.074  0.00  0.00    +0.360 C 
BRANCH  17  21
ATOM     18  C   LIG    1       -6.808   9.640  -2.509  0.00  0.00    +0.360 C 
ATOM     19  N   LIG    1       -5.761   9.096  -1.641  0.00  0.00    -0.370 N 
ATOM     20  C   LIG    1       -5.576   7.793  -1.341  0.00  0.00    +0.260 A 
ATOM     21  C   LIG    1       -4.508   7.708  -0.514  0.00  0.00    -0.250 A 
ATOM     22  C   LIG    1       -4.027   9.003  -0.298  0.00  0.00    +0.240 A 
ATOM     23  N   LIG    1       -4.773   9.836  -0.978  0.00  0.00    -0.290 NA
ENDBRANCH  17  21
BRANCH  17  24
ATOM     24  C   LIG    1       -4.431   6.284   1.514  0.00  0.00    -0.070 C 
ATOM     25  C   LIG    1       -3.856   4.999   2.112  0.00  0.00    +0.040 C 
ATOM     26  C   LIG    1       -5.960   6.213   1.528  0.00  0.00    +0.040 C 
ATOM     27  C   LIG    1       -3.969   7.484   2.344  0.00  0.00    +0.020 C 
ENDBRANCH  17  24
ENDBRANCH  15  17
ENDBRANCH   1  15
TORSDOF 4
