REMARK  Name = ZINCrH000004rvuN.0
REMARK                            x       y       z     vdW  Elec       q    Type
REMARK                         _______ _______ _______ _____ _____    ______ ____
ROOT
ATOM      1  C   LIG    1       -4.872   0.909   0.244  0.00  0.00    +0.070 C 
ENDROOT
BRANCH   1   2
ATOM      2  C   LIG    1       -3.586   1.687   0.129  0.00  0.00    +0.520 C 
ATOM      3  N   LIG    1       -2.412   1.036   0.018  0.00  0.00    -0.670 N 
ATOM      4  H   LIG    1       -2.399   0.068  -0.053  0.00  0.00    +0.410 HD
ATOM      5  O   LIG    1       -3.609   2.900   0.137  0.00  0.00    -0.510 OA
BRANCH   3   6
ATOM      6  C   LIG    1       -1.212   1.754   0.007  0.00  0.00    +0.150 A 
ATOM      7  C   LIG    1       -0.091   1.218   0.601  0.00  0.00    -0.010 A 
ATOM      8  C   LIG    1        1.114   1.939   0.583  0.00  0.00    -0.030 A 
ATOM      9  C   LIG    1        2.281   1.423   1.172  0.00  0.00    +0.020 A 
ATOM     10  C   LIG    1        3.432   2.149   1.135  0.00  0.00    +0.010 A 
ATOM     11  C   LIG    1        3.472   3.399   0.521  0.00  0.00    +0.000 A 
ATOM     12  C   LIG    1        2.361   3.930  -0.060  0.00  0.00    +0.030 A 
ATOM     13  C   LIG    1        1.155   3.211  -0.042  0.00  0.00    -0.060 A 
ATOM     14  C   LIG    1       -0.010   3.731  -0.633  0.00  0.00    +0.040 A 
ATOM     15  C   LIG    1       -1.164   3.013  -0.602  0.00  0.00    +0.020 A 
ENDBRANCH   3   6
ENDBRANCH   1   2
BRANCH   1  16
ATOM     16  C   LIG    1       -6.048   1.881   0.356  0.00  0.00    +0.300 C 
BRANCH  16  17
ATOM     17  N   LIG    1       -7.298   1.125   0.468  0.00  0.00    -1.120 NA
ATOM     18  H   LIG    1       -7.314   0.180   0.247  0.00  0.00    +0.420 HD
BRANCH  17  19
ATOM     19  S   LIG    1       -8.682   1.882   0.971  0.00  0.00    +2.700 S 
ATOM     20  O   LIG    1       -8.338   2.611   2.142  0.00  0.00    -0.950 OA
ATOM     21  O   LIG    1       -9.710   0.901   0.941  0.00  0.00    -0.960 OA
BRANCH  19  26
ATOM     22  C   LIG    1      -10.109   5.973  -3.227  0.00  0.00    +0.100 C 
ATOM     23  C   LIG    1       -9.752   4.951  -2.179  0.00  0.00    -0.030 A 
ATOM     24  C   LIG    1      -10.245   3.664  -2.273  0.00  0.00    -0.010 A 
ATOM     25  C   LIG    1       -9.918   2.726  -1.311  0.00  0.00    +0.120 A 
ATOM     26  C   LIG    1       -9.098   3.076  -0.255  0.00  0.00    -0.680 A 
ATOM     27  C   LIG    1       -8.609   4.366  -0.158  0.00  0.00    +0.120 A 
ATOM     28  C   LIG    1       -8.932   5.302  -1.123  0.00  0.00    -0.110 A 
ATOM     29  C   LIG    1       -8.394   6.706  -1.020  0.00  0.00    +0.100 C 
ENDBRANCH  19  26
ENDBRANCH  17  19
ENDBRANCH  16  17
ENDBRANCH   1  16
TORSDOF 6
