REMARK  Name = ZINCvU00000007C2.0
REMARK                            x       y       z     vdW  Elec       q    Type
REMARK                         _______ _______ _______ _____ _____    ______ ____
ROOT
ATOM      1  C   LIG    1       -2.557  -0.429  -0.011  0.00  0.00    +0.520 C 
ATOM      2  O   LIG    1       -1.535  -1.078  -0.114  0.00  0.00    -0.490 OA
ENDROOT
BRANCH   1   3
ATOM      3  C   LIG    1       -2.498   1.047  -0.008  0.00  0.00    -0.070 A 
ATOM      4  C   LIG    1       -3.653   1.815  -0.000  0.00  0.00    +0.070 A 
ATOM      5  C   LIG    1       -3.550   3.217   0.002  0.00  0.00    +0.230 A 
ATOM      6  N   LIG    1       -2.385   3.837   0.007  0.00  0.00    -0.440 NA
ATOM      7  C   LIG    1       -1.226   3.175  -0.005  0.00  0.00    +0.130 A 
ATOM      8  C   LIG    1        0.001   3.863  -0.015  0.00  0.00    +0.050 A 
ATOM      9  C   LIG    1        1.168   3.162  -0.028  0.00  0.00    +0.040 A 
ATOM     10  C   LIG    1        1.170   1.770  -0.032  0.00  0.00    +0.030 A 
ATOM     11  C   LIG    1       -0.001   1.069  -0.022  0.00  0.00    +0.050 A 
ATOM     12  C   LIG    1       -1.218   1.758  -0.014  0.00  0.00    -0.060 A 
BRANCH   5  13
ATOM     13  C   LIG    1       -4.785   4.023   0.011  0.00  0.00    -0.170 A 
ATOM     14  C   LIG    1       -4.836   5.372   0.020  0.00  0.00    +0.070 A 
ATOM     15  C   LIG    1       -6.109   5.900   0.023  0.00  0.00    +0.010 A 
ATOM     16  C   LIG    1       -7.097   4.998   0.027  0.00  0.00    -0.030 A 
ATOM     17  S   LIG    1       -6.420   3.375   0.020  0.00  0.00    +0.140 S 
ENDBRANCH   5  13
ENDBRANCH   1   3
BRANCH   1  18
ATOM     18  O   LIG    1       -3.744  -1.056   0.101  0.00  0.00    -0.320 OA
BRANCH  18  19
ATOM     19  C   LIG    1       -3.727  -2.508   0.091  0.00  0.00    +0.190 C 
ATOM     20  C   LIG    1       -3.581  -3.026   1.524  0.00  0.00    +0.080 C 
BRANCH  19  23
ATOM     21  N   LIG    1       -5.222  -4.349  -0.611  0.00  0.00    -0.670 N 
ATOM     22  H   LIG    1       -4.579  -4.974  -0.240  0.00  0.00    +0.410 HD
ATOM     23  C   LIG    1       -5.014  -3.022  -0.500  0.00  0.00    +0.520 C 
ATOM     24  O   LIG    1       -5.863  -2.242  -0.876  0.00  0.00    -0.490 OA
BRANCH  21  28
ATOM     25  C   LIG    1       -8.626  -5.770  -2.548  0.00  0.00    -0.090 A 
ATOM     26  C   LIG    1       -8.012  -4.612  -2.991  0.00  0.00    +0.030 A 
ATOM     27  C   LIG    1       -6.884  -4.139  -2.351  0.00  0.00    +0.010 A 
ATOM     28  C   LIG    1       -6.365  -4.826  -1.261  0.00  0.00    +0.140 A 
ATOM     29  C   LIG    1       -6.981  -5.991  -0.823  0.00  0.00    -0.010 A 
ATOM     30  C   LIG    1       -8.112  -6.457  -1.464  0.00  0.00    +0.030 A 
BRANCH  25  32
ATOM     31  C   LIG    1       -9.444  -7.237  -4.372  0.00  0.00    +0.030 C 
ATOM     32  C   LIG    1       -9.857  -6.284  -3.249  0.00  0.00    +0.050 C 
ENDBRANCH  25  32
ENDBRANCH  21  28
ENDBRANCH  19  23
ENDBRANCH  18  19
ENDBRANCH   1  18
TORSDOF 7
