REMARK  Name = ZINCpe00000bI455.0
REMARK                            x       y       z     vdW  Elec       q    Type
REMARK                         _______ _______ _______ _____ _____    ______ ____
ROOT
ATOM      1  N   LIG    1       -3.291   2.939  -2.803  0.00  0.00    -0.390 N 
ATOM      2  N   LIG    1       -4.295   3.055  -3.781  0.00  0.00    -0.070 NA
ATOM      3  N   LIG    1       -4.601   1.857  -4.145  0.00  0.00    -0.030 NA
ATOM      4  N   LIG    1       -3.892   1.001  -3.502  0.00  0.00    -0.300 NA
ATOM      5  C   LIG    1       -3.080   1.610  -2.666  0.00  0.00    +0.410 A 
ENDROOT
BRANCH   5   6
ATOM      6  N   LIG    1       -2.176   1.005  -1.811  0.00  0.00    -0.440 N 
ATOM      7  C   LIG    1       -0.799   1.412  -2.126  0.00  0.00    +0.160 C 
ATOM      8  C   LIG    1        0.174   0.667  -1.208  0.00  0.00    +0.260 C 
ATOM      9  O   LIG    1       -0.159   0.944   0.156  0.00  0.00    -0.360 OA
ATOM     10  C   LIG    1       -1.496   0.603   0.501  0.00  0.00    +0.090 C 
ATOM     11  C   LIG    1       -1.776   0.954   1.980  0.00  0.00    +0.060 C 
ATOM     12  C   LIG    1       -1.246  -0.319   2.689  0.00  0.00    +0.210 C 
ATOM     13  O   LIG    1       -1.569  -1.405   1.805  0.00  0.00    -0.380 OA
ATOM     14  C   LIG    1       -1.700  -0.919   0.462  0.00  0.00    +0.210 C 
ATOM     15  C   LIG    1       -2.497   1.305  -0.406  0.00  0.00    +0.200 C 
ENDBRANCH   5   6
BRANCH   1  16
ATOM     16  C   LIG    1       -2.618   4.025  -2.087  0.00  0.00    +0.380 C 
BRANCH  16  20
ATOM     17  C   LIG    1       -0.375   6.382  -4.855  0.00  0.00    -0.070 A 
ATOM     18  C   LIG    1       -1.728   6.614  -4.687  0.00  0.00    +0.030 A 
ATOM     19  C   LIG    1       -2.453   5.851  -3.791  0.00  0.00    +0.050 A 
ATOM     20  C   LIG    1       -1.827   4.857  -3.063  0.00  0.00    -0.120 A 
ATOM     21  C   LIG    1       -0.473   4.629  -3.228  0.00  0.00    +0.020 A 
ATOM     22  C   LIG    1        0.252   5.388  -4.127  0.00  0.00    +0.030 A 
BRANCH  17  23
ATOM     23  C   LIG    1        0.416   7.213  -5.832  0.00  0.00    +0.220 C 
BRANCH  23  25
ATOM     24  C   LIG    1        1.710   9.223  -6.008  0.00  0.00    +0.200 C 
ATOM     25  O   LIG    1        0.939   8.364  -5.165  0.00  0.00    -0.380 OA
ENDBRANCH  23  25
ENDBRANCH  17  23
ENDBRANCH  16  20
ENDBRANCH   1  16
TORSDOF 5
