REMARK  Name = ZINCpk00000y6xj1.0
REMARK                            x       y       z     vdW  Elec       q    Type
REMARK                         _______ _______ _______ _____ _____    ______ ____
ROOT
ATOM      1  C   LIG    1        8.171  -1.313  -0.845  0.00  0.00    +0.150 C 
ATOM      2  C   LIG    1        7.281  -0.199  -0.235  0.00  0.00    +0.070 C 
ATOM      3  C   LIG    1        5.931  -0.937  -0.061  0.00  0.00    +0.170 C 
ATOM      4  N   LIG    1        5.827  -1.823  -1.240  0.00  0.00    -0.460 N 
ATOM      5  C   LIG    1        7.188  -2.090  -1.746  0.00  0.00    +0.210 C 
ENDROOT
BRANCH   4   6
ATOM      6  C   LIG    1        5.174  -3.002  -0.919  0.00  0.00    +0.350 A 
ATOM      7  C   LIG    1        4.962  -3.983  -1.890  0.00  0.00    -0.090 A 
ATOM      8  C   LIG    1        4.310  -5.143  -1.519  0.00  0.00    +0.200 A 
ATOM      9  N   LIG    1        3.901  -5.282  -0.266  0.00  0.00    -0.540 NA
ATOM     10  C   LIG    1        4.113  -4.336   0.627  0.00  0.00    +0.530 A 
ATOM     11  C   LIG    1        4.061  -6.234  -2.528  0.00  0.00    +0.150 C 
ATOM     12  N   LIG    1        4.734  -3.216   0.318  0.00  0.00    -0.570 NA
ENDBRANCH   4   6
BRANCH   1  14
ATOM     13  C   LIG    1       10.417  -1.539  -1.652  0.00  0.00    +0.210 C 
ATOM     14  O   LIG    1        9.228  -0.747  -1.623  0.00  0.00    -0.370 OA
ENDBRANCH   1  14
BRANCH   3  15
ATOM     15  C   LIG    1        4.774   0.064  -0.044  0.00  0.00    +0.310 C 
BRANCH  15  16
ATOM     16  N   LIG    1        3.501  -0.661  -0.035  0.00  0.00    -0.680 N 
ATOM     17  H   LIG    1        3.495  -1.631  -0.041  0.00  0.00    +0.420 HD
BRANCH  16  18
ATOM     18  C   LIG    1        2.306   0.038  -0.020  0.00  0.00    +0.580 A 
ATOM     19  N   LIG    1        2.334   1.361  -0.013  0.00  0.00    -0.550 NA
ATOM     20  C   LIG    1        1.203   2.063   0.002  0.00  0.00    +0.290 A 
ATOM     21  C   LIG    1       -0.017   1.382   0.010  0.00  0.00    -0.090 A 
ATOM     22  C   LIG    1        0.002  -0.004   0.002  0.00  0.00    +0.230 A 
ATOM     23  C   LIG    1       -1.288  -0.783   0.010  0.00  0.00    +0.160 C 
ATOM     24  N   LIG    1        1.164  -0.635  -0.013  0.00  0.00    -0.560 NA
BRANCH  20  25
ATOM     25  C   LIG    1        1.236   3.495   0.009  0.00  0.00    +0.260 C 
ATOM     26  N   LIG    1        1.262   4.631   0.014  0.00  0.00    -0.370 NA
ENDBRANCH  20  25
ENDBRANCH  16  18
ENDBRANCH  15  16
ENDBRANCH   3  15
TORSDOF 6
