REMARK  Name = ZINCpk00000y6vtm.0
REMARK                            x       y       z     vdW  Elec       q    Type
REMARK                         _______ _______ _______ _____ _____    ______ ____
ROOT
ATOM      1  C   LIG    1       -4.272   4.536   1.723  0.00  0.00    +0.300 C 
ENDROOT
BRANCH   1   2
ATOM      2  C   LIG    1       -2.765   4.452   1.472  0.00  0.00    +0.000 C 
ATOM      3  C   LIG    1       -2.130   5.861   1.437  0.00  0.00    +0.060 C 
ATOM      4  C   LIG    1       -2.138   6.235  -0.029  0.00  0.00    +0.520 C 
ATOM      5  N   LIG    1       -2.337   5.140  -0.786  0.00  0.00    -0.620 N 
ATOM      6  C   LIG    1       -2.411   5.146  -2.249  0.00  0.00    +0.300 C 
ATOM      7  O   LIG    1       -1.988   7.359  -0.459  0.00  0.00    -0.510 OA
ATOM      8  C   LIG    1       -2.471   3.938   0.045  0.00  0.00    +0.300 C 
BRANCH   8   9
ATOM      9  C   LIG    1       -1.188   3.147   0.029  0.00  0.00    -0.160 A 
ATOM     10  C   LIG    1       -1.218   1.762   0.017  0.00  0.00    +0.080 A 
ATOM     11  C   LIG    1       -0.013   1.076   0.008  0.00  0.00    -0.030 A 
ATOM     12  C   LIG    1        1.169   1.792   0.001  0.00  0.00    +0.270 A 
ATOM     13  N   LIG    1        1.159   3.110   0.008  0.00  0.00    -0.480 NA
ATOM     14  C   LIG    1        0.033   3.795   0.022  0.00  0.00    +0.270 A 
ENDBRANCH   8   9
ENDBRANCH   1   2
BRANCH   1  15
ATOM     15  N   LIG    1       -4.514   4.911   3.119  0.00  0.00    -0.710 N 
ATOM     16  H   LIG    1       -3.766   5.061   3.717  0.00  0.00    +0.420 HD
BRANCH  15  25
ATOM     17  C   LIG    1       -9.356   4.764   2.341  0.00  0.00    +0.160 C 
ATOM     18  C   LIG    1       -8.170   4.989   3.243  0.00  0.00    +0.270 A 
ATOM     19  N   LIG    1       -8.360   5.326   4.501  0.00  0.00    -0.500 NA
ATOM     20  C   LIG    1       -7.328   5.533   5.327  0.00  0.00    +0.490 A 
ATOM     21  N   LIG    1       -7.261   5.873   6.610  0.00  0.00    -0.540 NA
ATOM     22  C   LIG    1       -5.991   5.958   6.986  0.00  0.00    +0.490 A 
ATOM     23  N   LIG    1       -5.212   5.678   5.970  0.00  0.00    -0.350 NA
ATOM     24  N   LIG    1       -6.044   5.397   4.879  0.00  0.00    -0.360 N 
ATOM     25  C   LIG    1       -5.804   5.049   3.581  0.00  0.00    +0.490 A 
ATOM     26  C   LIG    1       -6.880   4.844   2.739  0.00  0.00    -0.150 A 
ENDBRANCH  15  25
ENDBRANCH   1  15
TORSDOF 4
