REMARK  Name = ZINCrH000004pDge.0
REMARK                            x       y       z     vdW  Elec       q    Type
REMARK                         _______ _______ _______ _____ _____    ______ ____
ROOT
ATOM      1  N   LIG    1       -3.692   3.186  -0.058  0.00  0.00    -0.610 N 
ATOM      2  C   LIG    1       -2.533   3.873  -0.030  0.00  0.00    +0.570 C 
ATOM      3  O   LIG    1       -2.545   5.079   0.121  0.00  0.00    -0.520 OA
ATOM      4  C   LIG    1       -3.676   1.721  -0.057  0.00  0.00    +0.320 C 
ENDROOT
BRANCH   2   5
ATOM      5  C   LIG    1       -1.247   3.159  -0.183  0.00  0.00    -0.120 A 
ATOM      6  C   LIG    1       -1.188   1.776  -0.010  0.00  0.00    +0.040 A 
ATOM      7  C   LIG    1        0.016   1.117  -0.149  0.00  0.00    +0.040 A 
ATOM      8  C   LIG    1        1.161   1.823  -0.470  0.00  0.00    -0.090 A 
ATOM      9  C   LIG    1        1.109   3.194  -0.648  0.00  0.00    +0.020 A 
ATOM     10  C   LIG    1       -0.088   3.866  -0.506  0.00  0.00    +0.080 A 
BRANCH   8  11
ATOM     11  C   LIG    1        2.472   1.096  -0.627  0.00  0.00    +0.380 C 
BRANCH  11  12
ATOM     12  N   LIG    1        2.634   0.676  -2.021  0.00  0.00    -0.380 N 
ATOM     13  C   LIG    1        3.667   0.959  -2.833  0.00  0.00    +0.470 A 
ATOM     14  N   LIG    1        3.436   0.401  -3.993  0.00  0.00    -0.550 NA
ATOM     15  C   LIG    1        2.267  -0.237  -3.963  0.00  0.00    +0.420 A 
ATOM     16  N   LIG    1        1.738  -0.098  -2.776  0.00  0.00    -0.310 NA
ENDBRANCH  11  12
ENDBRANCH   8  11
ENDBRANCH   2   5
BRANCH   1  18
ATOM     17  C   LIG    1       -5.859   3.411   1.054  0.00  0.00    +0.070 C 
ATOM     18  C   LIG    1       -4.969   3.904  -0.089  0.00  0.00    +0.350 C 
BRANCH  18  19
ATOM     19  C   LIG    1       -5.656   3.650  -1.406  0.00  0.00    +0.080 A 
ATOM     20  N   LIG    1       -6.134   4.569  -2.157  0.00  0.00    -0.450 NA
ATOM     21  C   LIG    1       -6.723   4.196  -3.309  0.00  0.00    +0.080 A 
ATOM     22  C   LIG    1       -7.325   4.987  -4.309  0.00  0.00    +0.080 A 
ATOM     23  C   LIG    1       -7.870   4.404  -5.413  0.00  0.00    +0.030 A 
ATOM     24  C   LIG    1       -7.845   3.027  -5.575  0.00  0.00    +0.040 A 
ATOM     25  C   LIG    1       -7.264   2.230  -4.614  0.00  0.00    +0.060 A 
ATOM     26  C   LIG    1       -6.701   2.807  -3.479  0.00  0.00    -0.190 A 
ATOM     27  S   LIG    1       -5.887   2.102  -2.086  0.00  0.00    +0.110 S 
ENDBRANCH  18  19
ENDBRANCH   1  18
TORSDOF 5
