REMARK  Name = ZINCtV00000L6ki6.0
REMARK                            x       y       z     vdW  Elec       q    Type
REMARK                         _______ _______ _______ _____ _____    ______ ____
ROOT
ATOM      1  N   LIG    1        3.619   2.356  -0.124  0.00  0.00    -0.470 N 
ATOM      2  C   LIG    1        4.546   1.332  -0.098  0.00  0.00    +0.070 A 
ATOM      3  C   LIG    1        5.931   1.284  -0.171  0.00  0.00    +0.010 A 
ATOM      4  C   LIG    1        6.576   0.066  -0.122  0.00  0.00    +0.030 A 
ATOM      5  C   LIG    1        5.851  -1.110  -0.001  0.00  0.00    +0.000 A 
ATOM      6  C   LIG    1        4.487  -1.083   0.073  0.00  0.00    +0.070 A 
ATOM      7  C   LIG    1        3.810   0.140   0.025  0.00  0.00    +0.050 A 
ATOM      8  N   LIG    1        2.500   0.481   0.073  0.00  0.00    -0.450 NA
ATOM      9  C   LIG    1        2.381   1.784  -0.011  0.00  0.00    +0.320 A 
ENDROOT
BRANCH   9  10
ATOM     10  C   LIG    1        1.101   2.524   0.008  0.00  0.00    -0.020 A 
ATOM     11  C   LIG    1        0.835   3.490  -0.963  0.00  0.00    +0.030 A 
ATOM     12  C   LIG    1       -0.361   4.176  -0.941  0.00  0.00    +0.030 A 
ATOM     13  C   LIG    1       -1.297   3.910   0.043  0.00  0.00    +0.050 A 
ATOM     14  C   LIG    1       -1.044   2.950   1.006  0.00  0.00    +0.030 A 
ATOM     15  C   LIG    1        0.152   2.259   0.998  0.00  0.00    +0.000 A 
ATOM     16 CL   LIG    1        0.471   1.059   2.212  0.00  0.00    -0.040 Cl
ENDBRANCH   9  10
BRANCH   1  17
ATOM     17  C   LIG    1        3.908   3.787  -0.247  0.00  0.00    +0.350 C 
BRANCH  17  20
ATOM     18  N   LIG    1        4.508   5.665   1.247  0.00  0.00    -0.670 N 
ATOM     19  H   LIG    1        4.460   6.253   0.478  0.00  0.00    +0.410 HD
ATOM     20  C   LIG    1        4.212   4.356   1.115  0.00  0.00    +0.490 C 
ATOM     21  O   LIG    1        4.189   3.638   2.092  0.00  0.00    -0.490 OA
BRANCH  18  27
ATOM     22  C   LIG    1        5.823   7.196   2.575  0.00  0.00    -0.100 A 
ATOM     23  C   LIG    1        6.189   7.700   3.807  0.00  0.00    +0.030 A 
ATOM     24  C   LIG    1        5.632   7.180   4.962  0.00  0.00    -0.010 A 
ATOM     25  C   LIG    1        4.704   6.159   4.886  0.00  0.00    +0.020 A 
ATOM     26  C   LIG    1        4.329   5.654   3.656  0.00  0.00    +0.020 A 
ATOM     27  C   LIG    1        4.886   6.173   2.495  0.00  0.00    +0.140 A 
BRANCH  22  29
ATOM     28  C   LIG    1        6.215   9.272   1.277  0.00  0.00    +0.030 C 
ATOM     29  C   LIG    1        6.435   7.758   1.318  0.00  0.00    +0.020 C 
ATOM     30  C   LIG    1        7.935   7.460   1.303  0.00  0.00    +0.030 C 
ENDBRANCH  22  29
ENDBRANCH  18  27
ENDBRANCH  17  20
ENDBRANCH   1  17
TORSDOF 5
