REMARK  Name = ZINCpk00000y5T6e.0
REMARK                            x       y       z     vdW  Elec       q    Type
REMARK                         _______ _______ _______ _____ _____    ______ ____
ROOT
ATOM      1  C   LIG    1       -0.459  -2.350   5.694  0.00  0.00    -0.110 A 
ATOM      2  C   LIG    1       -1.837  -2.285   5.796  0.00  0.00    +0.050 A 
ATOM      3  C   LIG    1       -2.595  -1.826   4.733  0.00  0.00    +0.000 A 
ATOM      4  C   LIG    1       -1.979  -1.430   3.563  0.00  0.00    +0.040 A 
ATOM      5  C   LIG    1       -0.589  -1.493   3.454  0.00  0.00    -0.130 A 
ATOM      6  C   LIG    1        0.169  -1.962   4.528  0.00  0.00    +0.100 A 
ENDROOT
BRANCH   5   7
ATOM      7  C   LIG    1        0.077  -1.070   2.204  0.00  0.00    +0.560 C 
ATOM      8  N   LIG    1       -0.434  -1.434   1.011  0.00  0.00    -0.600 N 
ATOM      9  C   LIG    1       -1.670  -2.232   0.927  0.00  0.00    +0.250 C 
ATOM     10  C   LIG    1       -1.417  -3.410  -0.021  0.00  0.00    +0.220 C 
ATOM     11  O   LIG    1       -0.905  -2.920  -1.262  0.00  0.00    -0.370 OA
ATOM     12  C   LIG    1        0.361  -2.261  -1.153  0.00  0.00    +0.230 C 
ATOM     13  C   LIG    1        0.220  -1.048  -0.239  0.00  0.00    +0.110 C 
ATOM     14  C   LIG    1       -0.578   0.065  -0.940  0.00  0.00    +0.010 C 
ATOM     15  C   LIG    1        0.417   1.247  -1.007  0.00  0.00    +0.190 C 
ATOM     16  O   LIG    1        1.355   1.002   0.065  0.00  0.00    -0.350 OA
ATOM     17  C   LIG    1        1.597  -0.424   0.045  0.00  0.00    +0.230 C 
ATOM     18  O   LIG    1        1.087  -0.394   2.251  0.00  0.00    -0.500 OA
ENDBRANCH   5   7
BRANCH   1  19
ATOM     19  C   LIG    1        0.358  -2.851   6.857  0.00  0.00    +0.340 C 
BRANCH  19  25
ATOM     20  O   LIG    1        2.447  -4.321   5.540  0.00  0.00    -0.530 OA
ATOM     21  C   LIG    1        1.542  -4.902   6.102  0.00  0.00    +0.520 C 
ATOM     22  C   LIG    1        1.393  -6.405   6.180  0.00  0.00    +0.050 C 
ATOM     23  C   LIG    1       -0.078  -6.619   6.605  0.00  0.00    +0.040 C 
ATOM     24  C   LIG    1       -0.391  -5.289   7.330  0.00  0.00    +0.260 C 
ATOM     25  N   LIG    1        0.526  -4.302   6.746  0.00  0.00    -0.620 N 
ENDBRANCH  19  25
ENDBRANCH   1  19
TORSDOF 3
