REMARK  Name = ZINCrH000004qgDc.0
REMARK                            x       y       z     vdW  Elec       q    Type
REMARK                         _______ _______ _______ _____ _____    ______ ____
ROOT
ATOM      1  C   LIG    1        1.259   1.341  -0.130  0.00  0.00    +0.240 C 
ATOM      2  C   LIG    1        1.075   2.700   0.547  0.00  0.00    +0.050 C 
ENDROOT
BRANCH   1   5
ATOM      3  C   LIG    1        4.263   0.718  -0.891  0.00  0.00    +0.170 C 
ATOM      4  C   LIG    1        3.524   0.248   0.335  0.00  0.00    -0.010 A 
ATOM      5  C   LIG    1        2.238   0.513   0.662  0.00  0.00    -0.020 A 
ATOM      6  N   LIG    1        2.007  -0.099   1.829  0.00  0.00    -0.230 NA
ATOM      7  N   LIG    1        3.076  -0.711   2.200  0.00  0.00    -0.080 NA
ATOM      8  N   LIG    1        4.015  -0.531   1.338  0.00  0.00    -0.250 N 
BRANCH   8   9
ATOM      9  C   LIG    1        5.317  -1.046   1.419  0.00  0.00    +0.100 A 
ATOM     10  C   LIG    1        5.523  -2.351   1.845  0.00  0.00    +0.090 A 
ATOM     11  C   LIG    1        6.805  -2.858   1.919  0.00  0.00    +0.010 A 
ATOM     12  C   LIG    1        7.886  -2.062   1.580  0.00  0.00    +0.120 A 
ATOM     13  C   LIG    1        7.683  -0.758   1.160  0.00  0.00    +0.010 A 
ATOM     14  F   LIG    1        9.141  -2.558   1.658  0.00  0.00    -0.130 F 
ATOM     15  C   LIG    1        6.402  -0.249   1.079  0.00  0.00    +0.070 A 
ENDBRANCH   8   9
ENDBRANCH   1   5
BRANCH   1  16
ATOM     16  N   LIG    1       -0.034   0.646  -0.190  0.00  0.00    -0.670 NA
ATOM     17  H   LIG    1        0.093  -0.355  -0.175  0.00  0.00    +0.350 HD
BRANCH  16  18
ATOM     18  C   LIG    1       -0.800   1.061  -1.373  0.00  0.00    +0.220 C 
BRANCH  18  19
ATOM     19  C   LIG    1       -2.117   0.329  -1.401  0.00  0.00    -0.080 A 
ATOM     20  C   LIG    1       -2.219  -0.885  -2.054  0.00  0.00    +0.010 A 
ATOM     21  C   LIG    1       -3.425  -1.560  -2.076  0.00  0.00    +0.010 A 
ATOM     22  C   LIG    1       -4.533  -1.015  -1.453  0.00  0.00    -0.110 A 
ATOM     23  C   LIG    1       -4.432   0.202  -0.805  0.00  0.00    +0.010 A 
ATOM     24  C   LIG    1       -3.224   0.874  -0.779  0.00  0.00    +0.040 A 
BRANCH  22  25
ATOM     25  C   LIG    1       -5.849  -1.747  -1.481  0.00  0.00    +0.170 C 
ATOM     26  C   LIG    1       -5.943  -2.675  -0.268  0.00  0.00    +0.030 C 
ATOM     27  C   LIG    1       -5.946  -2.574  -2.765  0.00  0.00    +0.070 C 
BRANCH  25  28
ATOM     28  O   LIG    1       -6.921  -0.802  -1.441  0.00  0.00    -0.550 OA
ATOM     29  H   LIG    1       -6.923  -0.242  -0.653  0.00  0.00    +0.380 HD
ENDBRANCH  25  28
ENDBRANCH  22  25
ENDBRANCH  18  19
ENDBRANCH  16  18
ENDBRANCH   1  16
TORSDOF 7
