REMARK  Name = ZINCrD000000Ccoe.0
REMARK                            x       y       z     vdW  Elec       q    Type
REMARK                         _______ _______ _______ _____ _____    ______ ____
ROOT
ATOM      1  O   LIG    1       -4.869   2.196   0.770  0.00  0.00    -0.560 OA
ATOM      2  C   LIG    1       -4.189   3.072   1.269  0.00  0.00    +0.710 C 
ATOM      3  N   LIG    1       -2.846   2.960   1.279  0.00  0.00    -0.720 N 
ATOM      4  H   LIG    1       -2.304   3.659   1.678  0.00  0.00    +0.400 HD
ATOM      5  N   LIG    1       -4.779   4.155   1.813  0.00  0.00    -0.680 N 
ATOM      6  H   LIG    1       -4.242   4.821   2.271  0.00  0.00    +0.410 HD
ENDROOT
BRANCH   5   7
ATOM      7  C   LIG    1       -6.166   4.319   1.717  0.00  0.00    +0.100 A 
ATOM      8  C   LIG    1       -7.000   3.219   1.759  0.00  0.00    +0.100 A 
ATOM      9  C   LIG    1       -8.386   3.436   1.663  0.00  0.00    -0.080 A 
ATOM     10  C   LIG    1       -9.297   2.368   1.703  0.00  0.00    +0.030 A 
ATOM     11  C   LIG    1      -10.632   2.617   1.601  0.00  0.00    +0.020 A 
ATOM     12  C   LIG    1      -11.107   3.919   1.459  0.00  0.00    +0.030 A 
ATOM     13  C   LIG    1      -10.252   4.978   1.417  0.00  0.00    +0.050 A 
ATOM     14  C   LIG    1       -8.867   4.762   1.518  0.00  0.00    +0.110 A 
ATOM     15  N   LIG    1       -8.008   5.785   1.479  0.00  0.00    -0.460 NA
ATOM     16  C   LIG    1       -6.715   5.599   1.571  0.00  0.00    +0.280 A 
ENDBRANCH   5   7
BRANCH   3  17
ATOM     17  C   LIG    1       -2.205   1.783   0.688  0.00  0.00    +0.270 C 
ATOM     18  C   LIG    1       -0.778   1.595   1.259  0.00  0.00    +0.070 C 
ATOM     19  C   LIG    1       -0.011   1.081   0.021  0.00  0.00    +0.280 C 
ATOM     20  N   LIG    1       -0.750   1.591  -1.140  0.00  0.00    -0.580 N 
ATOM     21  C   LIG    1       -1.988   1.987  -0.795  0.00  0.00    +0.510 C 
ATOM     22  O   LIG    1       -2.810   2.442  -1.562  0.00  0.00    -0.490 OA
BRANCH  20  23
ATOM     23  C   LIG    1       -0.232   1.657  -2.439  0.00  0.00    +0.110 A 
ATOM     24  C   LIG    1       -0.385   0.583  -3.304  0.00  0.00    +0.060 A 
ATOM     25  C   LIG    1        0.122   0.653  -4.588  0.00  0.00    +0.020 A 
ATOM     26  C   LIG    1        0.791   1.787  -5.008  0.00  0.00    +0.060 A 
ATOM     27  C   LIG    1        0.951   2.858  -4.148  0.00  0.00    -0.010 A 
ATOM     28  C   LIG    1        0.441   2.797  -2.864  0.00  0.00    +0.110 A 
ATOM     29  F   LIG    1        0.597   3.844  -2.024  0.00  0.00    -0.130 F 
ENDBRANCH  20  23
ENDBRANCH   3  17
TORSDOF 3
