REMARK  Name = ZINCrH000004jTKp.0
REMARK                            x       y       z     vdW  Elec       q    Type
REMARK                         _______ _______ _______ _____ _____    ______ ____
ROOT
ATOM      1  C   LIG    1       -2.781   1.615  -0.065  0.00  0.00    -0.060 A 
ATOM      2  C   LIG    1       -4.082   1.956  -0.281  0.00  0.00    +0.080 A 
ATOM      3  C   LIG    1       -5.004   2.670   0.672  0.00  0.00    +0.140 C 
ATOM      4  C   LIG    1       -6.346   1.934   0.718  0.00  0.00    +0.020 C 
ATOM      5  C   LIG    1       -7.261   2.478  -0.375  0.00  0.00    +0.010 C 
ATOM      6  C   LIG    1       -6.444   2.889  -1.599  0.00  0.00    +0.030 C 
ATOM      7  C   LIG    1       -5.716   1.670  -2.170  0.00  0.00    +0.280 C 
ATOM      8  N   LIG    1       -4.405   1.538  -1.527  0.00  0.00    -0.440 N 
ATOM      9  C   LIG    1       -3.291   0.962  -2.067  0.00  0.00    +0.240 A 
ATOM     10  N   LIG    1       -2.322   1.013  -1.184  0.00  0.00    -0.440 NA
ENDROOT
BRANCH   9  11
ATOM     11  C   LIG    1       -3.191   0.381  -3.425  0.00  0.00    -0.010 A 
ATOM     12  C   LIG    1       -4.345   0.008  -4.113  0.00  0.00    +0.010 A 
ATOM     13  C   LIG    1       -4.245  -0.527  -5.381  0.00  0.00    +0.010 A 
ATOM     14  C   LIG    1       -3.004  -0.704  -5.965  0.00  0.00    +0.020 A 
ATOM     15  C   LIG    1       -1.855  -0.341  -5.285  0.00  0.00    +0.010 A 
ATOM     16  C   LIG    1       -1.942   0.201  -4.019  0.00  0.00    +0.050 A 
ENDBRANCH   9  11
BRANCH   1  19
ATOM     17  C   LIG    1       -0.003   1.136  -0.009  0.00  0.00    +0.300 C 
ATOM     18  N   LIG    1       -0.692   1.584   1.204  0.00  0.00    -0.600 N 
ATOM     19  C   LIG    1       -2.010   1.865   1.165  0.00  0.00    +0.610 C 
ATOM     20  O   LIG    1       -2.562   2.325   2.146  0.00  0.00    -0.540 OA
BRANCH  18  21
ATOM     21  C   LIG    1        0.051   1.727   2.458  0.00  0.00    +0.290 C 
BRANCH  21  22
ATOM     22  C   LIG    1        0.612   3.147   2.560  0.00  0.00    -0.060 C 
ATOM     23  C   LIG    1        1.489   3.262   3.810  0.00  0.00    +0.020 C 
ATOM     24  C   LIG    1        1.981   4.707   3.944  0.00  0.00    -0.010 C 
ATOM     25  C   LIG    1        0.774   5.646   3.993  0.00  0.00    +0.200 C 
ATOM     26  O   LIG    1       -0.016   5.466   2.816  0.00  0.00    -0.390 OA
ATOM     27  C   LIG    1       -0.543   4.147   2.661  0.00  0.00    +0.230 C 
ENDBRANCH  21  22
ENDBRANCH  18  21
ENDBRANCH   1  19
TORSDOF 4
