REMARK  Name = ZINCpk00000eaX6U.0
REMARK                            x       y       z     vdW  Elec       q    Type
REMARK                         _______ _______ _______ _____ _____    ______ ____
ROOT
ATOM      1  N   LIG    1        4.526  -2.838   4.859  0.00  0.00    -0.490 NA
ATOM      2  C   LIG    1        4.113  -1.575   5.524  0.00  0.00    +0.180 C 
ATOM      3  C   LIG    1        3.931  -0.568   4.369  0.00  0.00    +0.010 C 
ATOM      4  C   LIG    1        3.655  -1.433   3.122  0.00  0.00    +0.090 C 
ATOM      5  C   LIG    1        3.693  -2.891   3.629  0.00  0.00    +0.180 C 
ENDROOT
BRANCH   4   6
ATOM      6  C   LIG    1        2.297  -1.113   2.553  0.00  0.00    -0.230 A 
ATOM      7  C   LIG    1        2.045  -0.652   1.306  0.00  0.00    +0.230 A 
ATOM      8  N   LIG    1        0.711  -0.489   1.189  0.00  0.00    -0.360 N 
ATOM      9  N   LIG    1        0.122  -0.872   2.401  0.00  0.00    -0.290 NA
ATOM     10  C   LIG    1        1.074  -1.246   3.217  0.00  0.00    +0.230 A 
BRANCH   8  11
ATOM     11  C   LIG    1        0.002  -0.004   0.002  0.00  0.00    +0.250 C 
ATOM     12  C   LIG    1        0.718  -0.497  -1.257  0.00  0.00    +0.050 C 
ATOM     13  C   LIG    1       -0.019   1.526   0.010  0.00  0.00    +0.040 C 
ENDBRANCH   8  11
ENDBRANCH   4   6
BRANCH   1  14
ATOM     14  C   LIG    1        4.265  -3.998   5.722  0.00  0.00    +0.220 C 
BRANCH  14  17
ATOM     15  N   LIG    1        5.160  -4.952   7.821  0.00  0.00    -0.630 N 
ATOM     16  H   LIG    1        4.509  -5.665   7.738  0.00  0.00    +0.430 HD
ATOM     17  C   LIG    1        5.215  -3.978   6.891  0.00  0.00    +0.510 C 
ATOM     18  O   LIG    1        6.030  -3.086   6.995  0.00  0.00    -0.470 OA
BRANCH  15  23
ATOM     19  C   LIG    1        7.657  -5.986  12.003  0.00  0.00    +0.160 C 
ATOM     20  C   LIG    1        7.148  -5.363  10.728  0.00  0.00    +0.040 A 
ATOM     21  N   LIG    1        7.589  -4.274  10.163  0.00  0.00    -0.370 NA
ATOM     22  O   LIG    1        6.989  -4.022   9.144  0.00  0.00    +0.110 OA
ATOM     23  C   LIG    1        6.035  -4.934   8.897  0.00  0.00    +0.210 A 
ATOM     24  C   LIG    1        6.103  -5.843   9.914  0.00  0.00    -0.090 A 
ENDBRANCH  15  23
ENDBRANCH  14  17
ENDBRANCH   1  14
BRANCH   3  25
ATOM     25  C   LIG    1        5.207   0.253   4.174  0.00  0.00    +0.190 C 
BRANCH  25  26
ATOM     26  O   LIG    1        5.382   1.133   5.287  0.00  0.00    -0.570 OA
ATOM     27  H   LIG    1        6.174   1.685   5.230  0.00  0.00    +0.380 HD
ENDBRANCH  25  26
ENDBRANCH   3  25
TORSDOF 7
