REMARK  Name = ZINCvU0000000ALP.0
REMARK                            x       y       z     vdW  Elec       q    Type
REMARK                         _______ _______ _______ _____ _____    ______ ____
ROOT
ATOM      1  S   LIG    1        1.089   3.389  -1.727  0.00  0.00    -0.150 S 
ENDROOT
BRANCH   1   2
ATOM      2  C   LIG    1        2.691   4.235  -1.632  0.00  0.00    +0.170 C 
BRANCH   2   5
ATOM      3  C   LIG    1        2.907   6.633  -4.363  0.00  0.00    +0.120 A 
ATOM      4  N   LIG    1        2.988   5.496  -3.734  0.00  0.00    -0.450 NA
ATOM      5  C   LIG    1        2.646   5.489  -2.466  0.00  0.00    +0.080 A 
ATOM      6  C   LIG    1        2.262   6.666  -1.960  0.00  0.00    -0.050 A 
ATOM      7  S   LIG    1        2.347   7.872  -3.243  0.00  0.00    +0.110 S 
BRANCH   3  11
ATOM      8  C   LIG    1        3.861   7.260  -8.455  0.00  0.00    -0.060 A 
ATOM      9  C   LIG    1        3.429   8.320  -7.678  0.00  0.00    +0.010 A 
ATOM     10  C   LIG    1        3.118   8.123  -6.348  0.00  0.00    +0.030 A 
ATOM     11  C   LIG    1        3.239   6.851  -5.787  0.00  0.00    -0.040 A 
ATOM     12  C   LIG    1        3.680   5.787  -6.575  0.00  0.00    +0.080 A 
ATOM     13  C   LIG    1        3.982   5.996  -7.905  0.00  0.00    +0.010 A 
BRANCH   8  15
ATOM     14  C   LIG    1        5.662   7.110 -10.152  0.00  0.00    +0.030 C 
ATOM     15  C   LIG    1        4.199   7.482  -9.906  0.00  0.00    +0.020 C 
ATOM     16  C   LIG    1        3.297   6.608 -10.780  0.00  0.00    +0.030 C 
ENDBRANCH   8  15
ENDBRANCH   3  11
ENDBRANCH   2   5
ENDBRANCH   1   2
BRANCH   1  17
ATOM     17  C   LIG    1        1.336   1.930  -0.678  0.00  0.00    +0.100 C 
BRANCH  17  18
ATOM     18  C   LIG    1        0.072   1.109  -0.654  0.00  0.00    +0.530 C 
ATOM     19  N   LIG    1        0.022  -0.029   0.067  0.00  0.00    -0.670 N 
ATOM     20  H   LIG    1        0.818  -0.355   0.516  0.00  0.00    +0.420 HD
ATOM     21  O   LIG    1       -0.897   1.469  -1.286  0.00  0.00    -0.490 OA
BRANCH  19  22
ATOM     22  C   LIG    1       -1.175  -0.739   0.167  0.00  0.00    +0.170 A 
ATOM     23  C   LIG    1       -2.387  -0.057   0.177  0.00  0.00    +0.010 A 
ATOM     24  C   LIG    1       -3.570  -0.754   0.271  0.00  0.00    +0.070 A 
ATOM     25  C   LIG    1       -3.552  -2.148   0.366  0.00  0.00    -0.150 A 
ATOM     26  C   LIG    1       -2.332  -2.830   0.360  0.00  0.00    +0.100 A 
ATOM     27  C   LIG    1       -1.153  -2.127   0.261  0.00  0.00    -0.020 A 
BRANCH  25  28
ATOM     28  C   LIG    1       -4.818  -2.899   0.473  0.00  0.00    +0.560 C 
ATOM     29  N   LIG    1       -5.917  -2.299   0.971  0.00  0.00    -0.620 N 
ATOM     30  C   LIG    1       -5.830  -0.938   1.507  0.00  0.00    +0.280 C 
ATOM     31  C   LIG    1       -7.200  -3.007   0.977  0.00  0.00    +0.290 C 
ATOM     32  O   LIG    1       -4.870  -4.059   0.112  0.00  0.00    -0.540 OA
ENDBRANCH  25  28
ENDBRANCH  19  22
ENDBRANCH  17  18
ENDBRANCH   1  17
TORSDOF 8
