REMARK  Name = ZINCAx00000009At.0
REMARK                            x       y       z     vdW  Elec       q    Type
REMARK                         _______ _______ _______ _____ _____    ______ ____
ROOT
ATOM      1  N   LIG    1       -2.624   4.008  -0.897  0.00  0.00    -0.530 N 
ATOM      2  C   LIG    1       -3.016   5.298  -0.937  0.00  0.00    +0.500 C 
ATOM      3  O   LIG    1       -2.290   6.138  -1.428  0.00  0.00    -0.500 OA
ENDROOT
BRANCH   1   9
ATOM      4  N   LIG    1       -0.238   2.323  -3.127  0.00  0.00    -0.540 N 
ATOM      5  C   LIG    1        0.919   2.872  -2.716  0.00  0.00    +0.710 A 
ATOM      6  N   LIG    1        0.946   3.783  -1.727  0.00  0.00    -0.660 N 
ATOM      7  H   LIG    1        1.793   4.165  -1.450  0.00  0.00    +0.430 HD
ATOM      8  C   LIG    1       -0.191   4.167  -1.113  0.00  0.00    +0.570 A 
ATOM      9  C   LIG    1       -1.420   3.616  -1.520  0.00  0.00    -0.140 A 
ATOM     10  O   LIG    1       -0.154   4.989  -0.213  0.00  0.00    -0.500 OA
ATOM     11  O   LIG    1        1.960   2.540  -3.250  0.00  0.00    -0.530 OA
ATOM     12  C   LIG    1       -1.428   2.684  -2.538  0.00  0.00    +0.480 A 
BRANCH  12  13
ATOM     13  N   LIG    1       -2.610   2.122  -2.957  0.00  0.00    -0.830 N 
ATOM     14  H   LIG    1       -3.440   2.345  -2.506  0.00  0.00    +0.420 HD
ATOM     15  H   LIG    1       -2.615   1.503  -3.703  0.00  0.00    +0.410 HD
ENDBRANCH  12  13
BRANCH   4  16
ATOM     16  C   LIG    1       -0.232   1.334  -4.207  0.00  0.00    +0.310 C 
BRANCH  16  18
ATOM     17  C   LIG    1       -0.189  -1.109  -4.730  0.00  0.00    +0.040 C 
ATOM     18  C   LIG    1       -0.071  -0.068  -3.615  0.00  0.00    -0.040 C 
ATOM     19  C   LIG    1        1.302  -0.186  -2.951  0.00  0.00    +0.040 C 
ENDBRANCH  16  18
ENDBRANCH   4  16
ENDBRANCH   1   9
BRANCH   2  20
ATOM     20  C   LIG    1       -4.355   5.697  -0.372  0.00  0.00    +0.330 C 
BRANCH  20  21
ATOM     21  N   LIG    1       -4.544   7.141  -0.536  0.00  0.00    -0.590 N 
ATOM     22  C   LIG    1       -5.124   7.622  -1.653  0.00  0.00    +0.580 C 
ATOM     23  O   LIG    1       -5.580   6.856  -2.480  0.00  0.00    -0.520 OA
ATOM     24  C   LIG    1       -4.101   8.061   0.514  0.00  0.00    +0.300 C 
BRANCH  22  25
ATOM     25  C   LIG    1       -5.207   9.082  -1.873  0.00  0.00    -0.050 A 
ATOM     26  C   LIG    1       -4.121   9.908  -1.621  0.00  0.00    +0.040 A 
ATOM     27  C   LIG    1       -4.232  11.280  -1.845  0.00  0.00    +0.200 A 
ATOM     28  N   LIG    1       -5.344  11.822  -2.280  0.00  0.00    -0.450 NA
ATOM     29  C   LIG    1       -6.431  11.089  -2.538  0.00  0.00    +0.140 A 
ATOM     30  C   LIG    1       -7.614  11.689  -3.004  0.00  0.00    +0.050 A 
ATOM     31  C   LIG    1       -8.707  10.919  -3.259  0.00  0.00    +0.050 A 
ATOM     32  C   LIG    1       -8.674   9.540  -3.066  0.00  0.00    +0.030 A 
ATOM     33  C   LIG    1       -7.545   8.924  -2.616  0.00  0.00    +0.050 A 
ATOM     34 CL   LIG    1       -2.862  12.300  -1.534  0.00  0.00    -0.010 Cl
ATOM     35  C   LIG    1       -6.402   9.686  -2.343  0.00  0.00    -0.070 A 
ENDBRANCH  22  25
ENDBRANCH  20  21
ENDBRANCH   2  20
BRANCH   1  36
ATOM     36  C   LIG    1       -3.447   3.013  -0.205  0.00  0.00    +0.270 C 
BRANCH  36  37
ATOM     37  C   LIG    1       -3.112   3.022   1.288  0.00  0.00    -0.040 C 
ATOM     38  C   LIG    1       -1.676   2.534   1.490  0.00  0.00    +0.020 C 
ATOM     39  C   LIG    1       -4.075   2.096   2.032  0.00  0.00    +0.030 C 
ENDBRANCH  36  37
ENDBRANCH   1  36
TORSDOF 9
