REMARK  Name = ZINCrg00000Bn6TF.0
REMARK                            x       y       z     vdW  Elec       q    Type
REMARK                         _______ _______ _______ _____ _____    ______ ____
ROOT
ATOM      1  C   LIG    1        0.625   3.272   0.835  0.00  0.00    +0.260 C 
ATOM      2  C   LIG    1        1.621   3.749   1.912  0.00  0.00    +0.060 C 
ATOM      3  C   LIG    1        2.590   2.554   2.089  0.00  0.00    -0.030 C 
ATOM      4  C   LIG    1        1.648   1.330   1.968  0.00  0.00    +0.000 C 
ATOM      5  C   LIG    1        0.642   1.734   0.871  0.00  0.00    +0.150 C 
ENDROOT
BRANCH   1   8
ATOM      6  O   LIG    1       -1.024   3.601  -1.272  0.00  0.00    -0.490 OA
ATOM      7  C   LIG    1        0.140   3.878  -1.475  0.00  0.00    +0.500 C 
ATOM      8  N   LIG    1        1.045   3.748  -0.485  0.00  0.00    -0.720 N 
ATOM      9  H   LIG    1        1.976   3.970  -0.647  0.00  0.00    +0.400 HD
BRANCH   7  10
ATOM     10  C   LIG    1        0.572   4.368  -2.833  0.00  0.00    +0.370 C 
BRANCH  10  11
ATOM     11  N   LIG    1       -0.589   4.421  -3.725  0.00  0.00    -0.290 N 
ATOM     12  C   LIG    1       -1.007   5.505  -4.418  0.00  0.00    +0.140 A 
ATOM     13  C   LIG    1       -2.104   5.113  -5.107  0.00  0.00    +0.140 A 
ATOM     14  N   LIG    1       -2.301   3.825  -4.805  0.00  0.00    -0.270 NA
ATOM     15  N   LIG    1       -1.383   3.443  -3.988  0.00  0.00    -0.060 NA
ENDBRANCH  10  11
ENDBRANCH   7  10
ENDBRANCH   1   8
BRANCH   5  16
ATOM     16  O   LIG    1       -0.659   1.238   1.192  0.00  0.00    -0.550 OA
ATOM     17  H   LIG    1       -0.713   0.273   1.230  0.00  0.00    +0.380 HD
ENDBRANCH   5  16
BRANCH   3  18
ATOM     18  C   LIG    1        3.253   2.593   3.467  0.00  0.00    +0.300 C 
BRANCH  18  19
ATOM     19  N   LIG    1        4.249   1.522   3.561  0.00  0.00    -0.450 N 
ATOM     20  C   LIG    1        4.039   0.255   4.032  0.00  0.00    +0.140 A 
ATOM     21  C   LIG    1        5.215  -0.400   3.940  0.00  0.00    +0.150 A 
ATOM     22  N   LIG    1        6.126   0.438   3.435  0.00  0.00    -0.470 NA
ATOM     23  C   LIG    1        5.562   1.602   3.200  0.00  0.00    +0.240 A 
BRANCH  23  24
ATOM     24  C   LIG    1        6.236   2.794   2.640  0.00  0.00    -0.010 A 
ATOM     25  C   LIG    1        5.482   3.827   2.082  0.00  0.00    +0.000 A 
ATOM     26  C   LIG    1        6.117   4.939   1.567  0.00  0.00    +0.010 A 
ATOM     27  C   LIG    1        7.497   5.025   1.593  0.00  0.00    +0.020 A 
ATOM     28  C   LIG    1        8.250   4.002   2.139  0.00  0.00    +0.010 A 
ATOM     29  C   LIG    1        7.628   2.887   2.663  0.00  0.00    +0.060 A 
ENDBRANCH  23  24
ENDBRANCH  18  19
ENDBRANCH   3  18
TORSDOF 7
