REMARK  Name = ZINCpk00000eaQCF.0
REMARK                            x       y       z     vdW  Elec       q    Type
REMARK                         _______ _______ _______ _____ _____    ______ ____
ROOT
ATOM      1  C   LIG    1       -0.614   4.366   3.747  0.00  0.00    +0.080 C 
ATOM      2  C   LIG    1       -0.785   2.933   3.239  0.00  0.00    +0.160 C 
ATOM      3  O   LIG    1       -2.169   2.568   3.285  0.00  0.00    -0.360 OA
ATOM      4  C   LIG    1       -2.391   1.184   3.002  0.00  0.00    +0.290 C 
ATOM      5  C   LIG    1       -1.664   0.798   1.744  0.00  0.00    +0.490 C 
ATOM      6  N   LIG    1       -0.698   1.558   1.213  0.00  0.00    -0.580 N 
ATOM      7  O   LIG    1       -1.963  -0.239   1.190  0.00  0.00    -0.530 OA
ATOM      8  C   LIG    1       -0.298   2.838   1.793  0.00  0.00    +0.210 C 
ENDROOT
BRANCH   8   9
ATOM      9  C   LIG    1        1.204   2.954   1.760  0.00  0.00    +0.510 C 
ATOM     10  N   LIG    1        1.789   4.165   1.855  0.00  0.00    -0.720 N 
ATOM     11  H   LIG    1        1.243   4.961   1.944  0.00  0.00    +0.410 HD
ATOM     12  O   LIG    1        1.887   1.958   1.648  0.00  0.00    -0.510 OA
BRANCH  10  13
ATOM     13  C   LIG    1        3.249   4.277   1.822  0.00  0.00    +0.360 C 
BRANCH  13  14
ATOM     14  C   LIG    1        3.644   5.727   1.945  0.00  0.00    -0.020 A 
ATOM     15  C   LIG    1        3.969   6.364   3.088  0.00  0.00    -0.030 A 
ATOM     16  C   LIG    1        4.273   7.699   2.755  0.00  0.00    -0.060 A 
ATOM     17  C   LIG    1        4.115   7.828   1.422  0.00  0.00    +0.160 A 
ATOM     18  N   LIG    1        3.729   6.621   0.919  0.00  0.00    -0.440 N 
ATOM     19  C   LIG    1        3.450   6.333  -0.490  0.00  0.00    +0.310 C 
ENDBRANCH  13  14
ENDBRANCH  10  13
ENDBRANCH   8   9
BRANCH   6  20
ATOM     20  C   LIG    1       -0.013   1.086   0.008  0.00  0.00    +0.350 C 
BRANCH  20  21
ATOM     21  C   LIG    1       -0.742   1.585  -1.213  0.00  0.00    -0.110 A 
ATOM     22  C   LIG    1       -1.750   0.825  -1.775  0.00  0.00    +0.040 A 
ATOM     23  C   LIG    1       -2.421   1.284  -2.893  0.00  0.00    +0.000 A 
ATOM     24  C   LIG    1       -2.079   2.501  -3.453  0.00  0.00    +0.000 A 
ATOM     25  C   LIG    1       -1.067   3.259  -2.894  0.00  0.00    +0.000 A 
ATOM     26  C   LIG    1       -0.398   2.801  -1.774  0.00  0.00    +0.000 A 
ENDBRANCH  20  21
ENDBRANCH   6  20
TORSDOF 5
