REMARK  Name = ZINCvU0000000F1T.0
REMARK                            x       y       z     vdW  Elec       q    Type
REMARK                         _______ _______ _______ _____ _____    ______ ____
ROOT
ATOM      1  C   LIG    1        2.814   4.438   0.660  0.00  0.00    -0.210 A 
ATOM      2  C   LIG    1        3.313   5.669   0.417  0.00  0.00    +0.250 A 
ATOM      3  N   LIG    1        2.414   6.341  -0.350  0.00  0.00    -0.310 N 
ATOM      4  N   LIG    1        1.328   5.490  -0.591  0.00  0.00    -0.250 NA
ATOM      5  C   LIG    1        1.564   4.341   0.011  0.00  0.00    +0.170 A 
ENDROOT
BRANCH   1  12
ATOM      6  C   LIG    1        5.211   5.322   4.327  0.00  0.00    +0.120 C 
ATOM      7  C   LIG    1        4.126   4.801   3.420  0.00  0.00    +0.550 C 
ATOM      8  N   LIG    1        4.433   3.941   2.429  0.00  0.00    -0.470 N 
ATOM      9  N   LIG    1        5.708   3.460   2.138  0.00  0.00    -0.230 NA
ATOM     10  C   LIG    1        5.749   2.647   1.140  0.00  0.00    +0.140 C 
ATOM     11  C   LIG    1        4.356   2.464   0.580  0.00  0.00    +0.100 C 
ATOM     12  C   LIG    1        3.475   3.357   1.475  0.00  0.00    +0.290 C 
ATOM     13  O   LIG    1        2.977   5.154   3.583  0.00  0.00    -0.510 OA
BRANCH  10  14
ATOM     14  C   LIG    1        6.966   1.994   0.624  0.00  0.00    -0.030 A 
ATOM     15  C   LIG    1        6.887   1.122  -0.465  0.00  0.00    +0.070 A 
ATOM     16  C   LIG    1        8.030   0.519  -0.946  0.00  0.00    +0.030 A 
ATOM     17  C   LIG    1        9.253   0.767  -0.345  0.00  0.00    -0.020 A 
ATOM     18  C   LIG    1        9.337   1.625   0.738  0.00  0.00    +0.030 A 
ATOM     19 CL   LIG    1       10.686  -0.002  -0.953  0.00  0.00    -0.060 Cl
ATOM     20  C   LIG    1        8.203   2.240   1.225  0.00  0.00    +0.070 A 
ENDBRANCH  10  14
ENDBRANCH   1  12
BRANCH   3  21
ATOM     21  C   LIG    1        2.551   7.654  -0.818  0.00  0.00    +0.160 A 
ATOM     22  C   LIG    1        3.683   8.392  -0.498  0.00  0.00    -0.010 A 
ATOM     23  C   LIG    1        3.817   9.685  -0.965  0.00  0.00    +0.050 A 
ATOM     24  C   LIG    1        2.820  10.248  -1.741  0.00  0.00    +0.010 A 
ATOM     25  C   LIG    1        1.689   9.517  -2.057  0.00  0.00    +0.050 A 
ATOM     26  C   LIG    1        1.552   8.222  -1.597  0.00  0.00    +0.020 A 
ENDBRANCH   3  21
BRANCH   5  27
ATOM     27  C   LIG    1        0.674   3.162   0.013  0.00  0.00    +0.040 A 
ATOM     28  C   LIG    1       -0.685   3.188   0.026  0.00  0.00    -0.010 A 
ATOM     29  C   LIG    1       -1.118   1.846   0.017  0.00  0.00    -0.050 A 
ATOM     30  C   LIG    1       -0.013   1.076   0.008  0.00  0.00    +0.190 A 
ATOM     31  O   LIG    1        1.068   1.874   0.002  0.00  0.00    -0.170 OA
ENDBRANCH   5  27
TORSDOF 4
