REMARK  Name = ZINCrD000000BflT.0
REMARK                            x       y       z     vdW  Elec       q    Type
REMARK                         _______ _______ _______ _____ _____    ______ ____
ROOT
ATOM      1  O   LIG    1        5.789  -1.213   1.392  0.00  0.00    -0.580 OA
ATOM      2  C   LIG    1        6.585  -1.049   2.297  0.00  0.00    +0.710 C 
ATOM      3  N   LIG    1        7.802  -1.625   2.237  0.00  0.00    -0.630 N 
ATOM      4  C   LIG    1        8.222  -2.364   1.039  0.00  0.00    +0.310 C 
ATOM      5  C   LIG    1        8.678  -3.763   1.451  0.00  0.00    +0.060 C 
ATOM      6  C   LIG    1        9.758  -3.647   2.530  0.00  0.00    -0.410 C 
ATOM      7  C   LIG    1        9.179  -2.943   3.760  0.00  0.00    +0.060 C 
ATOM      8  C   LIG    1        8.731  -1.531   3.371  0.00  0.00    +0.290 C 
ATOM      9  N   LIG    1        6.250  -0.290   3.360  0.00  0.00    -0.750 N 
ATOM     10  H   LIG    1        6.855  -0.218   4.114  0.00  0.00    +0.400 HD
ENDROOT
BRANCH   6  11
ATOM     11  S   LIG    1       10.327  -5.306   2.994  0.00  0.00    +2.490 S 
ATOM     12  O   LIG    1        9.223  -6.139   3.321  0.00  0.00    -0.930 OA
ATOM     13  O   LIG    1       11.460  -5.223   3.848  0.00  0.00    -0.930 OA
BRANCH  11  14
ATOM     14  C   LIG    1       10.960  -5.988   1.498  0.00  0.00    -0.660 A 
ATOM     15  C   LIG    1       10.127  -6.704   0.659  0.00  0.00    +0.120 A 
ATOM     16  C   LIG    1       10.622  -7.236  -0.517  0.00  0.00    -0.010 A 
ATOM     17  C   LIG    1       11.952  -7.061  -0.849  0.00  0.00    +0.070 A 
ATOM     18  C   LIG    1       12.787  -6.349  -0.007  0.00  0.00    -0.010 A 
ATOM     19  C   LIG    1       12.290  -5.813   1.167  0.00  0.00    +0.120 A 
ENDBRANCH  11  14
ENDBRANCH   6  11
BRANCH   9  20
ATOM     20  C   LIG    1        4.971   0.424   3.375  0.00  0.00    +0.290 C 
BRANCH  20  21
ATOM     21  C   LIG    1        4.839   1.204   4.685  0.00  0.00    +0.230 C 
ATOM     22  F   LIG    1        4.889   0.315   5.764  0.00  0.00    -0.200 F 
BRANCH  21  23
ATOM     23  C   LIG    1        3.523   1.939   4.702  0.00  0.00    -0.130 A 
ATOM     24  C   LIG    1        3.504   3.321   4.703  0.00  0.00    +0.030 A 
ATOM     25  C   LIG    1        2.297   3.995   4.718  0.00  0.00    +0.010 A 
ATOM     26  C   LIG    1        1.110   3.288   4.731  0.00  0.00    +0.020 A 
ATOM     27  C   LIG    1        1.129   1.905   4.728  0.00  0.00    +0.010 A 
ATOM     28  C   LIG    1        2.336   1.231   4.714  0.00  0.00    +0.040 A 
ENDBRANCH  21  23
ENDBRANCH  20  21
ENDBRANCH   9  20
TORSDOF 5
