REMARK  Name = ZINCqH0000036Gjh.0
REMARK                            x       y       z     vdW  Elec       q    Type
REMARK                         _______ _______ _______ _____ _____    ______ ____
ROOT
ATOM      1  N   LIG    1        8.861  -3.159  -0.292  0.00  0.00    -0.730 N 
ATOM      2  H   LIG    1        9.765  -2.962  -0.001  0.00  0.00    +0.400 HD
ATOM      3  C   LIG    1        7.947  -2.172  -0.369  0.00  0.00    +0.520 C 
ATOM      4  O   LIG    1        6.816  -2.419  -0.732  0.00  0.00    -0.510 OA
ENDROOT
BRANCH   1   6
ATOM      5  C   LIG    1        7.859  -5.219   0.566  0.00  0.00    +0.040 C 
ATOM      6  C   LIG    1        8.489  -4.531  -0.647  0.00  0.00    +0.290 C 
BRANCH   6   7
ATOM      7  C   LIG    1        9.719  -5.291  -1.073  0.00  0.00    -0.080 A 
ATOM      8  C   LIG    1       10.965  -4.896  -0.623  0.00  0.00    +0.050 A 
ATOM      9  C   LIG    1       12.093  -5.596  -1.009  0.00  0.00    +0.040 A 
ATOM     10  C   LIG    1       11.976  -6.685  -1.854  0.00  0.00    -0.030 A 
ATOM     11  C   LIG    1       10.730  -7.077  -2.309  0.00  0.00    +0.050 A 
ATOM     12 CL   LIG    1       13.394  -7.559  -2.344  0.00  0.00    -0.050 Cl
ATOM     13  C   LIG    1        9.601  -6.380  -1.918  0.00  0.00    -0.020 A 
ATOM     14 CL   LIG    1        8.037  -6.871  -2.488  0.00  0.00    -0.040 Cl
ENDBRANCH   6   7
ENDBRANCH   1   6
BRANCH   3  15
ATOM     15  C   LIG    1        8.329  -0.761  -0.004  0.00  0.00    +0.210 C 
BRANCH  15  16
ATOM     16  N   LIG    1        7.213   0.144  -0.309  0.00  0.00    -0.490 NA
ATOM     17  C   LIG    1        7.581   1.550  -0.038  0.00  0.00    +0.180 C 
ATOM     18  C   LIG    1        6.860   2.416  -1.088  0.00  0.00    +0.010 C 
ATOM     19  C   LIG    1        6.093   1.414  -1.980  0.00  0.00    +0.180 C 
ATOM     20  C   LIG    1        6.862   0.088  -1.751  0.00  0.00    +0.210 C 
BRANCH  19  21
ATOM     21  O   LIG    1        6.160   1.805  -3.353  0.00  0.00    -0.300 OA
BRANCH  21  22
ATOM     22  C   LIG    1        5.162   2.600  -3.816  0.00  0.00    +0.170 A 
ATOM     23  C   LIG    1        5.147   3.030  -5.141  0.00  0.00    -0.070 A 
ATOM     24  C   LIG    1        4.115   3.837  -5.572  0.00  0.00    +0.290 A 
ATOM     25  N   LIG    1        3.151   4.202  -4.748  0.00  0.00    -0.510 NA
ATOM     26  C   LIG    1        3.131   3.816  -3.486  0.00  0.00    +0.300 A 
ATOM     27  C   LIG    1        4.127   3.008  -2.978  0.00  0.00    -0.120 A 
ENDBRANCH  21  22
ENDBRANCH  19  21
ENDBRANCH  15  16
ENDBRANCH   3  15
TORSDOF 6
