REMARK  Name = ZINCrH000004mp2E.0
REMARK                            x       y       z     vdW  Elec       q    Type
REMARK                         _______ _______ _______ _____ _____    ______ ____
ROOT
ATOM      1  C   LIG    1       -1.215  -0.895   0.010  0.00  0.00    +0.230 C 
ENDROOT
BRANCH   1   5
ATOM      2  C   LIG    1        1.244   1.727   0.001  0.00  0.00    +0.220 A 
ATOM      3  N   LIG    1        1.975   0.642  -0.010  0.00  0.00    -0.380 NA
ATOM      4  O   LIG    1        1.263  -0.340  -0.008  0.00  0.00    +0.080 OA
ATOM      5  C   LIG    1       -0.022   0.026   0.004  0.00  0.00    +0.180 A 
ATOM      6  N   LIG    1       -0.051   1.335   0.010  0.00  0.00    -0.470 NA
BRANCH   2  10
ATOM      7  C   LIG    1        2.670   5.734   0.005  0.00  0.00    +0.150 A 
ATOM      8  C   LIG    1        3.571   4.678  -0.006  0.00  0.00    -0.010 A 
ATOM      9  C   LIG    1        3.112   3.378  -0.007  0.00  0.00    +0.100 A 
ATOM     10  C   LIG    1        1.741   3.124   0.003  0.00  0.00    -0.070 A 
ATOM     11  C   LIG    1        0.839   4.187   0.009  0.00  0.00    +0.110 A 
ATOM     12  C   LIG    1        1.304   5.484   0.016  0.00  0.00    -0.070 A 
BRANCH   7  14
ATOM     13  C   LIG    1        2.143   8.052   0.018  0.00  0.00    +0.240 C 
ATOM     14  O   LIG    1        3.125   7.014   0.006  0.00  0.00    -0.310 OA
ENDBRANCH   7  14
ENDBRANCH   2  10
ENDBRANCH   1   5
BRANCH   1  15
ATOM     15  C   LIG    1       -1.630  -1.201  -1.431  0.00  0.00    +0.080 C 
BRANCH  15  16
ATOM     16  C   LIG    1       -2.822  -2.122  -1.426  0.00  0.00    +0.530 C 
ATOM     17  N   LIG    1       -3.365  -2.529  -2.591  0.00  0.00    -0.670 N 
ATOM     18  H   LIG    1       -3.030  -2.178  -3.430  0.00  0.00    +0.420 HD
ATOM     19  O   LIG    1       -3.294  -2.498  -0.373  0.00  0.00    -0.510 OA
BRANCH  17  20
ATOM     20  C   LIG    1       -4.414  -3.458  -2.588  0.00  0.00    +0.130 A 
ATOM     21  C   LIG    1       -5.354  -3.442  -1.567  0.00  0.00    +0.090 A 
ATOM     22  C   LIG    1       -6.388  -4.359  -1.566  0.00  0.00    +0.050 A 
ATOM     23  C   LIG    1       -6.489  -5.294  -2.581  0.00  0.00    +0.090 A 
ATOM     24  C   LIG    1       -5.552  -5.314  -3.603  0.00  0.00    +0.050 A 
ATOM     25  F   LIG    1       -5.651  -6.228  -4.593  0.00  0.00    -0.110 F 
ATOM     26  F   LIG    1       -7.501  -6.189  -2.576  0.00  0.00    -0.120 F 
ATOM     27  C   LIG    1       -4.518  -4.394  -3.611  0.00  0.00    +0.070 A 
ATOM     28  F   LIG    1       -3.607  -4.408  -4.610  0.00  0.00    -0.120 F 
ENDBRANCH  17  20
ENDBRANCH  15  16
ENDBRANCH   1  15
TORSDOF 6
