REMARK  Name = ZINCkj00000dCVp6.0
REMARK                            x       y       z     vdW  Elec       q    Type
REMARK                         _______ _______ _______ _____ _____    ______ ____
ROOT
ATOM      1  C   LIG    1       -3.134   3.803   2.955  0.00  0.00    +0.500 C 
ATOM      2  N   LIG    1       -2.652   3.045   1.950  0.00  0.00    -0.700 N 
ATOM      3  H   LIG    1       -3.118   3.016   1.099  0.00  0.00    +0.410 HD
ATOM      4  O   LIG    1       -2.552   3.840   4.019  0.00  0.00    -0.520 OA
ENDROOT
BRANCH   1  10
ATOM      5  N   LIG    1       -5.069   4.780   4.051  0.00  0.00    -0.370 N 
ATOM      6  C   LIG    1       -6.337   5.494   3.858  0.00  0.00    +0.250 C 
ATOM      7  C   LIG    1       -6.059   6.897   3.313  0.00  0.00    +0.060 C 
ATOM      8  C   LIG    1       -5.327   6.782   1.973  0.00  0.00    +0.060 C 
ATOM      9  C   LIG    1       -4.043   5.972   2.172  0.00  0.00    +0.090 C 
ATOM     10  C   LIG    1       -4.395   4.604   2.759  0.00  0.00    +0.160 C 
ATOM     11  H   LIG    1       -4.475   5.312   4.669  0.00  0.00    +0.430 HD
BRANCH   5  13
ATOM     12  C   LIG    1       -5.934   3.647   6.042  0.00  0.00    +0.090 C 
ATOM     13  C   LIG    1       -5.335   3.464   4.646  0.00  0.00    +0.150 C 
ATOM     14  C   LIG    1       -6.322   2.695   3.764  0.00  0.00    +0.090 C 
ENDBRANCH   5  13
ENDBRANCH   1  10
BRANCH   2  15
ATOM     15  C   LIG    1       -1.427   2.267   2.141  0.00  0.00    +0.280 C 
BRANCH  15  16
ATOM     16  C   LIG    1       -1.102   1.502   0.857  0.00  0.00    +0.110 C 
BRANCH  16  17
ATOM     17  C   LIG    1        0.159   0.701   1.054  0.00  0.00    -0.250 A 
ATOM     18  C   LIG    1        0.232  -0.570   1.512  0.00  0.00    +0.240 A 
ATOM     19  N   LIG    1        1.533  -0.925   1.537  0.00  0.00    -0.370 N 
ATOM     20  N   LIG    1        2.286   0.164   1.078  0.00  0.00    -0.290 NA
ATOM     21  C   LIG    1        2.066  -2.220   1.968  0.00  0.00    +0.360 C 
ATOM     22  C   LIG    1        1.461   1.138   0.789  0.00  0.00    +0.240 A 
ENDBRANCH  16  17
ENDBRANCH  15  16
ENDBRANCH   2  15
TORSDOF 5
