REMARK  Name = ZINCkj00000dCVp6.1
REMARK                            x       y       z     vdW  Elec       q    Type
REMARK                         _______ _______ _______ _____ _____    ______ ____
ROOT
ATOM      1  C   LIG    1       -0.222   1.232   2.431  0.00  0.00    +0.510 C 
ATOM      2  N   LIG    1       -0.606   1.678   1.219  0.00  0.00    -0.700 N 
ATOM      3  H   LIG    1       -1.337   2.312   1.144  0.00  0.00    +0.410 HD
ATOM      4  O   LIG    1        0.692   0.440   2.524  0.00  0.00    -0.520 OA
ENDROOT
BRANCH   1  10
ATOM      5  N   LIG    1       -0.289   1.135   4.857  0.00  0.00    -0.360 N 
ATOM      6  C   LIG    1        1.139   1.476   4.873  0.00  0.00    +0.250 C 
ATOM      7  C   LIG    1        1.303   2.993   4.988  0.00  0.00    +0.060 C 
ATOM      8  C   LIG    1        0.629   3.667   3.790  0.00  0.00    +0.040 C 
ATOM      9  C   LIG    1       -0.842   3.245   3.740  0.00  0.00    +0.070 C 
ATOM     10  C   LIG    1       -0.927   1.718   3.671  0.00  0.00    +0.160 C 
ATOM     11  H   LIG    1       -0.730   1.499   5.688  0.00  0.00    +0.420 HD
BRANCH   5  13
ATOM     12  C   LIG    1        0.225  -0.936   6.059  0.00  0.00    +0.080 C 
ATOM     13  C   LIG    1       -0.440  -0.326   4.824  0.00  0.00    +0.160 C 
ATOM     14  C   LIG    1       -1.927  -0.685   4.816  0.00  0.00    +0.080 C 
ENDBRANCH   5  13
ENDBRANCH   1  10
BRANCH   2  15
ATOM     15  C   LIG    1        0.079   1.206   0.013  0.00  0.00    +0.280 C 
BRANCH  15  16
ATOM     16  C   LIG    1       -0.547   1.861  -1.219  0.00  0.00    +0.110 C 
BRANCH  16  17
ATOM     17  C   LIG    1        0.159   1.375  -2.459  0.00  0.00    -0.250 A 
ATOM     18  C   LIG    1        1.238   1.949  -3.038  0.00  0.00    +0.240 A 
ATOM     19  N   LIG    1        1.566   1.213  -4.120  0.00  0.00    -0.370 N 
ATOM     20  N   LIG    1        0.652   0.155  -4.214  0.00  0.00    -0.290 NA
ATOM     21  C   LIG    1        2.677   1.476  -5.037  0.00  0.00    +0.360 C 
ATOM     22  C   LIG    1       -0.191   0.253  -3.219  0.00  0.00    +0.230 A 
ENDBRANCH  16  17
ENDBRANCH  15  16
ENDBRANCH   2  15
TORSDOF 5
