REMARK  Name = ZINCpe00000MG829.0
REMARK                            x       y       z     vdW  Elec       q    Type
REMARK                         _______ _______ _______ _____ _____    ______ ____
ROOT
ATOM      1  C   LIG    1        3.134   5.939   1.035  0.00  0.00    +0.140 C 
ATOM      2  C   LIG    1        4.524   5.302   0.971  0.00  0.00    +0.000 C 
ATOM      3  C   LIG    1        4.402   3.787   1.151  0.00  0.00    +0.030 C 
ATOM      4  C   LIG    1        3.552   3.209   0.015  0.00  0.00    +0.280 C 
ATOM      5  N   LIG    1        2.265   3.919  -0.022  0.00  0.00    -0.580 N 
ATOM      6  C   LIG    1        2.270   5.385  -0.108  0.00  0.00    +0.320 C 
ENDROOT
BRANCH   5   7
ATOM      7  C   LIG    1        1.067   3.215   0.018  0.00  0.00    +0.420 A 
ATOM      8  N   LIG    1       -0.068   3.871   0.092  0.00  0.00    -0.320 NA
ATOM      9  N   LIG    1       -1.283   3.183   0.135  0.00  0.00    -0.260 N 
ATOM     10  C   LIG    1       -1.298   1.811   0.092  0.00  0.00    +0.110 A 
ATOM     11  C   LIG    1       -0.081   1.109   0.018  0.00  0.00    +0.190 A 
ATOM     12  N   LIG    1       -2.567   1.440   0.152  0.00  0.00    -0.250 NA
ATOM     13  N   LIG    1       -3.313   2.488   0.217  0.00  0.00    -0.260 NA
ATOM     14  C   LIG    1       -2.574   3.570   0.210  0.00  0.00    +0.220 A 
ATOM     15  C   LIG    1        1.085   1.807  -0.020  0.00  0.00    -0.030 A 
BRANCH  14  16
ATOM     16  C   LIG    1       -3.075   4.989   0.273  0.00  0.00    +0.030 C 
ATOM     17  C   LIG    1       -2.503   5.677   1.515  0.00  0.00    +0.060 C 
ATOM     18  C   LIG    1       -4.603   4.988   0.350  0.00  0.00    +0.060 C 
ATOM     19  C   LIG    1       -2.628   5.745  -0.980  0.00  0.00    +0.040 C 
ENDBRANCH  14  16
ENDBRANCH   5   7
BRANCH   1  20
ATOM     20  O   LIG    1        2.525   5.630   2.291  0.00  0.00    -0.530 OA
ATOM     21  H   LIG    1        3.021   5.949   3.057  0.00  0.00    +0.370 HD
ENDBRANCH   1  20
BRANCH   1  22
ATOM     22  C   LIG    1        3.261   7.457   0.889  0.00  0.00    +0.030 C 
BRANCH  22  26
ATOM     23  C   LIG    1        0.423  10.026   0.925  0.00  0.00    +0.280 C 
ATOM     24  N   LIG    1        1.747   9.411   0.803  0.00  0.00    -0.740 N 
ATOM     25  H   LIG    1        2.515   9.956   0.569  0.00  0.00    +0.400 HD
ATOM     26  C   LIG    1        1.899   8.089   1.015  0.00  0.00    +0.500 C 
ATOM     27  O   LIG    1        0.939   7.408   1.307  0.00  0.00    -0.500 OA
ENDBRANCH  22  26
ENDBRANCH   1  22
TORSDOF 5
