REMARK  Name = ZINCkj000005meIh.1
REMARK                            x       y       z     vdW  Elec       q    Type
REMARK                         _______ _______ _______ _____ _____    ______ ____
ROOT
ATOM      1  O   LIG    1        6.769  -1.001  -1.022  0.00  0.00    -0.930 OA
ATOM      2  S   LIG    1        5.725  -1.835  -1.506  0.00  0.00    +2.600 S 
ATOM      3  O   LIG    1        5.561  -3.160  -1.020  0.00  0.00    -0.930 OA
ENDROOT
BRANCH   2   4
ATOM      4  N   LIG    1        6.070  -2.029  -3.114  0.00  0.00    -1.010 NA
ATOM      5  C   LIG    1        5.623  -3.218  -3.862  0.00  0.00    +0.340 C 
ATOM      6  C   LIG    1        4.834  -2.722  -5.079  0.00  0.00    +0.240 C 
ATOM      7  N   LIG    1        5.662  -1.844  -5.918  0.00  0.00    -0.390 N 
ATOM      8  C   LIG    1        4.740  -1.256  -6.933  0.00  0.00    +0.250 C 
ATOM      9  C   LIG    1        4.161   0.030  -6.308  0.00  0.00    +0.070 C 
ATOM     10  C   LIG    1        4.880   0.174  -4.942  0.00  0.00    +0.060 C 
ATOM     11  C   LIG    1        6.146  -0.676  -5.157  0.00  0.00    +0.170 C 
ATOM     12  H   LIG    1        6.424  -2.341  -6.354  0.00  0.00    +0.430 HD
ATOM     13  C   LIG    1        6.841  -1.027  -3.863  0.00  0.00    +0.340 C 
ENDBRANCH   2   4
BRANCH   2  14
ATOM     14  C   LIG    1        4.142  -0.949  -1.486  0.00  0.00    -0.360 C 
BRANCH  14  15
ATOM     15  C   LIG    1        3.711  -0.707  -0.038  0.00  0.00    +0.110 C 
BRANCH  15  16
ATOM     16  C   LIG    1        2.396   0.029  -0.022  0.00  0.00    -0.090 A 
ATOM     17  C   LIG    1        1.208  -0.679  -0.013  0.00  0.00    +0.000 A 
ATOM     18  C   LIG    1        0.002  -0.004   0.002  0.00  0.00    +0.010 A 
ATOM     19  C   LIG    1       -0.017   1.378   0.010  0.00  0.00    +0.010 A 
ATOM     20  C   LIG    1        1.171   2.086   0.002  0.00  0.00    +0.010 A 
ATOM     21  C   LIG    1        2.377   1.411  -0.015  0.00  0.00    +0.000 A 
ENDBRANCH  15  16
ENDBRANCH  14  15
ENDBRANCH   2  14
TORSDOF 4
