REMARK  Name = ZINCkj000005meIh.0
REMARK                            x       y       z     vdW  Elec       q    Type
REMARK                         _______ _______ _______ _____ _____    ______ ____
ROOT
ATOM      1  O   LIG    1        0.360   3.289   3.207  0.00  0.00    -0.940 OA
ATOM      2  S   LIG    1       -0.620   4.011   2.473  0.00  0.00    +2.600 S 
ATOM      3  O   LIG    1       -0.321   5.277   1.901  0.00  0.00    -0.940 OA
ENDROOT
BRANCH   2   4
ATOM      4  N   LIG    1       -0.951   3.042   1.172  0.00  0.00    -1.020 NA
ATOM      5  C   LIG    1       -0.749   1.590   1.261  0.00  0.00    +0.330 C 
ATOM      6  C   LIG    1       -0.013   1.086   0.008  0.00  0.00    +0.270 C 
ATOM      7  N   LIG    1       -0.733   1.576  -1.161  0.00  0.00    -0.390 N 
ATOM      8  C   LIG    1       -0.193   1.130  -2.455  0.00  0.00    +0.270 C 
ATOM      9  C   LIG    1       -0.770   2.166  -3.462  0.00  0.00    +0.070 C 
ATOM     10  C   LIG    1       -1.075   3.426  -2.612  0.00  0.00    +0.080 C 
ATOM     11  C   LIG    1       -0.590   3.057  -1.206  0.00  0.00    +0.170 C 
ATOM     12  H   LIG    1       -1.709   1.328  -1.092  0.00  0.00    +0.420 HD
ATOM     13  C   LIG    1       -1.451   3.631  -0.087  0.00  0.00    +0.340 C 
ENDBRANCH   2   4
BRANCH   2  14
ATOM     14  C   LIG    1       -2.181   4.082   3.394  0.00  0.00    -0.330 C 
BRANCH  14  15
ATOM     15  C   LIG    1       -2.002   4.959   4.635  0.00  0.00    +0.110 C 
BRANCH  15  16
ATOM     16  C   LIG    1       -3.300   5.018   5.400  0.00  0.00    -0.090 A 
ATOM     17  C   LIG    1       -4.221   6.010   5.122  0.00  0.00    +0.000 A 
ATOM     18  C   LIG    1       -5.413   6.061   5.820  0.00  0.00    +0.010 A 
ATOM     19  C   LIG    1       -5.679   5.126   6.803  0.00  0.00    +0.020 A 
ATOM     20  C   LIG    1       -4.755   4.137   7.085  0.00  0.00    +0.010 A 
ATOM     21  C   LIG    1       -3.565   4.083   6.383  0.00  0.00    +0.000 A 
ENDBRANCH  15  16
ENDBRANCH  14  15
ENDBRANCH   2  14
TORSDOF 4
