REMARK  Name = ZINCkj000005glTq.0
REMARK                            x       y       z     vdW  Elec       q    Type
REMARK                         _______ _______ _______ _____ _____    ______ ____
ROOT
ATOM      1  C   LIG    1       -1.122   2.286   1.057  0.00  0.00    +0.200 C 
ATOM      2  C   LIG    1       -1.452   3.251  -0.097  0.00  0.00    +0.070 C 
ATOM      3  C   LIG    1       -1.016   2.130  -1.055  0.00  0.00    +0.030 C 
ATOM      4  C   LIG    1       -0.143   1.595   0.093  0.00  0.00    -0.080 C 
ATOM      5  C   LIG    1        1.266   2.190   0.119  0.00  0.00    +0.090 C 
ATOM      6  C   LIG    1       -0.146   0.070   0.206  0.00  0.00    +0.070 C 
ENDROOT
BRANCH   3   7
ATOM      7  N   LIG    1       -0.243   2.607  -2.209  0.00  0.00    -0.490 N 
ATOM      8  H   LIG    1        0.436   3.288  -1.901  0.00  0.00    +0.420 HD
ATOM      9  H   LIG    1       -0.866   3.033  -2.879  0.00  0.00    +0.440 HD
BRANCH   7  10
ATOM     10  C   LIG    1        0.451   1.474  -2.837  0.00  0.00    +0.380 C 
BRANCH  10  11
ATOM     11  C   LIG    1        1.139   1.940  -4.093  0.00  0.00    -0.000 A 
ATOM     12  N   LIG    1        0.620   1.949  -5.294  0.00  0.00    -0.250 NA
ATOM     13  N   LIG    1        1.577   2.457  -6.182  0.00  0.00    -0.350 N 
ATOM     14  C   LIG    1        2.690   2.743  -5.473  0.00  0.00    +0.260 A 
ATOM     15  C   LIG    1        1.404   2.639  -7.625  0.00  0.00    +0.380 C 
ATOM     16  C   LIG    1        2.445   2.433  -4.179  0.00  0.00    -0.220 A 
ATOM     17  C   LIG    1        3.410   2.590  -3.032  0.00  0.00    +0.120 C 
ENDBRANCH  10  11
ENDBRANCH   7  10
ENDBRANCH   3   7
BRANCH   1  18
ATOM     18  O   LIG    1       -0.481   2.918   2.167  0.00  0.00    -0.360 OA
BRANCH  18  20
ATOM     19  C   LIG    1       -0.497   3.653   4.470  0.00  0.00    +0.060 C 
ATOM     20  C   LIG    1       -1.279   2.958   3.352  0.00  0.00    +0.160 C 
ENDBRANCH  18  20
ENDBRANCH   1  18
BRANCH   3  21
ATOM     21  C   LIG    1       -2.153   1.186  -1.451  0.00  0.00    +0.250 C 
BRANCH  21  22
ATOM     22  O   LIG    1       -2.848   1.724  -2.578  0.00  0.00    -0.580 OA
ATOM     23  H   LIG    1       -3.584   1.176  -2.884  0.00  0.00    +0.410 HD
ENDBRANCH  21  22
ENDBRANCH   3  21
TORSDOF 7
