REMARK  Name = ZINCrH000004rMc7.0
REMARK                            x       y       z     vdW  Elec       q    Type
REMARK                         _______ _______ _______ _____ _____    ______ ____
ROOT
ATOM      1  N   LIG    1       -5.814   3.121  -1.498  0.00  0.00    -0.720 N 
ATOM      2  H   LIG    1       -5.621   2.192  -1.700  0.00  0.00    +0.410 HD
ATOM      3  C   LIG    1       -7.037   3.626  -1.751  0.00  0.00    +0.520 C 
ATOM      4  O   LIG    1       -7.278   4.788  -1.499  0.00  0.00    -0.520 OA
ENDROOT
BRANCH   1   5
ATOM      5  C   LIG    1       -4.774   3.975  -0.918  0.00  0.00    +0.300 C 
BRANCH   5   8
ATOM      6  N   LIG    1       -2.413   3.758  -0.214  0.00  0.00    -0.670 N 
ATOM      7  H   LIG    1       -2.457   4.672   0.109  0.00  0.00    +0.410 HD
ATOM      8  C   LIG    1       -3.510   3.175  -0.736  0.00  0.00    +0.510 C 
ATOM      9  O   LIG    1       -3.481   2.006  -1.059  0.00  0.00    -0.520 OA
BRANCH   6  17
ATOM     10  C   LIG    1       -1.161   2.972  -2.646  0.00  0.00    +0.090 C 
ATOM     11  C   LIG    1       -0.567   2.643  -1.301  0.00  0.00    -0.070 A 
ATOM     12  C   LIG    1        0.617   1.936  -1.222  0.00  0.00    +0.010 A 
ATOM     13  C   LIG    1        1.166   1.638   0.011  0.00  0.00    +0.020 A 
ATOM     14  C   LIG    1        0.529   2.041   1.170  0.00  0.00    +0.010 A 
ATOM     15  C   LIG    1       -0.658   2.744   1.099  0.00  0.00    -0.080 A 
ATOM     16  C   LIG    1       -1.351   3.184   2.363  0.00  0.00    +0.080 C 
ATOM     17  C   LIG    1       -1.211   3.046  -0.138  0.00  0.00    +0.130 A 
ENDBRANCH   6  17
ENDBRANCH   5   8
ENDBRANCH   1   5
BRANCH   3  18
ATOM     18  C   LIG    1       -8.107   2.748  -2.348  0.00  0.00    +0.150 C 
BRANCH  18  19
ATOM     19  C   LIG    1       -9.370   3.548  -2.530  0.00  0.00    +0.090 A 
ATOM     20  C   LIG    1       -9.983   3.648  -3.715  0.00  0.00    -0.070 A 
ATOM     21  S   LIG    1      -11.414   4.657  -3.511  0.00  0.00    +0.090 S 
ATOM     22  C   LIG    1      -11.026   4.855  -1.804  0.00  0.00    +0.120 A 
ATOM     23  N   LIG    1       -9.935   4.195  -1.537  0.00  0.00    -0.440 NA
BRANCH  22  24
ATOM     24  C   LIG    1      -11.811   5.644  -0.832  0.00  0.00    -0.030 A 
ATOM     25  C   LIG    1      -11.403   5.721   0.501  0.00  0.00    +0.070 A 
ATOM     26  C   LIG    1      -12.138   6.464   1.402  0.00  0.00    +0.010 A 
ATOM     27  C   LIG    1      -13.283   7.122   0.990  0.00  0.00    +0.030 A 
ATOM     28  C   LIG    1      -13.696   7.045  -0.328  0.00  0.00    +0.010 A 
ATOM     29  C   LIG    1      -12.967   6.311  -1.241  0.00  0.00    +0.020 A 
ENDBRANCH  22  24
ENDBRANCH  18  19
ENDBRANCH   3  18
TORSDOF 6
