REMARK  Name = ZINCqH0000037iba.0
REMARK                            x       y       z     vdW  Elec       q    Type
REMARK                         _______ _______ _______ _____ _____    ______ ____
ROOT
ATOM      1  N   LIG    1        2.406   1.096  -0.015  0.00  0.00    -0.740 N 
ATOM      2  H   LIG    1        3.239   1.593  -0.020  0.00  0.00    +0.400 HD
ENDROOT
BRANCH   1   3
ATOM      3  C   LIG    1        1.184   1.778   0.000  0.00  0.00    +0.140 A 
ATOM      4  C   LIG    1        1.153   3.171   0.008  0.00  0.00    +0.030 A 
ATOM      5  C   LIG    1       -0.079   3.803   0.022  0.00  0.00    +0.020 A 
ATOM      6  C   LIG    1       -1.234   3.033   0.029  0.00  0.00    +0.260 A 
ATOM      7  N   LIG    1       -1.168   1.713   0.017  0.00  0.00    -0.500 NA
ATOM      8  C   LIG    1       -0.013   1.076   0.008  0.00  0.00    +0.220 A 
BRANCH   6   9
ATOM      9  O   LIG    1       -2.447   3.644   0.044  0.00  0.00    -0.300 OA
BRANCH   9  10
ATOM     10  C   LIG    1       -3.599   2.799   0.050  0.00  0.00    +0.250 C 
BRANCH  10  11
ATOM     11  C   LIG    1       -4.863   3.660   0.066  0.00  0.00    +0.460 C 
ATOM     12  F   LIG    1       -4.867   4.462   1.213  0.00  0.00    -0.170 F 
ATOM     13  F   LIG    1       -5.991   2.833   0.073  0.00  0.00    -0.170 F 
ATOM     14  F   LIG    1       -4.888   4.473  -1.072  0.00  0.00    -0.170 F 
ENDBRANCH  10  11
ENDBRANCH   9  10
ENDBRANCH   6   9
ENDBRANCH   1   3
BRANCH   1  16
ATOM     15  C   LIG    1        2.296  -0.873  -1.462  0.00  0.00    +0.030 C 
ATOM     16  C   LIG    1        2.428  -0.369  -0.023  0.00  0.00    +0.280 C 
BRANCH  16  17
ATOM     17  C   LIG    1        3.728  -0.855   0.562  0.00  0.00    -0.090 A 
ATOM     18  C   LIG    1        4.909  -0.204   0.256  0.00  0.00    +0.040 A 
ATOM     19  C   LIG    1        6.102  -0.645   0.795  0.00  0.00    +0.010 A 
ATOM     20  C   LIG    1        6.116  -1.749   1.637  0.00  0.00    +0.150 A 
ATOM     21  C   LIG    1        4.929  -2.404   1.938  0.00  0.00    +0.030 A 
ATOM     22  C   LIG    1        3.739  -1.955   1.400  0.00  0.00    +0.060 A 
BRANCH  20  23
ATOM     23  N   LIG    1        7.326  -2.201   2.182  0.00  0.00    -0.330 N 
ATOM     24  C   LIG    1        8.550  -1.676   1.979  0.00  0.00    +0.480 A 
ATOM     25  N   LIG    1        9.412  -2.382   2.664  0.00  0.00    -0.530 NA
ATOM     26  C   LIG    1        8.783  -3.364   3.308  0.00  0.00    +0.440 A 
ATOM     27  N   LIG    1        7.504  -3.296   3.044  0.00  0.00    -0.310 NA
ENDBRANCH  20  23
ENDBRANCH  16  17
ENDBRANCH   1  16
TORSDOF 7
