REMARK  Name = ZINCvU0000000IEC.0
REMARK                            x       y       z     vdW  Elec       q    Type
REMARK                         _______ _______ _______ _____ _____    ______ ____
ROOT
ATOM      1  C   LIG    1        1.277   1.961   0.161  0.00  0.00    +0.070 C 
ENDROOT
BRANCH   1   2
ATOM      2  C   LIG    1        1.565   2.490   1.542  0.00  0.00    -0.100 A 
ATOM      3  C   LIG    1        1.692   1.616   2.605  0.00  0.00    +0.040 A 
ATOM      4  C   LIG    1        1.960   2.101   3.872  0.00  0.00    +0.000 A 
ATOM      5  C   LIG    1        2.094   3.462   4.076  0.00  0.00    +0.010 A 
ATOM      6  C   LIG    1        1.962   4.337   3.014  0.00  0.00    +0.010 A 
ATOM      7  C   LIG    1        1.697   3.851   1.747  0.00  0.00    +0.060 A 
ENDBRANCH   1   2
BRANCH   1   9
ATOM      8  O   LIG    1       -0.028   0.001   0.322  0.00  0.00    -0.500 OA
ATOM      9  C   LIG    1       -0.027   1.205   0.175  0.00  0.00    +0.550 C 
ATOM     10  N   LIG    1       -1.191   1.867   0.018  0.00  0.00    -0.660 N 
ATOM     11  H   LIG    1       -1.196   2.836  -0.023  0.00  0.00    +0.420 HD
BRANCH  10  12
ATOM     12  C   LIG    1       -2.391   1.155  -0.086  0.00  0.00    +0.150 A 
ATOM     13  C   LIG    1       -2.412  -0.088  -0.704  0.00  0.00    +0.050 A 
ATOM     14  C   LIG    1       -3.597  -0.790  -0.800  0.00  0.00    +0.040 A 
ATOM     15  C   LIG    1       -4.765  -0.251  -0.291  0.00  0.00    +0.060 A 
ATOM     16  C   LIG    1       -4.748   0.989   0.320  0.00  0.00    -0.160 A 
ATOM     17  C   LIG    1       -3.566   1.694   0.424  0.00  0.00    +0.050 A 
BRANCH  16  18
ATOM     18  C   LIG    1       -6.023   1.573   0.872  0.00  0.00    +0.510 C 
ATOM     19  F   LIG    1       -5.725   2.394   1.965  0.00  0.00    -0.180 F 
ATOM     20  F   LIG    1       -6.870   0.538   1.284  0.00  0.00    -0.170 F 
ATOM     21  F   LIG    1       -6.658   2.329  -0.119  0.00  0.00    -0.170 F 
ENDBRANCH  16  18
ENDBRANCH  10  12
ENDBRANCH   1   9
BRANCH   1  22
ATOM     22  S   LIG    1        2.612   0.851  -0.350  0.00  0.00    +0.080 S 
BRANCH  22  23
ATOM     23  C   LIG    1        3.950   1.996  -0.425  0.00  0.00    +0.140 A 
ATOM     24  N   LIG    1        3.894   3.284  -0.169  0.00  0.00    -0.280 NA
ATOM     25  N   LIG    1        5.059   3.811  -0.314  0.00  0.00    -0.280 NA
ATOM     26  C   LIG    1        5.916   2.900  -0.672  0.00  0.00    +0.190 A 
ATOM     27  C   LIG    1        7.388   3.084  -0.933  0.00  0.00    +0.150 C 
ATOM     28  C   LIG    1        7.755   2.379  -2.243  0.00  0.00    +0.030 C 
ATOM     29  C   LIG    1        8.113   0.924  -1.960  0.00  0.00    +0.020 C 
ATOM     30  C   LIG    1        7.281   0.380  -0.800  0.00  0.00    +0.030 C 
ATOM     31  C   LIG    1        5.794   0.424  -1.164  0.00  0.00    +0.290 C 
ATOM     32  N   LIG    1        5.238   1.717  -0.765  0.00  0.00    -0.450 N 
ENDBRANCH  22  23
ENDBRANCH   1  22
TORSDOF 6
