REMARK  Name = ZINCvU00000008iF.0
REMARK                            x       y       z     vdW  Elec       q    Type
REMARK                         _______ _______ _______ _____ _____    ______ ____
ROOT
ATOM      1  C   LIG    1        0.776   7.524   0.034  0.00  0.00    +0.120 C 
ATOM      2  C   LIG    1        0.885   6.021   0.025  0.00  0.00    +0.010 A 
ATOM      3  C   LIG    1        2.135   5.425   0.010  0.00  0.00    -0.100 A 
ATOM      4  C   LIG    1        2.249   4.045   0.001  0.00  0.00    +0.200 A 
ATOM      5  C   LIG    1        1.090   3.258   0.009  0.00  0.00    -0.180 A 
ATOM      6  C   LIG    1       -0.174   3.869   0.024  0.00  0.00    +0.190 A 
ATOM      7  O   LIG    1       -1.291   3.108   0.030  0.00  0.00    -0.270 OA
ATOM      8  C   LIG    1       -1.236   1.767   0.018  0.00  0.00    +0.510 A 
ATOM      9  C   LIG    1       -0.013   1.076   0.008  0.00  0.00    -0.090 A 
ATOM     10  O   LIG    1       -2.276   1.132   0.019  0.00  0.00    -0.460 OA
ATOM     11  C   LIG    1        1.172   1.788   0.001  0.00  0.00    +0.100 A 
ATOM     12  C   LIG    1       -0.263   5.254   0.031  0.00  0.00    -0.030 A 
ENDROOT
BRANCH  11  13
ATOM     13  C   LIG    1        2.479   1.096  -0.015  0.00  0.00    -0.070 A 
ATOM     14  C   LIG    1        3.350   1.219   1.069  0.00  0.00    +0.040 A 
ATOM     15  C   LIG    1        4.566   0.567   1.051  0.00  0.00    +0.040 A 
ATOM     16  C   LIG    1        4.927  -0.198  -0.044  0.00  0.00    +0.030 A 
ATOM     17  C   LIG    1        4.071  -0.320  -1.124  0.00  0.00    +0.000 A 
ATOM     18  C   LIG    1        2.850   0.323  -1.116  0.00  0.00    +0.020 A 
ENDBRANCH  11  13
BRANCH   4  19
ATOM     19  O   LIG    1        3.473   3.461  -0.013  0.00  0.00    -0.260 OA
BRANCH  19  20
ATOM     20  C   LIG    1        4.608   4.330  -0.020  0.00  0.00    +0.230 C 
BRANCH  20  21
ATOM     21  C   LIG    1        5.870   3.508  -0.035  0.00  0.00    +0.510 C 
ATOM     22  N   LIG    1        7.072   4.119  -0.044  0.00  0.00    -0.730 N 
ATOM     23  H   LIG    1        7.124   5.087  -0.040  0.00  0.00    +0.400 HD
ATOM     24  O   LIG    1        5.806   2.297  -0.040  0.00  0.00    -0.490 OA
BRANCH  22  25
ATOM     25  C   LIG    1        8.300   3.320  -0.059  0.00  0.00    +0.330 C 
BRANCH  25  26
ATOM     26  C   LIG    1        9.496   4.236  -0.066  0.00  0.00    -0.110 A 
ATOM     27  C   LIG    1       10.036   4.658  -1.267  0.00  0.00    +0.040 A 
ATOM     28  C   LIG    1       11.130   5.502  -1.274  0.00  0.00    +0.030 A 
ATOM     29  C   LIG    1       11.691   5.918  -0.079  0.00  0.00    -0.030 A 
ATOM     30  C   LIG    1       11.153   5.491   1.122  0.00  0.00    +0.030 A 
ATOM     31 CL   LIG    1       13.070   6.972  -0.088  0.00  0.00    -0.060 Cl
ATOM     32  C   LIG    1       10.055   4.651   1.128  0.00  0.00    +0.040 A 
ENDBRANCH  25  26
ENDBRANCH  22  25
ENDBRANCH  20  21
ENDBRANCH  19  20
ENDBRANCH   4  19
TORSDOF 6
