REMARK  Name = ZINCpe00000gM3VM.0
REMARK                            x       y       z     vdW  Elec       q    Type
REMARK                         _______ _______ _______ _____ _____    ______ ____
ROOT
ATOM      1  C   LIG    1        1.317  -0.740  -0.015  0.00  0.00    +0.370 C 
ENDROOT
BRANCH   1   6
ATOM      2  N   LIG    1        0.741  -4.170   1.194  0.00  0.00    -0.520 N 
ATOM      3  C   LIG    1        0.602  -4.910   0.061  0.00  0.00    +0.450 A 
ATOM      4  C   LIG    1        0.695  -4.288  -1.168  0.00  0.00    -0.200 A 
ATOM      5  C   LIG    1        0.944  -2.838  -1.194  0.00  0.00    +0.570 A 
ATOM      6  N   LIG    1        1.069  -2.183  -0.020  0.00  0.00    -0.530 N 
ATOM      7  O   LIG    1        1.035  -2.241  -2.251  0.00  0.00    -0.490 OA
ATOM      8  C   LIG    1        0.973  -2.849   1.144  0.00  0.00    +0.700 A 
ATOM      9  O   LIG    1        1.095  -2.233   2.185  0.00  0.00    -0.520 OA
BRANCH   2  11
ATOM     10  C   LIG    1        2.028  -5.304   2.937  0.00  0.00    +0.040 C 
ATOM     11  C   LIG    1        0.641  -4.830   2.498  0.00  0.00    +0.320 C 
ENDBRANCH   2  11
BRANCH   4  12
ATOM     12  C   LIG    1        0.555  -5.033  -2.382  0.00  0.00    +0.280 C 
ATOM     13  N   LIG    1        0.444  -5.625  -3.346  0.00  0.00    -0.400 NA
ENDBRANCH   4  12
ENDBRANCH   1   6
BRANCH   1  14
ATOM     14  C   LIG    1        0.002  -0.004   0.002  0.00  0.00    +0.510 C 
ATOM     15  N   LIG    1       -0.016   1.344   0.009  0.00  0.00    -0.720 N 
ATOM     16  H   LIG    1        0.817   1.840   0.004  0.00  0.00    +0.400 HD
ATOM     17  O   LIG    1       -1.040  -0.625   0.009  0.00  0.00    -0.520 OA
BRANCH  15  18
ATOM     18  C   LIG    1       -1.295   2.059   0.019  0.00  0.00    +0.300 C 
BRANCH  18  19
ATOM     19  C   LIG    1       -1.036   3.567   0.026  0.00  0.00    +0.070 C 
BRANCH  19  20
ATOM     20  S   LIG    1       -2.619   4.452   0.039  0.00  0.00    -0.090 S 
BRANCH  20  21
ATOM     21  C   LIG    1       -2.127   6.144   0.045  0.00  0.00    -0.090 A 
ATOM     22  C   LIG    1       -0.777   6.477   0.047  0.00  0.00    -0.010 A 
ATOM     23  C   LIG    1       -0.395   7.804   0.047  0.00  0.00    +0.030 A 
ATOM     24  C   LIG    1       -1.353   8.801   0.057  0.00  0.00    +0.010 A 
ATOM     25  C   LIG    1       -2.697   8.473   0.061  0.00  0.00    +0.030 A 
ATOM     26  C   LIG    1       -3.087   7.149   0.056  0.00  0.00    +0.030 A 
ENDBRANCH  20  21
ENDBRANCH  19  20
ENDBRANCH  18  19
ENDBRANCH  15  18
ENDBRANCH   1  14
TORSDOF 8
