REMARK  Name = ZINCqH0000002ebZ.0
REMARK                            x       y       z     vdW  Elec       q    Type
REMARK                         _______ _______ _______ _____ _____    ______ ____
ROOT
ATOM      1  N   LIG    1        4.702   2.452  -2.754  0.00  0.00    -0.520 N 
ATOM      2  C   LIG    1        5.758   1.631  -2.522  0.00  0.00    +0.600 A 
ATOM      3  N   LIG    1        5.736   0.736  -1.580  0.00  0.00    -0.500 NA
ATOM      4  C   LIG    1        4.660   0.574  -0.779  0.00  0.00    +0.070 A 
ATOM      5  C   LIG    1        3.544   1.381  -0.961  0.00  0.00    -0.220 A 
ATOM      6  C   LIG    1        2.481   1.071  -0.015  0.00  0.00    +0.010 A 
ATOM      7  C   LIG    1        2.772   0.091   0.840  0.00  0.00    -0.050 A 
ATOM      8  S   LIG    1        4.380  -0.545   0.548  0.00  0.00    +0.210 S 
ATOM      9  C   LIG    1        3.589   2.358  -2.001  0.00  0.00    +0.560 A 
ATOM     10  O   LIG    1        2.637   3.093  -2.205  0.00  0.00    -0.510 OA
ENDROOT
BRANCH   6  11
ATOM     11  C   LIG    1        1.184   1.791   0.000  0.00  0.00    -0.050 A 
ATOM     12  C   LIG    1       -0.013   1.076   0.008  0.00  0.00    +0.020 A 
ATOM     13  C   LIG    1       -1.216   1.751   0.017  0.00  0.00    -0.010 A 
ATOM     14  C   LIG    1       -1.236   3.134   0.030  0.00  0.00    -0.080 A 
ATOM     15  C   LIG    1       -0.052   3.849   0.022  0.00  0.00    +0.000 A 
ATOM     16  C   LIG    1       -2.554   3.865   0.046  0.00  0.00    +0.090 C 
ATOM     17  C   LIG    1        1.158   3.185   0.008  0.00  0.00    +0.060 A 
ENDBRANCH   6  11
BRANCH   1  18
ATOM     18  C   LIG    1        4.774   3.446  -3.828  0.00  0.00    +0.330 C 
BRANCH  18  21
ATOM     19  N   LIG    1        4.234   3.574  -6.239  0.00  0.00    -0.720 N 
ATOM     20  H   LIG    1        4.543   4.493  -6.227  0.00  0.00    +0.400 HD
ATOM     21  C   LIG    1        4.262   2.839  -5.109  0.00  0.00    +0.500 C 
ATOM     22  O   LIG    1        3.876   1.690  -5.123  0.00  0.00    -0.520 OA
BRANCH  19  23
ATOM     23  C   LIG    1        3.737   2.983  -7.484  0.00  0.00    +0.240 C 
BRANCH  23  25
ATOM     24  C   LIG    1        1.591   2.276  -6.416  0.00  0.00    +0.020 C 
ATOM     25  C   LIG    1        2.213   3.112  -7.537  0.00  0.00    +0.000 C 
ENDBRANCH  23  25
BRANCH  23  26
ATOM     26  C   LIG    1        4.352   3.717  -8.678  0.00  0.00    +0.020 C 
ATOM     27  C   LIG    1        5.864   3.484  -8.695  0.00  0.00    +0.020 C 
ENDBRANCH  23  26
ENDBRANCH  19  23
ENDBRANCH  18  21
ENDBRANCH   1  18
TORSDOF 6
