REMARK  Name = ZINCpk00000KfL0w.0
REMARK                            x       y       z     vdW  Elec       q    Type
REMARK                         _______ _______ _______ _____ _____    ______ ____
ROOT
ATOM      1  C   LIG    1        1.280   1.980   0.001  0.00  0.00    -0.020 C 
ATOM      2  C   LIG    1        2.499   1.020  -0.016  0.00  0.00    +0.070 C 
ATOM      3  C   LIG    1        3.598   1.868  -0.692  0.00  0.00    +0.240 C 
ATOM      4  N   LIG    1        2.923   2.914  -1.473  0.00  0.00    -0.640 N 
ATOM      5  C   LIG    1        3.535   3.874  -2.195  0.00  0.00    +0.730 C 
ATOM      6  N   LIG    1        4.881   3.927  -2.241  0.00  0.00    -0.730 N 
ATOM      7  H   LIG    1        5.409   3.274  -1.755  0.00  0.00    +0.400 HD
ATOM      8  O   LIG    1        2.873   4.691  -2.805  0.00  0.00    -0.580 OA
ATOM      9  C   LIG    1        1.465   2.740  -1.336  0.00  0.00    +0.300 C 
ENDROOT
BRANCH   1  13
ATOM     10  N   LIG    1       -1.191   1.867   0.018  0.00  0.00    -0.850 N 
ATOM     11  H   LIG    1       -1.204   2.837   0.023  0.00  0.00    +0.400 HD
ATOM     12  H   LIG    1       -2.024   1.370   0.019  0.00  0.00    +0.400 HD
ATOM     13  C   LIG    1       -0.014   1.209   0.009  0.00  0.00    +0.530 C 
ATOM     14  O   LIG    1        0.002  -0.004   0.002  0.00  0.00    -0.540 OA
ENDBRANCH   1  13
BRANCH   6  15
ATOM     15  C   LIG    1        5.546   4.970  -3.026  0.00  0.00    +0.340 C 
BRANCH  15  16
ATOM     16  C   LIG    1        6.924   5.216  -2.467  0.00  0.00    -0.080 A 
ATOM     17  C   LIG    1        7.696   4.153  -2.041  0.00  0.00    +0.020 A 
ATOM     18  C   LIG    1        8.960   4.375  -1.527  0.00  0.00    +0.030 A 
ATOM     19  C   LIG    1        9.457   5.667  -1.439  0.00  0.00    +0.050 A 
ATOM     20  O   LIG    1       10.701   5.871  -0.928  0.00  0.00    -0.310 OA
ATOM     21  C   LIG    1       11.309   7.139  -1.200  0.00  0.00    +0.220 C 
ATOM     22  C   LIG    1       10.270   8.237  -0.934  0.00  0.00    +0.220 C 
ATOM     23  O   LIG    1        9.150   8.012  -1.797  0.00  0.00    -0.310 OA
ATOM     24  C   LIG    1        8.681   6.737  -1.870  0.00  0.00    +0.060 A 
ATOM     25  C   LIG    1        7.415   6.506  -2.388  0.00  0.00    +0.040 A 
ENDBRANCH  15  16
BRANCH  15  26
ATOM     26  C   LIG    1        5.660   4.516  -4.483  0.00  0.00    -0.070 C 
ATOM     27  C   LIG    1        5.161   5.478  -5.563  0.00  0.00    +0.020 C 
ATOM     28  C   LIG    1        4.362   4.215  -5.233  0.00  0.00    +0.030 C 
ENDBRANCH  15  26
ENDBRANCH   6  15
TORSDOF 4
