REMARK  Name = ZINCrD000000BQbo.0
REMARK                            x       y       z     vdW  Elec       q    Type
REMARK                         _______ _______ _______ _____ _____    ______ ____
ROOT
ATOM      1  O   LIG    1       -1.000   6.321  -0.006  0.00  0.00    -0.530 OA
ATOM      2  C   LIG    1       -2.100   5.803   0.011  0.00  0.00    +0.570 C 
ATOM      3  N   LIG    1       -3.207   6.570   0.034  0.00  0.00    -0.720 N 
ATOM      4  H   LIG    1       -4.084   6.156   0.048  0.00  0.00    +0.400 HD
ENDROOT
BRANCH   3   5
ATOM      5  C   LIG    1       -3.086   8.030   0.038  0.00  0.00    +0.240 C 
ATOM      6  C   LIG    1       -3.055   8.590  -1.409  0.00  0.00    +0.030 C 
ATOM      7  C   LIG    1       -3.607  10.021  -1.238  0.00  0.00    +0.260 C 
ATOM      8  N   LIG    1       -4.388  10.042   0.008  0.00  0.00    -0.620 N 
ATOM      9  C   LIG    1       -5.018  11.117   0.522  0.00  0.00    +0.540 C 
ATOM     10  O   LIG    1       -5.714  10.998   1.508  0.00  0.00    -0.530 OA
ATOM     11  C   LIG    1       -4.368   8.692   0.601  0.00  0.00    +0.260 C 
BRANCH   9  12
ATOM     12  C   LIG    1       -4.857  12.467  -0.128  0.00  0.00    -0.010 C 
ATOM     13  C   LIG    1       -3.597  13.146   0.412  0.00  0.00    +0.030 C 
ATOM     14  C   LIG    1       -3.434  14.517  -0.248  0.00  0.00    +0.010 C 
ATOM     15  C   LIG    1       -4.655  15.383   0.067  0.00  0.00    +0.000 C 
ATOM     16  C   LIG    1       -5.915  14.704  -0.474  0.00  0.00    +0.010 C 
ATOM     17  C   LIG    1       -6.079  13.333   0.186  0.00  0.00    +0.040 C 
ENDBRANCH   9  12
ENDBRANCH   3   5
BRANCH   2  18
ATOM     18  C   LIG    1       -2.222   4.329   0.007  0.00  0.00    -0.110 A 
ATOM     19  C   LIG    1       -3.483   3.731   0.026  0.00  0.00    +0.030 A 
ATOM     20  C   LIG    1       -3.594   2.355   0.022  0.00  0.00    +0.050 A 
ATOM     21  C   LIG    1       -2.459   1.566  -0.008  0.00  0.00    +0.020 A 
ATOM     22  C   LIG    1       -1.200   2.152  -0.021  0.00  0.00    +0.140 A 
ATOM     23  C   LIG    1       -1.077   3.532  -0.017  0.00  0.00    +0.070 A 
BRANCH  22  24
ATOM     24  N   LIG    1       -0.052   1.346  -0.045  0.00  0.00    -0.400 N 
ATOM     25  C   LIG    1        1.237   1.797  -0.072  0.00  0.00    +0.150 A 
ATOM     26  C   LIG    1        2.057   0.727  -0.095  0.00  0.00    -0.050 A 
ATOM     27  C   LIG    1        1.248  -0.427  -0.082  0.00  0.00    -0.050 A 
ATOM     28  C   LIG    1       -0.037  -0.019  -0.052  0.00  0.00    +0.150 A 
ENDBRANCH  22  24
ENDBRANCH   2  18
TORSDOF 4
