REMARK  Name = ZINCrD00000hQ6MP.0
REMARK                            x       y       z     vdW  Elec       q    Type
REMARK                         _______ _______ _______ _____ _____    ______ ____
ROOT
ATOM      1  C   LIG    1       -4.553   0.392   0.273  0.00  0.00    +0.430 A 
ATOM      2  N   LIG    1       -3.749   1.437   0.205  0.00  0.00    -0.530 NA
ATOM      3  C   LIG    1       -2.498   0.927   0.179  0.00  0.00    +0.240 A 
ATOM      4  N   LIG    1       -2.607  -0.376   0.225  0.00  0.00    -0.380 NA
ATOM      5  O   LIG    1       -3.775  -0.699   0.285  0.00  0.00    +0.050 OA
ENDROOT
BRANCH   3   6
ATOM      6  C   LIG    1       -1.234   1.702   0.105  0.00  0.00    -0.010 A 
ATOM      7  C   LIG    1       -1.270   3.094   0.059  0.00  0.00    +0.070 A 
ATOM      8  C   LIG    1       -0.093   3.812  -0.015  0.00  0.00    +0.040 A 
ATOM      9  C   LIG    1        1.122   3.155  -0.039  0.00  0.00    +0.040 A 
ATOM     10  C   LIG    1        1.166   1.768   0.011  0.00  0.00    +0.090 A 
ATOM     11  C   LIG    1       -0.010   1.040   0.085  0.00  0.00    +0.040 A 
BRANCH  10  12
ATOM     12  O   LIG    1        2.363   1.125  -0.013  0.00  0.00    -0.250 OA
BRANCH  12  13
ATOM     13  C   LIG    1        2.664   0.377  -1.107  0.00  0.00    +0.120 A 
ATOM     14  C   LIG    1        1.817   0.382  -2.207  0.00  0.00    -0.060 A 
ATOM     15  C   LIG    1        2.128  -0.376  -3.319  0.00  0.00    +0.050 A 
ATOM     16  C   LIG    1        3.275  -1.148  -3.334  0.00  0.00    -0.020 A 
ATOM     17  C   LIG    1        4.117  -1.159  -2.237  0.00  0.00    +0.050 A 
ATOM     18  C   LIG    1        3.815  -0.398  -1.124  0.00  0.00    -0.010 A 
ENDBRANCH  12  13
ENDBRANCH  10  12
ENDBRANCH   3   6
BRANCH   1  19
ATOM     19  N   LIG    1       -5.926   0.418   0.321  0.00  0.00    -0.670 N 
ATOM     20  H   LIG    1       -6.396   1.267   0.306  0.00  0.00    +0.430 HD
BRANCH  19  21
ATOM     21  C   LIG    1       -6.681  -0.835   0.395  0.00  0.00    +0.300 C 
BRANCH  21  26
ATOM     22  O   LIG    1      -11.444  -0.915  -0.078  0.00  0.00    -0.930 OA
ATOM     23  S   LIG    1      -10.636  -1.315   1.021  0.00  0.00    +2.390 S 
ATOM     24  C   LIG    1      -10.067   0.169   1.926  0.00  0.00    -0.310 C 
ATOM     25  C   LIG    1       -8.534   0.180   1.757  0.00  0.00    +0.070 C 
ATOM     26  C   LIG    1       -8.179  -0.527   0.437  0.00  0.00    +0.010 C 
ATOM     27  O   LIG    1      -11.125  -2.276   1.946  0.00  0.00    -0.930 OA
ATOM     28  C   LIG    1       -8.993  -1.846   0.406  0.00  0.00    -0.290 C 
ENDBRANCH  21  26
ENDBRANCH  19  21
ENDBRANCH   1  19
TORSDOF 6
