REMARK  Name = ZINCqH0000035R2X.0
REMARK                            x       y       z     vdW  Elec       q    Type
REMARK                         _______ _______ _______ _____ _____    ______ ____
ROOT
ATOM      1  C   LIG    1        2.669  -2.487  -4.295  0.00  0.00    +0.570 C 
ATOM      2  N   LIG    1        2.948  -1.749  -5.388  0.00  0.00    -0.610 N 
ATOM      3  C   LIG    1        2.892  -0.286  -5.317  0.00  0.00    +0.300 C 
ATOM      4  O   LIG    1        2.801  -3.695  -4.328  0.00  0.00    -0.520 OA
ENDROOT
BRANCH   1   8
ATOM      5  C   LIG    1        1.329  -0.593  -0.739  0.00  0.00    +0.220 A 
ATOM      6  C   LIG    1        2.325  -0.001  -1.506  0.00  0.00    -0.060 A 
ATOM      7  C   LIG    1        2.762  -0.612  -2.660  0.00  0.00    +0.160 A 
ATOM      8  C   LIG    1        2.203  -1.829  -3.059  0.00  0.00    -0.170 A 
ATOM      9  C   LIG    1        1.202  -2.421  -2.284  0.00  0.00    +0.210 A 
ATOM     10  C   LIG    1        0.774  -1.806  -1.129  0.00  0.00    -0.090 A 
BRANCH  10  11
ATOM     11  N   LIG    1       -0.283  -2.435  -0.305  0.00  0.00    +0.030 N 
ATOM     12  O   LIG    1       -0.665  -1.889   0.715  0.00  0.00    -0.130 OA
ATOM     13  O   LIG    1       -0.769  -3.498  -0.647  0.00  0.00    -0.170 OA
ENDBRANCH  10  11
BRANCH   5  15
ATOM     14  C   LIG    1        1.518   1.254   0.744  0.00  0.00    +0.280 C 
ATOM     15  O   LIG    1        0.901   0.013   0.398  0.00  0.00    -0.280 OA
ENDBRANCH   5  15
ENDBRANCH   1   8
BRANCH   2  16
ATOM     16  C   LIG    1        3.307  -2.408  -6.645  0.00  0.00    +0.300 C 
BRANCH  16  17
ATOM     17  C   LIG    1        2.041  -2.673  -7.462  0.00  0.00    +0.020 C 
BRANCH  17  18
ATOM     18  C   LIG    1        2.416  -3.362  -8.776  0.00  0.00    +0.200 C 
BRANCH  18  19
ATOM     19  O   LIG    1        1.233  -3.609  -9.539  0.00  0.00    -0.310 OA
BRANCH  19  20
ATOM     20  C   LIG    1        1.392  -4.220 -10.742  0.00  0.00    +0.140 A 
ATOM     21  C   LIG    1        2.660  -4.569 -11.182  0.00  0.00    -0.080 A 
ATOM     22  C   LIG    1        2.819  -5.195 -12.404  0.00  0.00    +0.070 A 
ATOM     23  C   LIG    1        1.717  -5.463 -13.193  0.00  0.00    -0.010 A 
ATOM     24  C   LIG    1        0.450  -5.112 -12.759  0.00  0.00    +0.000 A 
ATOM     25 CL   LIG    1       -0.932  -5.451 -13.752  0.00  0.00    -0.060 Cl
ATOM     26  C   LIG    1        0.286  -4.490 -11.535  0.00  0.00    -0.010 A 
ENDBRANCH  19  20
ENDBRANCH  18  19
ENDBRANCH  17  18
ENDBRANCH  16  17
ENDBRANCH   2  16
TORSDOF 8
