REMARK  Name = ZINCrD000000CAu2.0
REMARK                            x       y       z     vdW  Elec       q    Type
REMARK                         _______ _______ _______ _____ _____    ______ ____
ROOT
ATOM      1  O   LIG    1        1.015  -0.567  -0.366  0.00  0.00    -0.530 OA
ATOM      2  C   LIG    1        0.002  -0.004   0.002  0.00  0.00    +0.560 C 
ATOM      3  N   LIG    1        0.032   1.310   0.301  0.00  0.00    -0.610 N 
ATOM      4  C   LIG    1       -1.199   2.030   0.663  0.00  0.00    +0.280 C 
ATOM      5  C   LIG    1       -0.949   2.782   1.979  0.00  0.00    +0.170 C 
ATOM      6  N   LIG    1        0.245   3.627   1.835  0.00  0.00    -0.530 NA
ATOM      7  C   LIG    1        1.446   2.815   1.596  0.00  0.00    +0.170 C 
ATOM      8  C   LIG    1        1.295   2.063   0.270  0.00  0.00    +0.300 C 
ENDROOT
BRANCH   2   9
ATOM      9  C   LIG    1       -1.262  -0.761   0.122  0.00  0.00    -0.110 A 
ATOM     10  C   LIG    1       -1.287  -1.975   0.811  0.00  0.00    +0.070 A 
ATOM     11  C   LIG    1       -2.466  -2.677   0.926  0.00  0.00    +0.060 A 
ATOM     12  C   LIG    1       -3.633  -2.181   0.346  0.00  0.00    -0.000 A 
ATOM     13  C   LIG    1       -3.608  -0.972  -0.347  0.00  0.00    +0.050 A 
ATOM     14  C   LIG    1       -2.431  -0.265  -0.460  0.00  0.00    +0.050 A 
BRANCH  12  15
ATOM     15  C   LIG    1       -4.902  -2.941   0.466  0.00  0.00    +0.210 A 
ATOM     16  N   LIG    1       -6.063  -2.596  -0.026  0.00  0.00    -0.370 NA
ATOM     17  O   LIG    1       -6.897  -3.433   0.247  0.00  0.00    +0.090 OA
ATOM     18  C   LIG    1       -6.341  -4.419   0.958  0.00  0.00    +0.440 A 
ATOM     19  N   LIG    1       -5.073  -4.123   1.100  0.00  0.00    -0.480 NA
ENDBRANCH  12  15
ENDBRANCH   2   9
BRANCH   6  20
ATOM     20  C   LIG    1        0.420   4.494   3.007  0.00  0.00    +0.230 C 
BRANCH  20  21
ATOM     21  C   LIG    1       -0.900   5.124   3.369  0.00  0.00    -0.070 A 
ATOM     22  C   LIG    1       -1.750   4.488   4.255  0.00  0.00    +0.020 A 
ATOM     23  C   LIG    1       -2.961   5.065   4.587  0.00  0.00    +0.020 A 
ATOM     24  C   LIG    1       -3.324   6.278   4.033  0.00  0.00    +0.020 A 
ATOM     25  C   LIG    1       -2.474   6.915   3.146  0.00  0.00    -0.030 A 
ATOM     26 CL   LIG    1       -2.929   8.439   2.450  0.00  0.00    -0.070 Cl
ATOM     27  C   LIG    1       -1.260   6.340   2.818  0.00  0.00    +0.050 A 
ENDBRANCH  20  21
ENDBRANCH   6  20
TORSDOF 4
