REMARK  Name = ZINCqH00000018ur.0
REMARK                            x       y       z     vdW  Elec       q    Type
REMARK                         _______ _______ _______ _____ _____    ______ ____
ROOT
ATOM      1  N   LIG    1        2.242  -0.396   0.098  0.00  0.00    -0.720 N 
ATOM      2  H   LIG    1        1.333  -0.733   0.096  0.00  0.00    +0.400 HD
ATOM      3  C   LIG    1        3.278  -1.251   0.205  0.00  0.00    +0.520 C 
ATOM      4  O   LIG    1        4.415  -0.829   0.207  0.00  0.00    -0.500 OA
ENDROOT
BRANCH   1   6
ATOM      5  C   LIG    1        3.303   1.322  -1.282  0.00  0.00    +0.040 C 
ATOM      6  C   LIG    1        2.489   1.044  -0.017  0.00  0.00    +0.230 C 
ATOM      7  C   LIG    1        3.269   1.526   1.208  0.00  0.00    +0.060 C 
BRANCH   6   8
ATOM      8  C   LIG    1        1.174   1.775  -0.095  0.00  0.00    -0.080 A 
ATOM      9  C   LIG    1        0.034   1.203   0.439  0.00  0.00    +0.010 A 
ATOM     10  C   LIG    1       -1.176   1.868   0.364  0.00  0.00    +0.030 A 
ATOM     11  C   LIG    1       -1.247   3.115  -0.239  0.00  0.00    +0.050 A 
ATOM     12  O   LIG    1       -2.445   3.757  -0.305  0.00  0.00    -0.310 OA
ATOM     13  C   LIG    1       -2.407   5.161  -0.585  0.00  0.00    +0.220 C 
ATOM     14  C   LIG    1       -1.441   5.392  -1.755  0.00  0.00    +0.230 C 
ATOM     15  O   LIG    1       -0.148   4.913  -1.370  0.00  0.00    -0.310 OA
ATOM     16  C   LIG    1       -0.101   3.690  -0.774  0.00  0.00    +0.060 A 
ATOM     17  C   LIG    1        1.109   3.016  -0.701  0.00  0.00    +0.040 A 
ENDBRANCH   6   8
ENDBRANCH   1   6
BRANCH   3  18
ATOM     18  C   LIG    1        3.024  -2.732   0.323  0.00  0.00    +0.240 C 
BRANCH  18  19
ATOM     19  O   LIG    1        4.271  -3.423   0.424  0.00  0.00    -0.280 OA
BRANCH  19  20
ATOM     20  C   LIG    1        4.218  -4.777   0.537  0.00  0.00    +0.110 A 
ATOM     21  C   LIG    1        2.994  -5.425   0.557  0.00  0.00    -0.030 A 
ATOM     22  C   LIG    1        2.943  -6.802   0.667  0.00  0.00    +0.090 A 
ATOM     23  C   LIG    1        4.112  -7.533   0.769  0.00  0.00    -0.100 A 
ATOM     24  C   LIG    1        5.337  -6.889   0.755  0.00  0.00    +0.060 A 
ATOM     25 BR   LIG    1        4.038  -9.416   0.928  0.00  0.00    -0.030 Br
ATOM     26  C   LIG    1        5.393  -5.512   0.639  0.00  0.00    +0.080 A 
ATOM     27  F   LIG    1        6.588  -4.883   0.626  0.00  0.00    -0.120 F 
ENDBRANCH  19  20
ENDBRANCH  18  19
ENDBRANCH   3  18
TORSDOF 5
