REMARK  Name = ZINCrg000000tFgi.0
REMARK                            x       y       z     vdW  Elec       q    Type
REMARK                         _______ _______ _______ _____ _____    ______ ____
ROOT
ATOM      1  O   LIG    1       -1.358  -2.127   0.191  0.00  0.00    -0.530 OA
ATOM      2  C   LIG    1       -1.286  -0.915   0.161  0.00  0.00    +0.580 C 
ATOM      3  N   LIG    1       -2.409  -0.174   0.085  0.00  0.00    -0.680 N 
ATOM      4  H   LIG    1       -2.356   0.793   0.138  0.00  0.00    +0.420 HD
ENDROOT
BRANCH   3   5
ATOM      5  C   LIG    1       -3.709  -0.829  -0.076  0.00  0.00    +0.150 C 
ATOM      6  C   LIG    1       -4.809   0.231  -0.212  0.00  0.00    +0.260 C 
ATOM      7  O   LIG    1       -4.736   1.104   0.916  0.00  0.00    -0.310 OA
ATOM      8  C   LIG    1       -4.669   0.542   2.151  0.00  0.00    +0.130 A 
ATOM      9  C   LIG    1       -4.958   1.334   3.257  0.00  0.00    -0.020 A 
ATOM     10  C   LIG    1       -4.898   0.800   4.529  0.00  0.00    +0.040 A 
ATOM     11  C   LIG    1       -4.549  -0.526   4.705  0.00  0.00    -0.030 A 
ATOM     12  C   LIG    1       -4.262  -1.316   3.608  0.00  0.00    +0.040 A 
ATOM     13  C   LIG    1       -4.324  -0.786   2.330  0.00  0.00    -0.150 A 
ATOM     14  C   LIG    1       -4.014  -1.682   1.158  0.00  0.00    +0.110 C 
BRANCH   5  15
ATOM     15  C   LIG    1       -3.689  -1.714  -1.324  0.00  0.00    +0.200 C 
BRANCH  15  16
ATOM     16  O   LIG    1       -3.293  -0.935  -2.454  0.00  0.00    -0.570 OA
ATOM     17  H   LIG    1       -3.259  -1.433  -3.283  0.00  0.00    +0.380 HD
ENDBRANCH  15  16
ENDBRANCH   5  15
ENDBRANCH   3   5
BRANCH   2  18
ATOM     18  C   LIG    1        0.038  -0.251   0.207  0.00  0.00    +0.100 A 
ATOM     19  C   LIG    1        1.193  -1.021   0.285  0.00  0.00    +0.020 A 
ATOM     20  C   LIG    1        2.431  -0.380   0.328  0.00  0.00    +0.150 A 
ATOM     21  C   LIG    1        2.456   1.013   0.291  0.00  0.00    -0.060 A 
ATOM     22  C   LIG    1        1.264   1.709   0.212  0.00  0.00    +0.300 A 
ATOM     23  N   LIG    1        0.111   1.075   0.173  0.00  0.00    -0.480 NA
BRANCH  20  24
ATOM     24  N   LIG    1        3.611  -1.113   0.406  0.00  0.00    -0.480 N 
ATOM     25  C   LIG    1        3.601  -2.005   1.575  0.00  0.00    +0.180 C 
ATOM     26  C   LIG    1        4.889  -2.834   1.589  0.00  0.00    +0.240 C 
ATOM     27  O   LIG    1        6.016  -1.954   1.590  0.00  0.00    -0.380 OA
ATOM     28  C   LIG    1        6.058  -1.071   0.465  0.00  0.00    +0.230 C 
ATOM     29  C   LIG    1        4.782  -0.225   0.439  0.00  0.00    +0.170 C 
ENDBRANCH  20  24
ENDBRANCH   2  18
TORSDOF 5
