REMARK  Name = ZINCvU00000004DN.0
REMARK                            x       y       z     vdW  Elec       q    Type
REMARK                         _______ _______ _______ _____ _____    ______ ____
ROOT
ATOM      1  C   LIG    1       -0.184   0.986   2.481  0.00  0.00    +0.190 C 
ENDROOT
BRANCH   1   2
ATOM      2  C   LIG    1       -1.490   1.317   3.157  0.00  0.00    -0.100 A 
ATOM      3  C   LIG    1       -2.660   1.347   2.422  0.00  0.00    +0.080 A 
ATOM      4  C   LIG    1       -3.858   1.648   3.042  0.00  0.00    +0.000 A 
ATOM      5  C   LIG    1       -3.885   1.926   4.396  0.00  0.00    +0.010 A 
ATOM      6  C   LIG    1       -2.713   1.901   5.130  0.00  0.00    -0.010 A 
ATOM      7  C   LIG    1       -1.516   1.597   4.510  0.00  0.00    +0.010 A 
ENDBRANCH   1   2
BRANCH   1   8
ATOM      8  C   LIG    1       -0.068  -0.508   2.317  0.00  0.00    +0.520 C 
ATOM      9  N   LIG    1        0.477  -1.253   3.299  0.00  0.00    -0.670 N 
ATOM     10  H   LIG    1        0.865  -0.822   4.077  0.00  0.00    +0.410 HD
ATOM     11  O   LIG    1       -0.465  -1.039   1.302  0.00  0.00    -0.490 OA
BRANCH   9  12
ATOM     12  C   LIG    1        0.482  -2.648   3.198  0.00  0.00    +0.150 A 
ATOM     13  C   LIG    1       -0.400  -3.287   2.335  0.00  0.00    +0.010 A 
ATOM     14  C   LIG    1       -0.389  -4.664   2.233  0.00  0.00    -0.070 A 
ATOM     15  C   LIG    1        0.492  -5.408   2.996  0.00  0.00    -0.020 A 
ATOM     16  C   LIG    1        1.367  -4.776   3.861  0.00  0.00    +0.030 A 
ATOM     17  C   LIG    1       -1.341  -5.357   1.293  0.00  0.00    +0.100 C 
ATOM     18  C   LIG    1        1.365  -3.399   3.963  0.00  0.00    -0.130 A 
ATOM     19  C   LIG    1        2.319  -2.711   4.905  0.00  0.00    +0.090 C 
ENDBRANCH   9  12
ENDBRANCH   1   8
BRANCH   1  20
ATOM     20  N   LIG    1       -0.139   1.628   1.161  0.00  0.00    -0.500 NA
ATOM     21  C   LIG    1        1.079   1.248   0.432  0.00  0.00    +0.200 C 
BRANCH  20  22
ATOM     22  C   LIG    1       -0.246   3.088   1.281  0.00  0.00    +0.240 C 
BRANCH  22  26
ATOM     23  C   LIG    1       -0.806   4.803  -2.597  0.00  0.00    +0.170 A 
ATOM     24  C   LIG    1        0.450   4.810  -2.005  0.00  0.00    -0.120 A 
ATOM     25  C   LIG    1        0.626   4.260  -0.750  0.00  0.00    +0.090 A 
ATOM     26  C   LIG    1       -0.444   3.692  -0.085  0.00  0.00    -0.150 A 
ATOM     27  C   LIG    1       -1.701   3.683  -0.673  0.00  0.00    +0.190 A 
ATOM     28  C   LIG    1       -1.882   4.239  -1.929  0.00  0.00    -0.110 A 
BRANCH  23  30
ATOM     29  C   LIG    1        0.173   5.913  -4.457  0.00  0.00    +0.250 C 
ATOM     30  O   LIG    1       -0.980   5.349  -3.829  0.00  0.00    -0.320 OA
ENDBRANCH  23  30
BRANCH  27  31
ATOM     31  O   LIG    1       -2.754   3.129  -0.016  0.00  0.00    -0.290 OA
ATOM     32  C   LIG    1       -4.019   3.154  -0.681  0.00  0.00    +0.240 C 
ENDBRANCH  27  31
ENDBRANCH  22  26
ENDBRANCH  20  22
ENDBRANCH   1  20
TORSDOF 8
