REMARK  Name = ZINCAx0000000jr5.0
REMARK                            x       y       z     vdW  Elec       q    Type
REMARK                         _______ _______ _______ _____ _____    ______ ____
ROOT
ATOM      1  N   LIG    1       -3.363   1.591  -0.098  0.00  0.00    -0.580 N 
ATOM      2  C   LIG    1       -2.101   1.119  -0.066  0.00  0.00    +0.580 C 
ATOM      3  O   LIG    1       -1.165   1.873  -0.246  0.00  0.00    -0.510 OA
ENDROOT
BRANCH   2   4
ATOM      4  C   LIG    1       -1.854  -0.319   0.191  0.00  0.00    +0.070 A 
ATOM      5  C   LIG    1       -0.567  -0.834   0.055  0.00  0.00    +0.050 A 
ATOM      6  C   LIG    1       -0.350  -2.180   0.304  0.00  0.00    -0.010 A 
ATOM      7  C   LIG    1       -1.430  -2.966   0.675  0.00  0.00    -0.010 A 
ATOM      8  C   LIG    1       -2.685  -2.388   0.785  0.00  0.00    +0.270 A 
ATOM      9  N   LIG    1       -2.862  -1.108   0.543  0.00  0.00    -0.450 NA
BRANCH   6  10
ATOM     10  C   LIG    1        1.028  -2.776   0.175  0.00  0.00    -0.010 C 
ATOM     11  C   LIG    1        1.151  -4.298   0.268  0.00  0.00    +0.030 C 
ATOM     12  C   LIG    1        1.640  -3.419   1.421  0.00  0.00    +0.040 C 
ENDBRANCH   6  10
ENDBRANCH   2   4
BRANCH   1  13
ATOM     13  C   LIG    1       -4.487   0.697   0.192  0.00  0.00    +0.310 C 
BRANCH  13  14
ATOM     14  C   LIG    1       -4.670   0.583   1.706  0.00  0.00    +0.090 C 
BRANCH  14  15
ATOM     15  C   LIG    1       -5.844  -0.351   2.009  0.00  0.00    +0.050 C 
ATOM     16  N   LIG    1       -6.156  -1.417   1.054  0.00  0.00    -0.110 NA
ATOM     17  N   LIG    1       -6.932  -0.448   1.033  0.00  0.00    -0.130 NA
BRANCH  15  18
ATOM     18  C   LIG    1       -6.165  -0.576   3.488  0.00  0.00    +0.100 C 
BRANCH  18  19
ATOM     19  C   LIG    1       -7.356  -1.527   3.613  0.00  0.00    +0.160 C 
BRANCH  19  21
ATOM     20  C   LIG    1       -7.911  -1.916   6.171  0.00  0.00    +0.030 C 
ATOM     21  C   LIG    1       -7.665  -1.744   5.036  0.00  0.00    -0.190 C 
ENDBRANCH  19  21
ENDBRANCH  18  19
ENDBRANCH  15  18
ENDBRANCH  14  15
ENDBRANCH  13  14
ENDBRANCH   1  13
BRANCH   1  22
ATOM     22  C   LIG    1       -3.611   2.997  -0.423  0.00  0.00    +0.350 C 
BRANCH  22  23
ATOM     23  C   LIG    1       -3.042   3.872   0.664  0.00  0.00    +0.010 A 
ATOM     24  C   LIG    1       -3.425   5.136   0.959  0.00  0.00    +0.010 A 
ATOM     25  C   LIG    1       -2.609   5.535   2.045  0.00  0.00    -0.000 A 
ATOM     26  N   LIG    1       -1.816   4.519   2.323  0.00  0.00    -0.210 NA
ATOM     27  N   LIG    1       -2.060   3.539   1.529  0.00  0.00    -0.340 N 
ATOM     28  H   LIG    1       -1.603   2.684   1.546  0.00  0.00    +0.450 HD
BRANCH  25  29
ATOM     29  C   LIG    1       -2.640   6.839   2.736  0.00  0.00    +0.560 C 
ATOM     30  O   LIG    1       -3.424   7.696   2.380  0.00  0.00    -0.500 OA
BRANCH  29  31
ATOM     31  O   LIG    1       -1.800   7.079   3.761  0.00  0.00    -0.340 OA
BRANCH  31  32
ATOM     32  C   LIG    1       -1.886   8.383   4.393  0.00  0.00    +0.200 C 
ATOM     33  C   LIG    1       -0.862   8.469   5.526  0.00  0.00    +0.070 C 
ENDBRANCH  31  32
ENDBRANCH  29  31
ENDBRANCH  25  29
ENDBRANCH  22  23
BRANCH  22  34
ATOM     34  C   LIG    1       -2.950   3.334  -1.736  0.00  0.00    +0.510 C 
ATOM     35  N   LIG    1       -3.046   4.581  -2.238  0.00  0.00    -0.730 N 
ATOM     36  H   LIG    1       -3.539   5.262  -1.755  0.00  0.00    +0.400 HD
ATOM     37  C   LIG    1       -2.404   4.907  -3.514  0.00  0.00    +0.290 C 
ATOM     38  O   LIG    1       -2.333   2.482  -2.340  0.00  0.00    -0.510 OA
ENDBRANCH  22  34
ENDBRANCH   1  22
TORSDOF 14
