REMARK  Name = ZINCqH0000003YV2.0
REMARK                            x       y       z     vdW  Elec       q    Type
REMARK                         _______ _______ _______ _____ _____    ______ ____
ROOT
ATOM      1  C   LIG    1       -0.948   6.560   0.816  0.00  0.00    +0.520 C 
ATOM      2  N   LIG    1        0.297   6.085   1.018  0.00  0.00    -0.680 N 
ATOM      3  H   LIG    1        1.063   6.569   0.672  0.00  0.00    +0.410 HD
ATOM      4  O   LIG    1       -1.905   5.959   1.258  0.00  0.00    -0.500 OA
ENDROOT
BRANCH   2   5
ATOM      5  C   LIG    1        0.484   4.892   1.726  0.00  0.00    +0.210 A 
ATOM      6  C   LIG    1        1.534   4.045   1.396  0.00  0.00    -0.030 A 
ATOM      7  C   LIG    1        1.716   2.869   2.097  0.00  0.00    +0.140 A 
ATOM      8  C   LIG    1        0.855   2.535   3.126  0.00  0.00    -0.700 A 
ATOM      9  C   LIG    1       -0.194   3.374   3.454  0.00  0.00    +0.140 A 
ATOM     10  C   LIG    1       -0.379   4.554   2.760  0.00  0.00    +0.000 A 
BRANCH   8  11
ATOM     11  S   LIG    1        1.091   1.033   4.017  0.00  0.00    +2.700 S 
ATOM     12  O   LIG    1        1.817   0.166   3.157  0.00  0.00    -0.950 OA
ATOM     13  O   LIG    1       -0.172   0.696   4.576  0.00  0.00    -0.950 OA
BRANCH  11  14
ATOM     14  N   LIG    1        2.091   1.372   5.293  0.00  0.00    -1.010 NA
ATOM     15  C   LIG    1        3.543   1.252   5.136  0.00  0.00    +0.300 C 
ATOM     16  C   LIG    1        1.524   1.790   6.577  0.00  0.00    +0.300 C 
ENDBRANCH  11  14
ENDBRANCH   8  11
ENDBRANCH   2   5
BRANCH   1  17
ATOM     17  C   LIG    1       -1.151   7.837   0.043  0.00  0.00    +0.050 C 
BRANCH  17  18
ATOM     18  C   LIG    1       -2.617   8.185   0.024  0.00  0.00    -0.070 A 
ATOM     19  C   LIG    1       -3.352   8.145   1.194  0.00  0.00    +0.040 A 
ATOM     20  C   LIG    1       -4.696   8.469   1.177  0.00  0.00    +0.000 A 
ATOM     21  C   LIG    1       -5.307   8.824  -0.012  0.00  0.00    +0.000 A 
ATOM     22  C   LIG    1       -4.573   8.858  -1.183  0.00  0.00    +0.000 A 
ATOM     23  C   LIG    1       -3.228   8.539  -1.165  0.00  0.00    +0.010 A 
ENDBRANCH  17  18
BRANCH  17  24
ATOM     24  C   LIG    1       -0.367   8.968   0.711  0.00  0.00    +0.000 C 
ATOM     25  C   LIG    1       -0.735   9.037   2.194  0.00  0.00    +0.020 C 
BRANCH  24  27
ATOM     26  C   LIG    1        0.131  11.415   0.648  0.00  0.00    +0.020 C 
ATOM     27  C   LIG    1       -0.715  10.297   0.037  0.00  0.00    +0.010 C 
ENDBRANCH  24  27
ENDBRANCH  17  24
ENDBRANCH   1  17
TORSDOF 7
