REMARK  Name = ZINCpk00000xI5w1.0
REMARK                            x       y       z     vdW  Elec       q    Type
REMARK                         _______ _______ _______ _____ _____    ______ ____
ROOT
ATOM      1  N   LIG    1        5.185   4.741  -1.309  0.00  0.00    -0.520 NA
ATOM      2  C   LIG    1        3.994   5.601  -1.318  0.00  0.00    +0.170 C 
ATOM      3  C   LIG    1        3.121   5.269  -0.103  0.00  0.00    +0.280 C 
ATOM      4  N   LIG    1        2.845   3.825  -0.106  0.00  0.00    -0.630 N 
ATOM      5  C   LIG    1        3.981   2.899  -0.228  0.00  0.00    +0.320 C 
ATOM      6  C   LIG    1        1.584   3.361   0.005  0.00  0.00    +0.710 C 
ATOM      7  N   LIG    1        0.548   4.223   0.020  0.00  0.00    -0.750 N 
ATOM      8  H   LIG    1        0.712   5.179   0.024  0.00  0.00    +0.390 HD
ATOM      9  O   LIG    1        1.381   2.165   0.092  0.00  0.00    -0.590 OA
ATOM     10  C   LIG    1        4.821   3.324  -1.443  0.00  0.00    +0.180 C 
ENDROOT
BRANCH   1  11
ATOM     11  C   LIG    1        6.132   5.142  -2.358  0.00  0.00    +0.200 C 
BRANCH  11  14
ATOM     12  N   LIG    1        8.459   4.620  -3.017  0.00  0.00    -0.730 N 
ATOM     13  H   LIG    1        8.357   5.244  -3.753  0.00  0.00    +0.400 HD
ATOM     14  C   LIG    1        7.435   4.409  -2.167  0.00  0.00    +0.520 C 
ATOM     15  O   LIG    1        7.562   3.629  -1.246  0.00  0.00    -0.510 OA
BRANCH  12  17
ATOM     16  C   LIG    1        9.479   2.400  -2.916  0.00  0.00    +0.030 C 
ATOM     17  C   LIG    1        9.725   3.908  -2.831  0.00  0.00    +0.170 C 
ATOM     18  C   LIG    1       10.307   4.253  -1.459  0.00  0.00    +0.030 C 
ATOM     19  C   LIG    1       10.711   4.326  -3.924  0.00  0.00    +0.030 C 
ENDBRANCH  12  17
ENDBRANCH  11  14
ENDBRANCH   1  11
BRANCH   7  20
ATOM     20  C   LIG    1       -0.827   3.716   0.028  0.00  0.00    +0.280 C 
BRANCH  20  21
ATOM     21  C   LIG    1       -1.804   4.893   0.044  0.00  0.00    +0.070 C 
BRANCH  21  22
ATOM     22  C   LIG    1       -3.218   4.371   0.053  0.00  0.00    -0.080 A 
ATOM     23  C   LIG    1       -3.879   4.145  -1.140  0.00  0.00    +0.010 A 
ATOM     24  C   LIG    1       -5.174   3.662  -1.132  0.00  0.00    +0.000 A 
ATOM     25  C   LIG    1       -5.812   3.414   0.070  0.00  0.00    +0.000 A 
ATOM     26  C   LIG    1       -5.153   3.646   1.262  0.00  0.00    +0.000 A 
ATOM     27  C   LIG    1       -3.856   4.124   1.254  0.00  0.00    +0.010 A 
ENDBRANCH  21  22
ENDBRANCH  20  21
ENDBRANCH   7  20
TORSDOF 6
