REMARK  Name = ZINCpe00000gN3pt.0
REMARK                            x       y       z     vdW  Elec       q    Type
REMARK                         _______ _______ _______ _____ _____    ______ ____
ROOT
ATOM      1  C   LIG    1        0.076   1.077  -0.027  0.00  0.00    +0.310 C 
ATOM      2  N   LIG    1       -0.734   1.587   1.072  0.00  0.00    -0.720 N 
ATOM      3  H   LIG    1       -1.699   1.556   0.978  0.00  0.00    +0.410 HD
ATOM      4  C   LIG    1       -0.232   2.094   2.199  0.00  0.00    +0.520 C 
ATOM      5  C   LIG    1        1.240   2.247   2.455  0.00  0.00    +0.080 C 
ATOM      6  C   LIG    1        2.032   1.369   1.484  0.00  0.00    +0.030 C 
ATOM      7  O   LIG    1       -1.005   2.452   3.062  0.00  0.00    -0.540 OA
ATOM      8  C   LIG    1        1.504   1.617   0.065  0.00  0.00    +0.240 C 
ENDROOT
BRANCH   1  14
ATOM      9  C   LIG    1       -0.315   3.988  -1.018  0.00  0.00    +0.350 C 
ATOM     10  N   LIG    1       -0.701   2.781  -1.754  0.00  0.00    -0.350 N 
ATOM     11  N   LIG    1       -1.305   2.744  -3.017  0.00  0.00    -0.280 NA
ATOM     12  C   LIG    1       -1.495   1.491  -3.342  0.00  0.00    +0.240 A 
ATOM     13  C   LIG    1       -1.015   0.692  -2.300  0.00  0.00    -0.100 A 
ATOM     14  C   LIG    1       -0.537   1.509  -1.334  0.00  0.00    +0.050 A 
ENDBRANCH   1  14
BRANCH   8  15
ATOM     15  N   LIG    1        2.354   0.926  -0.907  0.00  0.00    -0.710 N 
ATOM     16  H   LIG    1        2.116   0.037  -1.214  0.00  0.00    +0.410 HD
ATOM     17  C   LIG    1        3.467   1.524  -1.374  0.00  0.00    +0.570 C 
ATOM     18  O   LIG    1        3.817   2.598  -0.920  0.00  0.00    -0.520 OA
BRANCH  17  19
ATOM     19  C   LIG    1        4.259   0.881  -2.433  0.00  0.00    +0.020 A 
ATOM     20  C   LIG    1        3.804  -0.276  -3.024  0.00  0.00    +0.070 A 
ATOM     21  C   LIG    1        4.556  -0.889  -4.032  0.00  0.00    +0.020 A 
ATOM     22  C   LIG    1        5.738  -0.340  -4.428  0.00  0.00    +0.130 A 
ATOM     23  C   LIG    1        6.198   0.845  -3.820  0.00  0.00    +0.200 A 
ATOM     24  N   LIG    1        7.288   1.577  -4.007  0.00  0.00    -0.480 NA
ATOM     25  C   LIG    1        7.264   2.616  -3.173  0.00  0.00    +0.220 A 
ATOM     26  C   LIG    1        6.132   2.550  -2.433  0.00  0.00    +0.120 A 
ATOM     27  N   LIG    1        5.452   1.441  -2.836  0.00  0.00    -0.340 N 
ENDBRANCH  17  19
ENDBRANCH   8  15
TORSDOF 3
