REMARK  Name = ZINCrD000000DfoU.0
REMARK                            x       y       z     vdW  Elec       q    Type
REMARK                         _______ _______ _______ _____ _____    ______ ____
ROOT
ATOM      1  C   LIG    1        2.415  -5.885   2.273  0.00  0.00    -0.060 A 
ATOM      2  C   LIG    1        2.687  -5.507   1.002  0.00  0.00    +0.190 A 
ATOM      3  N   LIG    1        3.173  -4.246   1.080  0.00  0.00    -0.290 N 
ATOM      4  N   LIG    1        3.182  -3.893   2.318  0.00  0.00    -0.070 NA
ATOM      5  N   LIG    1        2.736  -4.848   3.055  0.00  0.00    -0.250 NA
ENDROOT
BRANCH   1   6
ATOM      6  C   LIG    1        1.855  -7.211   2.719  0.00  0.00    +0.370 C 
BRANCH   6   7
ATOM      7  C   LIG    1        2.768  -7.819   3.753  0.00  0.00    -0.110 A 
ATOM      8  C   LIG    1        2.637  -7.467   5.083  0.00  0.00    +0.070 A 
ATOM      9  C   LIG    1        3.474  -8.025   6.031  0.00  0.00    +0.020 A 
ATOM     10  C   LIG    1        4.441  -8.936   5.650  0.00  0.00    +0.070 A 
ATOM     11  C   LIG    1        4.571  -9.289   4.319  0.00  0.00    -0.180 A 
ATOM     12  C   LIG    1        3.732  -8.734   3.372  0.00  0.00    +0.070 A 
BRANCH  11  13
ATOM     13  C   LIG    1        5.625 -10.283   3.903  0.00  0.00    +0.510 C 
ATOM     14  F   LIG    1        6.500  -9.680   2.993  0.00  0.00    -0.180 F 
ATOM     15  F   LIG    1        5.013 -11.387   3.300  0.00  0.00    -0.180 F 
ATOM     16  F   LIG    1        6.340 -10.703   5.029  0.00  0.00    -0.180 F 
ENDBRANCH  11  13
ENDBRANCH   6   7
BRANCH   6  17
ATOM     17  O   LIG    1        0.558  -7.014   3.285  0.00  0.00    -0.540 OA
ATOM     18  H   LIG    1        0.549  -6.428   4.054  0.00  0.00    +0.380 HD
ENDBRANCH   6  17
ENDBRANCH   1   6
BRANCH   3  19
ATOM     19  C   LIG    1        3.607  -3.423  -0.051  0.00  0.00    +0.460 C 
BRANCH  19  20
ATOM     20  C   LIG    1        2.858  -2.115  -0.037  0.00  0.00    +0.250 A 
ATOM     21  N   LIG    1        1.562  -1.998  -0.024  0.00  0.00    -0.460 NA
ATOM     22  C   LIG    1        1.223  -0.684  -0.013  0.00  0.00    +0.040 A 
ATOM     23  C   LIG    1        0.002  -0.004   0.002  0.00  0.00    +0.070 A 
ATOM     24  C   LIG    1       -0.017   1.362   0.009  0.00  0.00    +0.000 A 
ATOM     25  C   LIG    1        1.167   2.086   0.002  0.00  0.00    +0.040 A 
ATOM     26  C   LIG    1        2.383   1.437  -0.013  0.00  0.00    +0.020 A 
ATOM     27  C   LIG    1        2.422   0.049  -0.021  0.00  0.00    +0.060 A 
ATOM     28  N   LIG    1        3.439  -0.885  -0.036  0.00  0.00    -0.590 N 
ATOM     29  H   LIG    1        4.391  -0.698  -0.044  0.00  0.00    +0.430 HD
ENDBRANCH  19  20
ENDBRANCH   3  19
TORSDOF 6
