REMARK  Name = ZINCpe00000MJLql.0
REMARK                            x       y       z     vdW  Elec       q    Type
REMARK                         _______ _______ _______ _____ _____    ______ ____
ROOT
ATOM      1  C   LIG    1        0.172  -2.703  -0.277  0.00  0.00    +0.400 A 
ATOM      2  N   LIG    1       -0.712  -1.744  -0.509  0.00  0.00    -0.520 NA
ATOM      3  C   LIG    1       -0.441  -0.478  -0.258  0.00  0.00    +0.440 A 
ATOM      4  C   LIG    1        0.783  -0.105   0.260  0.00  0.00    -0.750 A 
ATOM      5  C   LIG    1        1.740  -1.079   0.514  0.00  0.00    +0.250 A 
ATOM      6  C   LIG    1        1.425  -2.398   0.245  0.00  0.00    -0.230 A 
ENDROOT
BRANCH   6   7
ATOM      7  C   LIG    1        2.429  -3.491   0.508  0.00  0.00    +0.530 C 
ATOM      8  F   LIG    1        2.625  -4.235  -0.660  0.00  0.00    -0.160 F 
ATOM      9  F   LIG    1        1.950  -4.330   1.520  0.00  0.00    -0.170 F 
ATOM     10  F   LIG    1        3.643  -2.923   0.909  0.00  0.00    -0.180 F 
ENDBRANCH   6   7
BRANCH   4  11
ATOM     11  S   LIG    1        1.130   1.591   0.590  0.00  0.00    +2.710 S 
ATOM     12  O   LIG    1        0.265   2.348  -0.246  0.00  0.00    -0.940 OA
ATOM     13  O   LIG    1        2.545   1.723   0.567  0.00  0.00    -0.940 OA
BRANCH  11  14
ATOM     14  N   LIG    1        0.657   1.894   2.148  0.00  0.00    -1.110 NA
ATOM     15  H   LIG    1       -0.071   2.511   2.322  0.00  0.00    +0.430 HD
BRANCH  14  16
ATOM     16  C   LIG    1        1.338   1.231   3.262  0.00  0.00    +0.280 C 
BRANCH  16  17
ATOM     17  C   LIG    1        0.986   1.941   4.571  0.00  0.00    +0.200 C 
BRANCH  17  18
ATOM     18  O   LIG    1       -0.410   1.787   4.835  0.00  0.00    -0.570 OA
ATOM     19  H   LIG    1       -0.705   2.213   5.652  0.00  0.00    +0.390 HD
ENDBRANCH  17  18
ENDBRANCH  16  17
ENDBRANCH  14  16
ENDBRANCH  11  14
ENDBRANCH   4  11
BRANCH   1  21
ATOM     20  C   LIG    1       -0.290  -4.239  -2.003  0.00  0.00    +0.250 C 
ATOM     21  N   LIG    1       -0.156  -4.024  -0.556  0.00  0.00    -0.500 N 
BRANCH  21  22
ATOM     22  C   LIG    1       -1.380  -4.424   0.152  0.00  0.00    +0.210 C 
BRANCH  22  23
ATOM     23  C   LIG    1       -1.571  -5.937   0.024  0.00  0.00    -0.030 C 
ATOM     24  C   LIG    1       -2.872  -6.380   0.737  0.00  0.00    +0.010 C 
ATOM     25  C   LIG    1       -2.435  -7.701   1.420  0.00  0.00    +0.200 C 
ATOM     26  O   LIG    1       -1.079  -7.432   1.835  0.00  0.00    -0.380 OA
ATOM     27  C   LIG    1       -0.455  -6.687   0.776  0.00  0.00    +0.200 C 
ENDBRANCH  22  23
ENDBRANCH  21  22
ENDBRANCH   1  21
TORSDOF 9
