REMARK  Name = ZINCbw0000000Hh0.0
REMARK                            x       y       z     vdW  Elec       q    Type
REMARK                         _______ _______ _______ _____ _____    ______ ____
ROOT
ATOM      1  C   LIG    1        0.002  -0.004   0.002  0.00  0.00    +0.320 A 
ATOM      2  N   LIG    1       -0.016   1.321   0.009  0.00  0.00    -0.470 NA
ATOM      3  C   LIG    1        1.113   2.014   0.002  0.00  0.00    +0.220 A 
ATOM      4  C   LIG    1        2.324   1.335  -0.013  0.00  0.00    +0.010 A 
ATOM      5  C   LIG    1        2.305  -0.054  -0.020  0.00  0.00    +0.220 A 
ATOM      6 CL   LIG    1        3.789  -0.954  -0.038  0.00  0.00    +0.030 Cl
ATOM      7  F   LIG    1        3.494   2.009  -0.020  0.00  0.00    -0.090 F 
ATOM      8 CL   LIG    1        1.079   3.749   0.012  0.00  0.00    +0.040 Cl
ATOM      9  N   LIG    1        1.140  -0.684  -0.012  0.00  0.00    -0.490 NA
ENDROOT
BRANCH   1  11
ATOM     10  C   LIG    1       -0.906  -2.585  -0.003  0.00  0.00    +0.160 C 
ATOM     11  S   LIG    1       -1.524  -0.884   0.012  0.00  0.00    +0.060 S 
ENDBRANCH   1  11
TORSDOF 1
