REMARK  Name = ZINCnE00000hdb12.0
REMARK                            x       y       z     vdW  Elec       q    Type
REMARK                         _______ _______ _______ _____ _____    ______ ____
ROOT
ATOM      1  C   LIG    1        1.468   4.333   0.011  0.00  0.00    +0.410 A 
ATOM      2  N   LIG    1        1.017   5.540   0.016  0.00  0.00    -0.520 NA
ATOM      3  C   LIG    1        1.913   6.547   0.017  0.00  0.00    +0.130 A 
ATOM      4  C   LIG    1        1.677   7.938   0.026  0.00  0.00    +0.110 A 
ATOM      5  C   LIG    1        2.728   8.821   0.019  0.00  0.00    -0.170 A 
ATOM      6  C   LIG    1        4.036   8.362   0.003  0.00  0.00    +0.040 A 
ATOM      7  C   LIG    1        4.290   7.008  -0.006  0.00  0.00    +0.090 A 
ATOM      8  C   LIG    1        3.237   6.098   0.001  0.00  0.00    -0.210 A 
ATOM      9  S   LIG    1        3.225   4.336  -0.008  0.00  0.00    +0.130 S 
ENDROOT
BRANCH   1  13
ATOM     10  C   LIG    1       -1.115   1.853   0.017  0.00  0.00    +0.120 A 
ATOM     11  C   LIG    1       -0.013   1.076   0.008  0.00  0.00    -0.320 A 
ATOM     12  C   LIG    1        1.121   1.921   0.002  0.00  0.00    +0.480 A 
ATOM     13  N   LIG    1        0.679   3.196   0.013  0.00  0.00    -0.360 N 
ATOM     14  O   LIG    1        2.284   1.564  -0.011  0.00  0.00    -0.600 OA
ATOM     15  N   LIG    1       -0.722   3.161   0.026  0.00  0.00    -0.400 NA
BRANCH  10  16
ATOM     16  C   LIG    1       -2.539   1.361   0.020  0.00  0.00    +0.240 C 
ATOM     17  C   LIG    1       -3.252   1.869   1.275  0.00  0.00    +0.020 C 
BRANCH  16  19
ATOM     18  C   LIG    1       -3.688  -0.637  -0.640  0.00  0.00    +0.190 C 
ATOM     19  O   LIG    1       -2.550  -0.068   0.011  0.00  0.00    -0.370 OA
ENDBRANCH  16  19
ENDBRANCH  10  16
ENDBRANCH   1  13
BRANCH   5  20
ATOM     20  C   LIG    1        2.457  10.304   0.029  0.00  0.00    +0.510 C 
ATOM     21  F   LIG    1        1.736  10.638   1.181  0.00  0.00    -0.180 F 
ATOM     22  F   LIG    1        1.712  10.650  -1.104  0.00  0.00    -0.180 F 
ATOM     23  F   LIG    1        3.671  10.999   0.020  0.00  0.00    -0.180 F 
ENDBRANCH   5  20
TORSDOF 4
