REMARK  Name = ZINCrH000004qZYY.0
REMARK                            x       y       z     vdW  Elec       q    Type
REMARK                         _______ _______ _______ _____ _____    ______ ____
ROOT
ATOM      1  N   LIG    1       -1.219   1.980   2.791  0.00  0.00    -0.630 N 
ATOM      2  H   LIG    1       -1.916   1.580   2.248  0.00  0.00    +0.420 HD
ATOM      3  C   LIG    1        0.014   2.162   2.279  0.00  0.00    +0.530 C 
ATOM      4  O   LIG    1        0.885   2.662   2.958  0.00  0.00    -0.510 OA
ENDROOT
BRANCH   1   7
ATOM      5  N   LIG    1       -2.509   2.751   6.021  0.00  0.00    -0.320 N 
ATOM      6  N   LIG    1       -2.650   2.251   4.720  0.00  0.00    -0.310 NA
ATOM      7  C   LIG    1       -1.494   2.368   4.109  0.00  0.00    +0.300 A 
ATOM      8  C   LIG    1       -0.583   2.956   5.002  0.00  0.00    -0.080 A 
ATOM      9  C   LIG    1       -1.230   3.181   6.168  0.00  0.00    +0.100 A 
ATOM     10  C   LIG    1       -0.637   3.799   7.408  0.00  0.00    +0.150 C 
BRANCH   5  15
ATOM     11  C   LIG    1       -6.576   2.959   9.974  0.00  0.00    +0.090 C 
ATOM     12  C   LIG    1       -5.496   2.904   8.925  0.00  0.00    -0.080 A 
ATOM     13  C   LIG    1       -4.644   3.980   8.754  0.00  0.00    +0.030 A 
ATOM     14  C   LIG    1       -3.654   3.932   7.793  0.00  0.00    +0.010 A 
ATOM     15  C   LIG    1       -3.513   2.802   6.997  0.00  0.00    +0.150 A 
ATOM     16  C   LIG    1       -4.373   1.726   7.168  0.00  0.00    +0.030 A 
ATOM     17  C   LIG    1       -5.359   1.777   8.135  0.00  0.00    +0.030 A 
ENDBRANCH   5  15
ENDBRANCH   1   7
BRANCH   3  18
ATOM     18  C   LIG    1        0.310   1.744   0.862  0.00  0.00    +0.020 C 
ATOM     19  C   LIG    1       -0.604   2.510  -0.100  0.00  0.00    +0.030 C 
ATOM     20  C   LIG    1       -0.255   2.124  -1.540  0.00  0.00    +0.050 C 
ATOM     21  C   LIG    1        1.222   2.429  -1.801  0.00  0.00    +0.170 C 
ATOM     22  N   LIG    1        2.054   1.672  -0.857  0.00  0.00    -0.520 NA
ATOM     23  C   LIG    1        1.770   2.060   0.530  0.00  0.00    +0.210 C 
BRANCH  22  24
ATOM     24  C   LIG    1        3.481   1.832  -1.168  0.00  0.00    +0.270 C 
BRANCH  24  25
ATOM     25  C   LIG    1        3.793   3.315  -1.381  0.00  0.00    +0.410 C 
ATOM     26  F   LIG    1        3.140   3.768  -2.532  0.00  0.00    -0.180 F 
ATOM     27  F   LIG    1        5.173   3.484  -1.531  0.00  0.00    -0.180 F 
ATOM     28  F   LIG    1        3.351   4.048  -0.274  0.00  0.00    -0.180 F 
ENDBRANCH  24  25
ENDBRANCH  22  24
ENDBRANCH   3  18
TORSDOF 5
