REMARK  Name = ZINCrD000000CAih.0
REMARK                            x       y       z     vdW  Elec       q    Type
REMARK                         _______ _______ _______ _____ _____    ______ ____
ROOT
ATOM      1  O   LIG    1        2.040   4.161   0.147  0.00  0.00    -0.530 OA
ATOM      2  C   LIG    1        1.028   3.502   0.011  0.00  0.00    +0.570 C 
ATOM      3  N   LIG    1       -0.169   4.115  -0.076  0.00  0.00    -0.590 N 
ATOM      4  C   LIG    1       -1.413   3.333  -0.076  0.00  0.00    +0.290 C 
ATOM      5  C   LIG    1       -2.332   3.877   1.029  0.00  0.00    +0.010 C 
ATOM      6  C   LIG    1       -2.535   5.380   0.822  0.00  0.00    +0.240 C 
ATOM      7  C   LIG    1       -1.186   6.096   0.922  0.00  0.00    +0.020 C 
ATOM      8  C   LIG    1       -0.255   5.579  -0.179  0.00  0.00    +0.280 C 
ENDROOT
BRANCH   6   9
ATOM      9  N   LIG    1       -3.439   5.896   1.852  0.00  0.00    -0.600 N 
ATOM     10  C   LIG    1       -4.682   6.522   1.419  0.00  0.00    +0.260 C 
ATOM     11  C   LIG    1       -5.689   6.564   2.571  0.00  0.00    +0.020 C 
ATOM     12  C   LIG    1       -5.002   7.179   3.796  0.00  0.00    +0.030 C 
ATOM     13  C   LIG    1       -3.923   6.209   4.284  0.00  0.00    +0.060 C 
ATOM     14  C   LIG    1       -3.071   5.768   3.128  0.00  0.00    +0.520 C 
ATOM     15  O   LIG    1       -1.992   5.270   3.367  0.00  0.00    -0.540 OA
ENDBRANCH   6   9
BRANCH   2  16
ATOM     16  C   LIG    1        1.109   2.025  -0.059  0.00  0.00    +0.080 A 
ATOM     17  C   LIG    1        2.314   1.388   0.233  0.00  0.00    +0.050 A 
ATOM     18  C   LIG    1        2.381   0.008   0.165  0.00  0.00    +0.080 A 
ATOM     19  C   LIG    1        1.230  -0.696  -0.197  0.00  0.00    -0.070 A 
ATOM     20  C   LIG    1        0.058   0.014  -0.476  0.00  0.00    +0.270 A 
ATOM     21  N   LIG    1        0.034   1.324  -0.400  0.00  0.00    -0.440 NA
BRANCH  19  22
ATOM     22  C   LIG    1        1.250  -2.176  -0.284  0.00  0.00    -0.050 A 
ATOM     23  C   LIG    1        2.423  -2.877  -0.010  0.00  0.00    +0.030 A 
ATOM     24  C   LIG    1        2.435  -4.255  -0.088  0.00  0.00    +0.010 A 
ATOM     25  C   LIG    1        1.288  -4.939  -0.448  0.00  0.00    +0.020 A 
ATOM     26  C   LIG    1        0.122  -4.249  -0.726  0.00  0.00    +0.010 A 
ATOM     27  C   LIG    1        0.097  -2.871  -0.646  0.00  0.00    +0.030 A 
ENDBRANCH  19  22
ENDBRANCH   2  16
TORSDOF 3
