REMARK  Name = ZINCvU0000000553.0
REMARK                            x       y       z     vdW  Elec       q    Type
REMARK                         _______ _______ _______ _____ _____    ______ ____
ROOT
ATOM      1  O   LIG    1        4.832   1.713  -0.509  0.00  0.00    -0.500 OA
ATOM      2  C   LIG    1        3.798   2.344  -0.400  0.00  0.00    +0.550 C 
ATOM      3  N   LIG    1        3.816   3.688  -0.490  0.00  0.00    -0.670 N 
ATOM      4  H   LIG    1        3.007   4.197  -0.322  0.00  0.00    +0.410 HD
ENDROOT
BRANCH   2   5
ATOM      5  C   LIG    1        2.523   1.637  -0.169  0.00  0.00    -0.130 A 
ATOM      6  C   LIG    1        1.319   2.340  -0.179  0.00  0.00    +0.050 A 
ATOM      7  C   LIG    1        0.130   1.675   0.038  0.00  0.00    +0.010 A 
ATOM      8  C   LIG    1        0.123   0.309   0.266  0.00  0.00    +0.040 A 
ATOM      9  C   LIG    1        1.305  -0.404   0.279  0.00  0.00    +0.030 A 
ATOM     10  C   LIG    1        2.515   0.249   0.063  0.00  0.00    +0.010 A 
BRANCH  10  11
ATOM     11  C   LIG    1        3.786  -0.512   0.076  0.00  0.00    -0.010 A 
ATOM     12  C   LIG    1        3.979  -1.568  -0.815  0.00  0.00    +0.030 A 
ATOM     13  C   LIG    1        5.167  -2.269  -0.802  0.00  0.00    +0.070 A 
ATOM     14  C   LIG    1        6.161  -1.934   0.100  0.00  0.00    -0.180 A 
ATOM     15  C   LIG    1        5.974  -0.891   0.990  0.00  0.00    +0.060 A 
ATOM     16  C   LIG    1        4.792  -0.179   0.982  0.00  0.00    +0.070 A 
BRANCH  14  17
ATOM     17  C   LIG    1        7.454  -2.708   0.113  0.00  0.00    +0.510 C 
ATOM     18  F   LIG    1        8.495  -1.871   0.531  0.00  0.00    -0.180 F 
ATOM     19  F   LIG    1        7.727  -3.183  -1.174  0.00  0.00    -0.180 F 
ATOM     20  F   LIG    1        7.342  -3.789   0.995  0.00  0.00    -0.180 F 
ENDBRANCH  14  17
ENDBRANCH  10  11
ENDBRANCH   2   5
BRANCH   3  21
ATOM     21  C   LIG    1        5.003   4.351  -0.826  0.00  0.00    +0.130 A 
ATOM     22  C   LIG    1        5.221   5.650  -0.386  0.00  0.00    +0.000 A 
ATOM     23  C   LIG    1        6.393   6.302  -0.712  0.00  0.00    +0.040 A 
ATOM     24  C   LIG    1        7.350   5.662  -1.490  0.00  0.00    +0.130 A 
ATOM     25  C   LIG    1        7.129   4.365  -1.934  0.00  0.00    +0.010 A 
ATOM     26  C   LIG    1        5.960   3.712  -1.603  0.00  0.00    +0.050 A 
BRANCH  24  27
ATOM     27  N   LIG    1        8.537   6.326  -1.826  0.00  0.00    -0.670 N 
ATOM     28  H   LIG    1        8.954   6.166  -2.687  0.00  0.00    +0.410 HD
ATOM     29  C   LIG    1        9.098   7.186  -0.953  0.00  0.00    +0.540 C 
ATOM     30  O   LIG    1        8.630   7.314   0.158  0.00  0.00    -0.520 OA
BRANCH  29  31
ATOM     31  C   LIG    1       10.307   7.989  -1.359  0.00  0.00    -0.070 C 
ATOM     32  C   LIG    1       11.637   7.656  -0.679  0.00  0.00    +0.060 C 
ATOM     33  C   LIG    1       10.899   8.948  -0.324  0.00  0.00    +0.080 C 
ENDBRANCH  29  31
ENDBRANCH  24  27
ENDBRANCH   3  21
TORSDOF 6
