REMARK  Name = ZINCrH000004nSpE.0
REMARK                            x       y       z     vdW  Elec       q    Type
REMARK                         _______ _______ _______ _____ _____    ______ ____
ROOT
ATOM      1  C   LIG    1       -2.706   2.941   4.743  0.00  0.00    +0.560 C 
ATOM      2  N   LIG    1       -2.293   4.069   5.354  0.00  0.00    -0.610 N 
ATOM      3  C   LIG    1       -1.226   4.891   4.768  0.00  0.00    +0.280 C 
ATOM      4  C   LIG    1       -0.135   5.110   5.814  0.00  0.00    +0.030 C 
ATOM      5  C   LIG    1       -0.757   5.699   7.082  0.00  0.00    -0.010 C 
ATOM      6  C   LIG    1       -1.784   4.717   7.651  0.00  0.00    +0.060 C 
ATOM      7  C   LIG    1       -2.898   4.497   6.623  0.00  0.00    +0.280 C 
ATOM      8  O   LIG    1       -3.632   2.304   5.204  0.00  0.00    -0.530 OA
ENDROOT
BRANCH   1  12
ATOM      9  C   LIG    1       -0.766   1.613   1.205  0.00  0.00    -0.050 A 
ATOM     10  C   LIG    1       -0.961   0.734   2.255  0.00  0.00    +0.030 A 
ATOM     11  C   LIG    1       -1.586   1.160   3.409  0.00  0.00    +0.060 A 
ATOM     12  C   LIG    1       -2.031   2.479   3.512  0.00  0.00    -0.120 A 
ATOM     13  C   LIG    1       -1.836   3.360   2.446  0.00  0.00    +0.040 A 
ATOM     14  C   LIG    1       -1.205   2.922   1.300  0.00  0.00    +0.030 A 
BRANCH   9  15
ATOM     15  C   LIG    1       -0.078   1.142  -0.050  0.00  0.00    +0.130 C 
BRANCH  15  17
ATOM     16  C   LIG    1        2.351   0.793  -1.478  0.00  0.00    +0.130 C 
ATOM     17  S   LIG    1        1.709   1.412   0.102  0.00  0.00    -0.250 S 
ENDBRANCH  15  17
ENDBRANCH   9  15
ENDBRANCH   1  12
BRANCH   5  18
ATOM     18  C   LIG    1        0.323   5.943   8.105  0.00  0.00    +0.520 C 
ATOM     19  N   LIG    1        1.341   6.780   7.822  0.00  0.00    -0.730 N 
ATOM     20  H   LIG    1        1.379   7.224   6.960  0.00  0.00    +0.400 HD
ATOM     21  O   LIG    1        0.276   5.388   9.182  0.00  0.00    -0.530 OA
BRANCH  19  22
ATOM     22  C   LIG    1        2.391   7.018   8.815  0.00  0.00    +0.320 C 
BRANCH  22  23
ATOM     23  C   LIG    1        3.403   7.984   8.255  0.00  0.00    -0.110 A 
ATOM     24  C   LIG    1        4.499   7.511   7.558  0.00  0.00    +0.020 A 
ATOM     25  C   LIG    1        5.425   8.397   7.041  0.00  0.00    +0.010 A 
ATOM     26  C   LIG    1        5.260   9.757   7.229  0.00  0.00    +0.010 A 
ATOM     27  C   LIG    1        4.167  10.230   7.930  0.00  0.00    +0.000 A 
ATOM     28  C   LIG    1        3.238   9.343   8.444  0.00  0.00    +0.020 A 
ENDBRANCH  22  23
ENDBRANCH  19  22
ENDBRANCH   5  18
TORSDOF 6
