REMARK  Name = ZINCpe000000YBpy.0
REMARK                            x       y       z     vdW  Elec       q    Type
REMARK                         _______ _______ _______ _____ _____    ______ ____
ROOT
ATOM      1  C   LIG    1       -6.045   2.230  -0.560  0.00  0.00    +0.060 C 
ENDROOT
BRANCH   1   7
ATOM      2  C   LIG    1       -1.330   1.944   0.019  0.00  0.00    -0.020 C 
ATOM      3  C   LIG    1       -1.417   2.816   1.274  0.00  0.00    +0.030 C 
ATOM      4  C   LIG    1       -2.738   3.589   1.268  0.00  0.00    +0.020 C 
ATOM      5  C   LIG    1       -3.905   2.597   1.287  0.00  0.00    +0.270 C 
ATOM      6  N   LIG    1       -3.749   1.662   0.164  0.00  0.00    -0.610 N 
ATOM      7  C   LIG    1       -4.750   1.476  -0.719  0.00  0.00    +0.520 C 
ATOM      8  O   LIG    1       -4.608   0.701  -1.641  0.00  0.00    -0.530 OA
ATOM      9  C   LIG    1       -2.481   0.934   0.023  0.00  0.00    +0.310 C 
BRANCH   2  13
ATOM     10  N   LIG    1        1.143   1.898   0.001  0.00  0.00    -0.850 N 
ATOM     11  H   LIG    1        1.130   2.868   0.007  0.00  0.00    +0.400 HD
ATOM     12  H   LIG    1        1.990   1.425  -0.009  0.00  0.00    +0.400 HD
ATOM     13  C   LIG    1       -0.014   1.209   0.009  0.00  0.00    +0.520 C 
ATOM     14  O   LIG    1        0.002  -0.004   0.002  0.00  0.00    -0.540 OA
ENDBRANCH   2  13
ENDBRANCH   1   7
BRANCH   1  15
ATOM     15  C   LIG    1       -7.005   1.838  -1.686  0.00  0.00    +0.060 C 
BRANCH  15  16
ATOM     16  C   LIG    1       -8.319   2.603  -1.525  0.00  0.00    +0.370 C 
BRANCH  16  17
ATOM     17  N   LIG    1       -9.238   2.228  -2.602  0.00  0.00    -0.140 N 
ATOM     18  N   LIG    1       -9.329   2.818  -3.743  0.00  0.00    -0.060 NA
ATOM     19  N   LIG    1      -10.233   2.228  -4.449  0.00  0.00    -0.270 NA
ATOM     20  C   LIG    1      -10.731   1.231  -3.705  0.00  0.00    +0.210 A 
ATOM     21  N   LIG    1      -10.086   1.259  -2.555  0.00  0.00    -0.300 NA
BRANCH  20  22
ATOM     22  C   LIG    1      -11.800   0.279  -4.099  0.00  0.00    -0.020 A 
ATOM     23  C   LIG    1      -12.210  -0.716  -3.214  0.00  0.00    +0.050 A 
ATOM     24  C   LIG    1      -13.209  -1.595  -3.583  0.00  0.00    +0.010 A 
ATOM     25  C   LIG    1      -13.794  -1.496  -4.833  0.00  0.00    +0.030 A 
ATOM     26  C   LIG    1      -13.385  -0.513  -5.717  0.00  0.00    +0.010 A 
ATOM     27  C   LIG    1      -12.392   0.374  -5.356  0.00  0.00    +0.060 A 
ENDBRANCH  20  22
ENDBRANCH  16  17
ENDBRANCH  15  16
ENDBRANCH   1  15
TORSDOF 6
