REMARK  Name = ZINCtV000002I8q1.0
REMARK                            x       y       z     vdW  Elec       q    Type
REMARK                         _______ _______ _______ _____ _____    ______ ____
ROOT
ATOM      1  N   LIG    1        6.109  -1.950  -0.085  0.00  0.00    -0.670 N 
ATOM      2  H   LIG    1        5.337  -2.473   0.184  0.00  0.00    +0.410 HD
ATOM      3  C   LIG    1        7.157  -2.553  -0.680  0.00  0.00    +0.710 C 
ATOM      4  N   LIG    1        7.181  -3.895  -0.803  0.00  0.00    -0.680 N 
ATOM      5  H   LIG    1        6.417  -4.422  -0.522  0.00  0.00    +0.410 HD
ATOM      6  O   LIG    1        8.080  -1.887  -1.107  0.00  0.00    -0.550 OA
ENDROOT
BRANCH   1  12
ATOM      7  C   LIG    1        4.947   0.123   0.381  0.00  0.00    +0.090 A 
ATOM      8  C   LIG    1        4.978   1.490   0.603  0.00  0.00    -0.040 A 
ATOM      9  C   LIG    1        6.185   2.164   0.602  0.00  0.00    +0.030 A 
ATOM     10  C   LIG    1        7.363   1.479   0.368  0.00  0.00    +0.000 A 
ATOM     11  C   LIG    1        7.341   0.116   0.140  0.00  0.00    +0.060 A 
ATOM     12  C   LIG    1        6.134  -0.568   0.146  0.00  0.00    +0.140 A 
BRANCH   7  13
ATOM     13  O   LIG    1        3.761  -0.542   0.388  0.00  0.00    -0.260 OA
BRANCH  13  18
ATOM     14  C   LIG    1       -0.957   2.479   0.959  0.00  0.00    +0.090 C 
ATOM     15  C   LIG    1        0.303   1.667   0.804  0.00  0.00    -0.080 A 
ATOM     16  C   LIG    1        0.765   0.903   1.860  0.00  0.00    +0.020 A 
ATOM     17  C   LIG    1        1.923   0.162   1.723  0.00  0.00    +0.010 A 
ATOM     18  C   LIG    1        2.622   0.186   0.525  0.00  0.00    +0.080 A 
ATOM     19  C   LIG    1        2.157   0.953  -0.533  0.00  0.00    +0.000 A 
ATOM     20  C   LIG    1        0.998   1.692  -0.391  0.00  0.00    +0.020 A 
ENDBRANCH  13  18
ENDBRANCH   7  13
ENDBRANCH   1  12
BRANCH   4  21
ATOM     21  C   LIG    1        8.309  -4.528  -1.334  0.00  0.00    +0.180 A 
ATOM     22  C   LIG    1        9.024  -3.924  -2.361  0.00  0.00    +0.030 A 
ATOM     23  C   LIG    1       10.139  -4.543  -2.884  0.00  0.00    +0.060 A 
ATOM     24  C   LIG    1       10.544  -5.783  -2.388  0.00  0.00    -0.040 A 
ATOM     25  C   LIG    1        9.821  -6.390  -1.361  0.00  0.00    +0.050 A 
ATOM     26  C   LIG    1        8.710  -5.763  -0.838  0.00  0.00    -0.010 A 
BRANCH  24  27
ATOM     27  C   LIG    1       11.737  -6.452  -2.950  0.00  0.00    -0.090 A 
ATOM     28  C   LIG    1       12.561  -6.002  -3.958  0.00  0.00    -0.040 A 
ATOM     29  C   LIG    1       13.596  -6.851  -4.264  0.00  0.00    +0.270 A 
ATOM     30  N   LIG    1       13.702  -7.964  -3.600  0.00  0.00    -0.450 NA
ATOM     31  S   LIG    1       12.433  -8.012  -2.474  0.00  0.00    +0.220 S 
ENDBRANCH  24  27
ENDBRANCH   4  21
TORSDOF 5
