REMARK  Name = ZINCrg00000SjSHu.0
REMARK                            x       y       z     vdW  Elec       q    Type
REMARK                         _______ _______ _______ _____ _____    ______ ____
ROOT
ATOM      1  C   LIG    1        7.460  -2.053  -4.715  0.00  0.00    +0.070 C 
ATOM      2  C   LIG    1        6.048  -1.601  -5.091  0.00  0.00    +0.130 C 
ENDROOT
BRANCH   2   3
ATOM      3  C   LIG    1        5.571  -2.387  -6.285  0.00  0.00    +0.520 C 
ATOM      4  N   LIG    1        5.920  -2.003  -7.529  0.00  0.00    -0.620 N 
ATOM      5  C   LIG    1        6.676  -0.762  -7.744  0.00  0.00    +0.280 C 
ATOM      6  C   LIG    1        7.930  -1.090  -8.569  0.00  0.00    +0.030 C 
ATOM      7  C   LIG    1        7.514  -1.804  -9.857  0.00  0.00    -0.010 C 
ATOM      8  C   LIG    1        6.808  -3.117  -9.510  0.00  0.00    +0.060 C 
ATOM      9  C   LIG    1        5.546  -2.814  -8.695  0.00  0.00    +0.280 C 
ATOM     10  O   LIG    1        4.872  -3.366  -6.126  0.00  0.00    -0.510 OA
BRANCH   7  11
ATOM     11  C   LIG    1        8.737  -2.096 -10.687  0.00  0.00    +0.520 C 
ATOM     12  O   LIG    1        9.017  -3.241 -10.973  0.00  0.00    -0.540 OA
ATOM     13  N   LIG    1        9.520  -1.084 -11.112  0.00  0.00    -0.860 N 
ATOM     14  H   LIG    1       10.308  -1.272 -11.646  0.00  0.00    +0.400 HD
ATOM     15  H   LIG    1        9.296  -0.169 -10.883  0.00  0.00    +0.400 HD
ENDBRANCH   7  11
ENDBRANCH   2   3
BRANCH   2  16
ATOM     16  N   LIG    1        5.142  -1.831  -3.959  0.00  0.00    -0.520 NA
ATOM     17  C   LIG    1        5.662  -1.210  -2.733  0.00  0.00    +0.190 C 
ATOM     18  C   LIG    1        4.732  -1.539  -1.563  0.00  0.00    +0.190 C 
ATOM     19  N   LIG    1        3.379  -1.052  -1.863  0.00  0.00    -0.530 NA
ATOM     20  C   LIG    1        2.859  -1.673  -3.089  0.00  0.00    +0.190 C 
ATOM     21  C   LIG    1        3.788  -1.344  -4.259  0.00  0.00    +0.180 C 
BRANCH  19  22
ATOM     22  C   LIG    1        2.473  -1.282  -0.731  0.00  0.00    +0.240 C 
BRANCH  22  23
ATOM     23  C   LIG    1        1.173  -0.558  -0.972  0.00  0.00    -0.120 A 
ATOM     24  C   LIG    1        0.045  -1.267  -1.341  0.00  0.00    +0.040 A 
ATOM     25  C   LIG    1       -1.147  -0.603  -1.562  0.00  0.00    +0.000 A 
ATOM     26  C   LIG    1       -1.213   0.770  -1.414  0.00  0.00    +0.040 A 
ATOM     27  C   LIG    1       -0.086   1.480  -1.045  0.00  0.00    -0.030 A 
ATOM     28  C   LIG    1        1.108   0.817  -0.823  0.00  0.00    +0.120 A 
ATOM     29  F   LIG    1        2.210   1.510  -0.462  0.00  0.00    -0.130 F 
ENDBRANCH  22  23
ENDBRANCH  19  22
ENDBRANCH   2  16
TORSDOF 5
