REMARK  Name = ZINCrD00000F5Lmn.0
REMARK                            x       y       z     vdW  Elec       q    Type
REMARK                         _______ _______ _______ _____ _____    ______ ____
ROOT
ATOM      1  C   LIG    1       -2.450   2.173   1.482  0.00  0.00    +0.240 C 
ATOM      2  C   LIG    1       -2.972   1.167   2.513  0.00  0.00    +0.280 C 
ATOM      3  N   LIG    1       -2.423   1.512   3.831  0.00  0.00    -0.600 N 
ATOM      4  C   LIG    1       -2.605   2.880   4.336  0.00  0.00    +0.280 C 
ATOM      5  C   LIG    1       -2.087   3.867   3.285  0.00  0.00    +0.010 C 
ATOM      6  C   LIG    1       -1.765   0.592   4.564  0.00  0.00    +0.510 C 
ATOM      7  O   LIG    1       -1.537  -0.504   4.098  0.00  0.00    -0.500 OA
ATOM      8  C   LIG    1       -2.780   3.593   1.948  0.00  0.00    -0.020 C 
ATOM      9  C   LIG    1       -2.290   4.598   0.904  0.00  0.00    +0.030 C 
ENDROOT
BRANCH   6  10
ATOM     10  C   LIG    1       -1.312   0.925   5.962  0.00  0.00    +0.130 C 
ATOM     11  C   LIG    1       -1.035  -0.372   6.746  0.00  0.00    +0.060 C 
ATOM     12  C   LIG    1       -2.057  -0.340   7.908  0.00  0.00    +0.020 C 
ATOM     13  C   LIG    1       -3.129   0.642   7.370  0.00  0.00    +0.200 C 
ATOM     14  O   LIG    1       -2.354   1.630   6.658  0.00  0.00    -0.350 OA
BRANCH  10  15
ATOM     15  C   LIG    1       -0.067   1.772   5.909  0.00  0.00    -0.070 A 
ATOM     16  C   LIG    1       -0.089   3.065   6.398  0.00  0.00    +0.050 A 
ATOM     17  C   LIG    1        1.054   3.840   6.354  0.00  0.00    +0.030 A 
ATOM     18  C   LIG    1        2.217   3.328   5.811  0.00  0.00    +0.020 A 
ATOM     19  C   LIG    1        2.239   2.037   5.317  0.00  0.00    +0.050 A 
ATOM     20  C   LIG    1        1.097   1.258   5.366  0.00  0.00    -0.090 A 
ATOM     21 BR   LIG    1        1.125  -0.507   4.689  0.00  0.00    -0.020 Br
ENDBRANCH  10  15
ENDBRANCH   6  10
BRANCH   1  23
ATOM     22  C   LIG    1       -0.456   1.750   0.146  0.00  0.00    +0.550 C 
ATOM     23  N   LIG    1       -0.998   2.027   1.349  0.00  0.00    -0.590 N 
ATOM     24  C   LIG    1       -0.136   2.182   2.523  0.00  0.00    +0.270 C 
ATOM     25  O   LIG    1       -1.162   1.709  -0.844  0.00  0.00    -0.540 OA
BRANCH  22  27
ATOM     26  C   LIG    1        1.507   1.123  -1.135  0.00  0.00    +0.140 C 
ATOM     27  C   LIG    1        0.988   1.497   0.031  0.00  0.00    -0.090 C 
ENDBRANCH  22  27
ENDBRANCH   1  23
TORSDOF 4
