REMARK  Name = ZINCrH000004t4DA.0
REMARK                            x       y       z     vdW  Elec       q    Type
REMARK                         _______ _______ _______ _____ _____    ______ ____
ROOT
ATOM      1  C   LIG    1        5.221   6.291   2.834  0.00  0.00    +0.310 C 
ATOM      2  C   LIG    1        4.931   6.226   4.348  0.00  0.00    +0.040 C 
ATOM      3  C   LIG    1        4.104   4.920   4.486  0.00  0.00    +0.040 C 
ATOM      4  C   LIG    1        3.279   4.934   3.175  0.00  0.00    +0.240 C 
ATOM      5  N   LIG    1        4.196   5.481   2.158  0.00  0.00    -0.630 N 
ATOM      6  C   LIG    1        4.113   5.270   0.830  0.00  0.00    +0.730 C 
ATOM      7  N   LIG    1        3.125   4.500   0.331  0.00  0.00    -0.740 N 
ATOM      8  H   LIG    1        2.475   4.098   0.928  0.00  0.00    +0.390 HD
ATOM      9  O   LIG    1        4.928   5.774   0.082  0.00  0.00    -0.580 OA
ENDROOT
BRANCH   1  15
ATOM     10  C   LIG    1        7.591   8.266   2.528  0.00  0.00    +0.300 C 
ATOM     11  N   LIG    1        6.191   8.579   2.230  0.00  0.00    -0.440 N 
ATOM     12  C   LIG    1        5.723   9.775   1.773  0.00  0.00    +0.150 A 
ATOM     13  C   LIG    1        4.387   9.677   1.625  0.00  0.00    -0.070 A 
ATOM     14  C   LIG    1        4.016   8.370   1.998  0.00  0.00    -0.060 A 
ATOM     15  C   LIG    1        5.140   7.719   2.361  0.00  0.00    +0.010 A 
ENDBRANCH   1  15
BRANCH   7  16
ATOM     16  C   LIG    1        3.034   4.270  -1.113  0.00  0.00    +0.350 C 
BRANCH  16  17
ATOM     17  C   LIG    1        1.852   3.383  -1.407  0.00  0.00    -0.190 A 
ATOM     18  C   LIG    1        2.031   2.030  -1.638  0.00  0.00    +0.120 A 
ATOM     19  C   LIG    1        0.914   1.251  -1.905  0.00  0.00    -0.070 A 
ATOM     20  C   LIG    1       -0.332   1.845  -1.936  0.00  0.00    +0.310 A 
ATOM     21  N   LIG    1       -0.471   3.137  -1.707  0.00  0.00    -0.540 NA
ATOM     22  C   LIG    1        0.569   3.912  -1.449  0.00  0.00    +0.340 A 
BRANCH  22  23
ATOM     23  O   LIG    1        0.380   5.237  -1.224  0.00  0.00    -0.290 OA
BRANCH  23  24
ATOM     24  C   LIG    1       -0.964   5.719  -1.282  0.00  0.00    +0.180 C 
ATOM     25  C   LIG    1       -1.283   6.226  -2.703  0.00  0.00    +0.000 C 
ATOM     26  C   LIG    1       -2.183   7.466  -2.471  0.00  0.00    +0.020 C 
ATOM     27  C   LIG    1       -1.548   8.119  -1.218  0.00  0.00    +0.020 C 
ATOM     28  C   LIG    1       -1.132   6.923  -0.338  0.00  0.00    +0.040 C 
ENDBRANCH  23  24
ENDBRANCH  22  23
ENDBRANCH  16  17
ENDBRANCH   7  16
TORSDOF 5
