REMARK  Name = ZINCrH000004ndK6.0
REMARK                            x       y       z     vdW  Elec       q    Type
REMARK                         _______ _______ _______ _____ _____    ______ ____
ROOT
ATOM      1  C   LIG    1        5.026   4.131  -3.692  0.00  0.00    +0.600 C 
ATOM      2  N   LIG    1        4.742   3.871  -2.401  0.00  0.00    -0.620 N 
ATOM      3  C   LIG    1        5.727   3.761  -1.309  0.00  0.00    +0.280 C 
ATOM      4  C   LIG    1        4.929   4.077  -0.018  0.00  0.00    +0.080 C 
ATOM      5  C   LIG    1        3.562   3.432  -0.334  0.00  0.00    +0.110 C 
ATOM      6  C   LIG    1        2.454   4.141   0.437  0.00  0.00    +0.040 C 
ATOM      7  C   LIG    1        1.107   3.560  -0.005  0.00  0.00    +0.090 C 
ATOM      8  C   LIG    1        1.179   2.054  -0.010  0.00  0.00    -0.160 A 
ATOM      9  C   LIG    1       -0.004   1.334  -0.006  0.00  0.00    +0.050 A 
ATOM     10  C   LIG    1        0.019  -0.047  -0.024  0.00  0.00    -0.020 A 
ATOM     11  C   LIG    1        1.228  -0.718  -0.043  0.00  0.00    +0.040 A 
ATOM     12  C   LIG    1        2.410  -0.006  -0.043  0.00  0.00    -0.010 A 
ATOM     13  C   LIG    1        2.390   1.384  -0.024  0.00  0.00    +0.130 A 
ATOM     14  O   LIG    1        3.576   2.050  -0.018  0.00  0.00    -0.290 OA
ATOM     15  C   LIG    1        3.397   3.651  -1.846  0.00  0.00    +0.230 C 
ATOM     16  O   LIG    1        6.168   4.389  -4.024  0.00  0.00    -0.510 OA
ENDROOT
BRANCH   1  22
ATOM     17  C   LIG    1        0.170   3.908  -7.265  0.00  0.00    +0.160 A 
ATOM     18  C   LIG    1        1.105   4.103  -8.280  0.00  0.00    -0.090 A 
ATOM     19  C   LIG    1        2.431   4.224  -7.987  0.00  0.00    +0.110 A 
ATOM     20  C   LIG    1        2.862   4.154  -6.655  0.00  0.00    -0.150 A 
ATOM     21  C   LIG    1        4.134   4.241  -6.041  0.00  0.00    +0.080 A 
ATOM     22  C   LIG    1        3.957   4.102  -4.700  0.00  0.00    +0.000 A 
ATOM     23  N   LIG    1        2.611   3.924  -4.436  0.00  0.00    -0.580 N 
ATOM     24  H   LIG    1        2.219   3.798  -3.558  0.00  0.00    +0.420 HD
ATOM     25  C   LIG    1        1.920   3.958  -5.625  0.00  0.00    +0.150 A 
ATOM     26  C   LIG    1        0.572   3.836  -5.944  0.00  0.00    -0.050 A 
BRANCH  17  28
ATOM     27  C   LIG    1       -1.497   3.872  -8.959  0.00  0.00    +0.250 C 
ATOM     28  O   LIG    1       -1.147   3.789  -7.576  0.00  0.00    -0.320 OA
ENDBRANCH  17  28
ENDBRANCH   1  22
TORSDOF 2
