REMARK  Name = ZINCnE000001QDsk.0
REMARK                            x       y       z     vdW  Elec       q    Type
REMARK                         _______ _______ _______ _____ _____    ______ ____
ROOT
ATOM      1  N   LIG    1       -0.721   1.571  -1.179  0.00  0.00    -0.740 N 
ATOM      2  H   LIG    1       -1.516   2.118  -1.079  0.00  0.00    +0.390 HD
ATOM      3  C   LIG    1       -0.268   1.258  -2.409  0.00  0.00    +0.650 C 
ATOM      4  O   LIG    1        0.731   0.572  -2.534  0.00  0.00    -0.610 OA
ENDROOT
BRANCH   3   5
ATOM      5  N   LIG    1       -0.913   1.700  -3.490  0.00  0.00    -0.720 NA
ATOM      6  C   LIG    1       -0.463   1.390  -4.711  0.00  0.00    +0.350 A 
ATOM      7  C   LIG    1       -1.141   1.847  -5.859  0.00  0.00    -0.060 A 
ATOM      8  C   LIG    1       -0.633   1.502  -7.080  0.00  0.00    +0.020 A 
ATOM      9  C   LIG    1        0.523   0.708  -7.124  0.00  0.00    -0.050 A 
ATOM     10  N   LIG    1        1.100   0.314  -6.023  0.00  0.00    -0.220 NA
ATOM     11  N   LIG    1        0.651   0.624  -4.861  0.00  0.00    -0.320 NA
BRANCH   9  12
ATOM     12  C   LIG    1        1.103   0.308  -8.456  0.00  0.00    +0.000 C 
ATOM     13  C   LIG    1        1.481   1.563  -9.246  0.00  0.00    +0.020 C 
ATOM     14  C   LIG    1        0.067  -0.497  -9.243  0.00  0.00    +0.020 C 
ATOM     15  C   LIG    1        2.352  -0.548  -8.232  0.00  0.00    +0.040 C 
ENDBRANCH   9  12
ENDBRANCH   3   5
BRANCH   1  16
ATOM     16  C   LIG    1       -0.013   1.086   0.008  0.00  0.00    +0.270 C 
BRANCH  16  17
ATOM     17  C   LIG    1       -0.729   1.579   1.267  0.00  0.00    +0.080 C 
ATOM     18  C   LIG    1       -0.641   3.105   1.339  0.00  0.00    +0.060 C 
BRANCH  17  23
ATOM     19  C   LIG    1       -0.510  -1.102   5.437  0.00  0.00    +0.130 C 
ATOM     20  C   LIG    1        0.055  -0.215   4.357  0.00  0.00    +0.070 A 
ATOM     21  C   LIG    1        1.329   0.189   4.346  0.00  0.00    -0.110 A 
ATOM     22  S   LIG    1        1.566   1.195   2.919  0.00  0.00    +0.130 S 
ATOM     23  C   LIG    1       -0.074   0.981   2.485  0.00  0.00    +0.070 A 
ATOM     24  N   LIG    1       -0.668   0.227   3.348  0.00  0.00    -0.470 NA
ENDBRANCH  17  23
ENDBRANCH  16  17
ENDBRANCH   1  16
TORSDOF 5
