REMARK  Name = ZINCpk00000C2t1e.0
REMARK                            x       y       z     vdW  Elec       q    Type
REMARK                         _______ _______ _______ _____ _____    ______ ____
ROOT
ATOM      1  C   LIG    1       -2.498   5.051  -3.272  0.00  0.00    +0.170 C 
ATOM      2  C   LIG    1       -1.092   4.822  -3.863  0.00  0.00    +0.070 C 
ATOM      3  C   LIG    1       -0.449   3.743  -2.965  0.00  0.00    +0.230 C 
ATOM      4  N   LIG    1       -1.174   3.852  -1.673  0.00  0.00    -0.490 NA
ATOM      5  C   LIG    1       -2.587   4.091  -2.066  0.00  0.00    +0.180 C 
ENDROOT
BRANCH   3   6
ATOM      6  C   LIG    1        1.018   4.027  -2.770  0.00  0.00    +0.180 A 
ATOM      7  N   LIG    1        1.531   5.004  -2.073  0.00  0.00    -0.260 NA
ATOM      8  N   LIG    1        2.814   4.943  -2.123  0.00  0.00    -0.300 NA
ATOM      9  C   LIG    1        3.179   3.925  -2.853  0.00  0.00    +0.370 A 
ATOM     10  N   LIG    1        2.049   3.311  -3.281  0.00  0.00    -0.480 N 
ATOM     11  C   LIG    1        1.960   2.118  -4.126  0.00  0.00    +0.350 C 
ENDBRANCH   3   6
BRANCH   1  13
ATOM     12  C   LIG    1       -4.704   5.490  -4.100  0.00  0.00    +0.200 C 
ATOM     13  O   LIG    1       -3.501   4.731  -4.238  0.00  0.00    -0.380 OA
ENDBRANCH   1  13
BRANCH   4  14
ATOM     14  C   LIG    1       -1.048   2.614  -0.892  0.00  0.00    +0.270 C 
BRANCH  14  15
ATOM     15  C   LIG    1       -1.578   2.841   0.500  0.00  0.00    -0.060 A 
ATOM     16  C   LIG    1       -2.831   2.586   0.932  0.00  0.00    +0.240 A 
ATOM     17  N   LIG    1       -2.913   2.919   2.224  0.00  0.00    -0.470 NA
ATOM     18  C   LIG    1       -1.740   3.383   2.631  0.00  0.00    +0.390 A 
ATOM     19  N   LIG    1       -1.320   3.838   3.820  0.00  0.00    -0.450 NA
ATOM     20  C   LIG    1       -0.082   4.239   3.990  0.00  0.00    +0.210 A 
ATOM     21  C   LIG    1        0.825   4.211   2.921  0.00  0.00    -0.050 A 
ATOM     22  C   LIG    1        0.412   3.757   1.711  0.00  0.00    +0.160 A 
ATOM     23  C   LIG    1        1.366   3.716   0.545  0.00  0.00    +0.150 C 
ATOM     24  C   LIG    1        0.365   4.740   5.338  0.00  0.00    +0.160 C 
ATOM     25  N   LIG    1       -0.878   3.339   1.565  0.00  0.00    -0.380 N 
ENDBRANCH  14  15
ENDBRANCH   4  14
TORSDOF 4
