REMARK  Name = ZINCAx0000000daU.0
REMARK                            x       y       z     vdW  Elec       q    Type
REMARK                         _______ _______ _______ _____ _____    ______ ____
ROOT
ATOM      1  C   LIG    1        9.016   0.604  -0.085  0.00  0.00    +0.270 C 
ENDROOT
BRANCH   1   4
ATOM      2  N   LIG    1       10.545  -1.341  -0.110  0.00  0.00    -0.650 N 
ATOM      3  H   LIG    1       11.288  -0.717  -0.114  0.00  0.00    +0.410 HD
ATOM      4  C   LIG    1        9.278  -0.880  -0.095  0.00  0.00    +0.520 C 
ATOM      5  O   LIG    1        8.350  -1.660  -0.090  0.00  0.00    -0.470 OA
BRANCH   2   9
ATOM      6  C   LIG    1       10.512  -4.927  -0.126  0.00  0.00    +0.110 A 
ATOM      7  N   LIG    1       11.801  -4.701  -0.138  0.00  0.00    -0.270 NA
ATOM      8  N   LIG    1       12.008  -3.316  -0.134  0.00  0.00    -0.340 N 
ATOM      9  C   LIG    1       10.787  -2.714  -0.119  0.00  0.00    +0.310 A 
ATOM     10  C   LIG    1        9.847  -3.698  -0.109  0.00  0.00    -0.080 A 
BRANCH   8  11
ATOM     11  C   LIG    1       13.250  -2.666  -0.145  0.00  0.00    +0.160 A 
ATOM     12  C   LIG    1       13.404  -1.472  -0.836  0.00  0.00    -0.030 A 
ATOM     13  C   LIG    1       14.627  -0.831  -0.840  0.00  0.00    +0.050 A 
ATOM     14  C   LIG    1       15.701  -1.383  -0.166  0.00  0.00    +0.010 A 
ATOM     15  C   LIG    1       15.552  -2.576   0.518  0.00  0.00    +0.040 A 
ATOM     16  C   LIG    1       14.330  -3.218   0.531  0.00  0.00    +0.030 A 
ENDBRANCH   8  11
BRANCH   6  18
ATOM     17  C   LIG    1        9.283  -6.574  -1.514  0.00  0.00    +0.050 C 
ATOM     18  C   LIG    1        9.856  -6.284  -0.126  0.00  0.00    +0.010 C 
ATOM     19  C   LIG    1        8.726  -6.303   0.906  0.00  0.00    +0.050 C 
ATOM     20  C   LIG    1       10.892  -7.351   0.232  0.00  0.00    +0.040 C 
ENDBRANCH   6  18
ENDBRANCH   2   9
ENDBRANCH   1   4
BRANCH   1  21
ATOM     21  O   LIG    1        7.607   0.839  -0.070  0.00  0.00    -0.310 OA
BRANCH  21  22
ATOM     22  C   LIG    1        7.200   2.125  -0.059  0.00  0.00    +0.560 C 
ATOM     23  O   LIG    1        8.021   3.023  -0.063  0.00  0.00    -0.490 OA
BRANCH  22  24
ATOM     24  C   LIG    1        5.815   2.431  -0.044  0.00  0.00    +0.000 C 
ATOM     25  N   LIG    1        4.857   1.560  -0.038  0.00  0.00    -0.100 NA
ATOM     26  N   LIG    1        3.582   2.121  -0.022  0.00  0.00    -0.430 N 
ATOM     27  C   LIG    1        3.706   3.587  -0.022  0.00  0.00    +0.210 C 
ATOM     28  C   LIG    1        5.229   3.824  -0.031  0.00  0.00    +0.140 C 
BRANCH  26  29
ATOM     29  C   LIG    1        2.381   1.409  -0.013  0.00  0.00    +0.210 A 
ATOM     30  C   LIG    1        1.169   2.087   0.002  0.00  0.00    -0.040 A 
ATOM     31  C   LIG    1       -0.017   1.379   0.010  0.00  0.00    +0.050 A 
ATOM     32  C   LIG    1        0.002  -0.004   0.002  0.00  0.00    -0.020 A 
ATOM     33  C   LIG    1        1.207  -0.683  -0.013  0.00  0.00    +0.050 A 
ATOM     34  C   LIG    1        2.396   0.019  -0.021  0.00  0.00    +0.000 A 
ENDBRANCH  26  29
BRANCH  27  35
ATOM     35  C   LIG    1        3.088   4.171   1.223  0.00  0.00    +0.510 C 
ATOM     36  O   LIG    1        2.891   3.466   2.190  0.00  0.00    -0.510 OA
ATOM     37  N   LIG    1        2.756   5.477   1.262  0.00  0.00    -0.850 N 
ATOM     38  H   LIG    1        2.359   5.852   2.063  0.00  0.00    +0.410 HD
ATOM     39  H   LIG    1        2.914   6.040   0.488  0.00  0.00    +0.400 HD
ENDBRANCH  27  35
ENDBRANCH  22  24
ENDBRANCH  21  22
ENDBRANCH   1  21
TORSDOF 9
