REMARK  Name = ZINCpe00000RbSPt.0
REMARK                            x       y       z     vdW  Elec       q    Type
REMARK                         _______ _______ _______ _____ _____    ______ ____
ROOT
ATOM      1  O   LIG    1       -0.423   5.029   2.088  0.00  0.00    -0.510 OA
ATOM      2  C   LIG    1       -0.416   3.820   2.205  0.00  0.00    +0.560 C 
ATOM      3  N   LIG    1       -0.879   3.043   1.205  0.00  0.00    -0.590 N 
ATOM      4  C   LIG    1       -0.760   1.580   1.278  0.00  0.00    +0.270 C 
ATOM      5  C   LIG    1       -0.065   1.078   0.008  0.00  0.00    +0.030 C 
ATOM      6  C   LIG    1       -0.823   1.588  -1.220  0.00  0.00    +0.070 C 
ATOM      7  C   LIG    1       -0.806   3.118  -1.233  0.00  0.00    +0.110 C 
ATOM      8  C   LIG    1       -1.510   3.643   0.022  0.00  0.00    +0.290 C 
ENDROOT
BRANCH   2   9
ATOM      9  C   LIG    1        0.102   3.199   3.445  0.00  0.00    -0.040 A 
ATOM     10  C   LIG    1       -0.663   2.294   4.169  0.00  0.00    +0.000 A 
ATOM     11  C   LIG    1       -0.143   1.724   5.330  0.00  0.00    +0.320 A 
ATOM     12  N   LIG    1        1.054   2.025   5.773  0.00  0.00    -0.460 NA
ATOM     13  C   LIG    1        1.840   2.889   5.131  0.00  0.00    +0.160 A 
ATOM     14  C   LIG    1        3.126   3.217   5.601  0.00  0.00    +0.010 A 
ATOM     15  C   LIG    1        3.874   4.109   4.896  0.00  0.00    +0.270 A 
ATOM     16  N   LIG    1        3.428   4.675   3.784  0.00  0.00    -0.480 NA
ATOM     17  C   LIG    1        2.240   4.417   3.287  0.00  0.00    +0.340 A 
ATOM     18  C   LIG    1        1.392   3.512   3.938  0.00  0.00    -0.140 A 
ENDBRANCH   2   9
BRANCH   7  19
ATOM     19  O   LIG    1        0.546   3.580  -1.250  0.00  0.00    -0.540 OA
ATOM     20  H   LIG    1        0.632   4.543  -1.259  0.00  0.00    +0.380 HD
ENDBRANCH   7  19
BRANCH   7  21
ATOM     21  C   LIG    1       -1.536   3.626  -2.478  0.00  0.00    +0.320 C 
BRANCH  21  22
ATOM     22  N   LIG    1       -1.519   5.091  -2.490  0.00  0.00    -0.300 N 
ATOM     23  C   LIG    1       -1.058   5.870  -3.496  0.00  0.00    +0.150 A 
ATOM     24  C   LIG    1       -1.232   7.150  -3.091  0.00  0.00    +0.140 A 
ATOM     25  N   LIG    1       -1.784   7.092  -1.873  0.00  0.00    -0.260 NA
ATOM     26  N   LIG    1       -1.946   5.858  -1.549  0.00  0.00    -0.090 NA
ENDBRANCH  21  22
ENDBRANCH   7  21
TORSDOF 4
