REMARK  Name = ZINCpe000015jgPS.0
REMARK                            x       y       z     vdW  Elec       q    Type
REMARK                         _______ _______ _______ _____ _____    ______ ____
ROOT
ATOM      1  O   LIG    1        0.973   3.291   2.344  0.00  0.00    -0.520 OA
ATOM      2  C   LIG    1        1.034   4.085   1.430  0.00  0.00    +0.520 C 
ATOM      3  N   LIG    1        0.997   5.409   1.683  0.00  0.00    -0.730 N 
ATOM      4  H   LIG    1        1.045   6.044   0.951  0.00  0.00    +0.400 HD
ENDROOT
BRANCH   3   5
ATOM      5  C   LIG    1        0.883   5.888   3.062  0.00  0.00    +0.250 C 
ATOM      6  C   LIG    1        2.276   5.966   3.694  0.00  0.00    -0.010 C 
ATOM      7  C   LIG    1        2.155   6.542   5.108  0.00  0.00    +0.220 C 
ATOM      8  O   LIG    1        1.533   7.826   5.046  0.00  0.00    -0.370 OA
ATOM      9  C   LIG    1        0.209   7.808   4.507  0.00  0.00    +0.220 C 
ATOM     10  C   LIG    1        0.252   7.284   3.070  0.00  0.00    +0.210 C 
BRANCH  10  11
ATOM     11  N   LIG    1        1.053   8.187   2.241  0.00  0.00    -0.700 N 
ATOM     12  H   LIG    1        1.994   8.004   2.093  0.00  0.00    +0.410 HD
BRANCH  11  13
ATOM     13  C   LIG    1        0.467   9.304   1.667  0.00  0.00    +0.440 A 
ATOM     14  C   LIG    1       -0.887   9.576   1.868  0.00  0.00    -0.160 A 
ATOM     15  C   LIG    1       -1.424  10.704   1.278  0.00  0.00    +0.350 A 
ATOM     16  N   LIG    1       -0.644  11.481   0.540  0.00  0.00    -0.560 NA
ATOM     17  C   LIG    1        0.631  11.194   0.366  0.00  0.00    +0.540 A 
ATOM     18  N   LIG    1        1.185  10.132   0.913  0.00  0.00    -0.580 NA
ENDBRANCH  11  13
ENDBRANCH  10  11
ENDBRANCH   3   5
BRANCH   2  19
ATOM     19  C   LIG    1        1.151   3.592   0.010  0.00  0.00    +0.100 C 
BRANCH  19  20
ATOM     20  C   LIG    1        1.171   2.085   0.002  0.00  0.00    -0.070 A 
ATOM     21  C   LIG    1        2.377   1.411  -0.014  0.00  0.00    +0.010 A 
ATOM     22  C   LIG    1        2.396   0.028  -0.022  0.00  0.00    +0.000 A 
ATOM     23  C   LIG    1        1.209  -0.679  -0.014  0.00  0.00    +0.000 A 
ATOM     24  C   LIG    1        0.002  -0.004   0.002  0.00  0.00    +0.030 A 
ATOM     25  C   LIG    1       -0.017   1.378   0.010  0.00  0.00    -0.080 A 
BRANCH  25  26
ATOM     26  C   LIG    1       -1.332   2.114   0.020  0.00  0.00    +0.240 C 
BRANCH  26  27
ATOM     27  O   LIG    1       -2.405   1.170   0.020  0.00  0.00    -0.570 OA
ATOM     28  H   LIG    1       -3.284   1.574   0.026  0.00  0.00    +0.380 HD
ENDBRANCH  26  27
ENDBRANCH  25  26
ENDBRANCH  19  20
ENDBRANCH   2  19
TORSDOF 7
