REMARK  Name = ZINCrD00000EeeBR.0
REMARK                            x       y       z     vdW  Elec       q    Type
REMARK                         _______ _______ _______ _____ _____    ______ ____
ROOT
ATOM      1  C   LIG    1        4.268   1.918  -0.325  0.00  0.00    +0.310 C 
ENDROOT
BRANCH   1   2
ATOM      2  C   LIG    1        4.003   0.960  -1.458  0.00  0.00    +0.210 A 
ATOM      3  N   LIG    1        4.753   0.807  -2.512  0.00  0.00    -0.460 NA
ATOM      4  C   LIG    1        4.201  -0.133  -3.300  0.00  0.00    -0.020 A 
ATOM      5  C   LIG    1        3.079  -0.562  -2.699  0.00  0.00    -0.040 A 
ATOM      6  C   LIG    1        2.133  -1.615  -3.217  0.00  0.00    +0.190 C 
ATOM      7  C   LIG    1        4.745  -0.618  -4.620  0.00  0.00    +0.160 C 
ATOM      8  O   LIG    1        2.962   0.121  -1.544  0.00  0.00    -0.180 OA
ENDBRANCH   1   2
BRANCH   1  11
ATOM      9  N   LIG    1        3.819   4.348  -0.435  0.00  0.00    -0.720 N 
ATOM     10  H   LIG    1        4.776   4.495  -0.370  0.00  0.00    +0.400 HD
ATOM     11  C   LIG    1        3.329   3.092  -0.431  0.00  0.00    +0.490 C 
ATOM     12  O   LIG    1        2.133   2.908  -0.512  0.00  0.00    -0.510 OA
BRANCH   9  13
ATOM     13  C   LIG    1        2.907   5.490  -0.538  0.00  0.00    +0.330 C 
BRANCH  13  17
ATOM     14  C   LIG    1        5.160   9.121  -0.491  0.00  0.00    +0.140 A 
ATOM     15  C   LIG    1        4.881   8.492  -1.696  0.00  0.00    -0.020 A 
ATOM     16  C   LIG    1        4.152   7.318  -1.708  0.00  0.00    +0.070 A 
ATOM     17  C   LIG    1        3.702   6.770  -0.522  0.00  0.00    -0.150 A 
ATOM     18  C   LIG    1        3.974   7.398   0.680  0.00  0.00    +0.070 A 
ATOM     19  C   LIG    1        4.707   8.569   0.698  0.00  0.00    -0.080 A 
BRANCH  14  21
ATOM     20  C   LIG    1        6.125  10.868   0.800  0.00  0.00    +0.250 C 
ATOM     21  O   LIG    1        5.875  10.276  -0.476  0.00  0.00    -0.320 OA
ENDBRANCH  14  21
ENDBRANCH  13  17
ENDBRANCH   9  13
ENDBRANCH   1  11
BRANCH   1  22
ATOM     22  N   LIG    1        4.051   1.232   0.956  0.00  0.00    -0.510 NA
ATOM     23  C   LIG    1        4.526   2.052   2.079  0.00  0.00    +0.210 C 
BRANCH  22  24
ATOM     24  C   LIG    1        2.637   0.872   1.129  0.00  0.00    +0.180 C 
ATOM     25  C   LIG    1        1.891   1.939   1.963  0.00  0.00    +0.030 C 
ATOM     26  C   LIG    1        0.925   1.151   2.818  0.00  0.00    -0.040 C 
ATOM     27  C   LIG    1        1.251  -0.113   2.852  0.00  0.00    -0.050 C 
ATOM     28  C   LIG    1        2.488  -0.378   2.026  0.00  0.00    +0.060 C 
ENDBRANCH  22  24
ENDBRANCH   1  22
TORSDOF 7
