REMARK  Name = ZINCvU00000007hD.0
REMARK                            x       y       z     vdW  Elec       q    Type
REMARK                         _______ _______ _______ _____ _____    ______ ____
ROOT
ATOM      1  N   LIG    1       -1.338   1.190   1.281  0.00  0.00    -0.670 N 
ATOM      2  H   LIG    1       -1.325   1.087   2.246  0.00  0.00    +0.410 HD
ATOM      3  C   LIG    1       -0.246   1.648   0.637  0.00  0.00    +0.500 C 
ATOM      4  O   LIG    1       -0.230   1.689  -0.575  0.00  0.00    -0.490 OA
ENDROOT
BRANCH   1  10
ATOM      5  C   LIG    1       -2.455  -0.151  -0.389  0.00  0.00    -0.050 A 
ATOM      6  C   LIG    1       -3.596  -0.475  -1.097  0.00  0.00    +0.010 A 
ATOM      7  C   LIG    1       -4.771   0.218  -0.870  0.00  0.00    +0.010 A 
ATOM      8  C   LIG    1       -4.809   1.232   0.069  0.00  0.00    +0.020 A 
ATOM      9  C   LIG    1       -3.673   1.557   0.784  0.00  0.00    -0.070 A 
ATOM     10  C   LIG    1       -2.491   0.864   0.559  0.00  0.00    +0.130 A 
BRANCH   5  12
ATOM     11  C   LIG    1       -1.105  -2.120   0.282  0.00  0.00    +0.030 C 
ATOM     12  C   LIG    1       -1.172  -0.902  -0.641  0.00  0.00    +0.020 C 
ATOM     13  C   LIG    1       -1.130  -1.364  -2.099  0.00  0.00    +0.040 C 
ENDBRANCH   5  12
BRANCH   9  14
ATOM     14  C   LIG    1       -3.716   2.663   1.806  0.00  0.00    +0.020 C 
ATOM     15  C   LIG    1       -4.745   2.321   2.885  0.00  0.00    +0.040 C 
ATOM     16  C   LIG    1       -4.110   3.974   1.123  0.00  0.00    +0.040 C 
ENDBRANCH   9  14
ENDBRANCH   1  10
BRANCH   3  17
ATOM     17  C   LIG    1        0.952   2.114   1.423  0.00  0.00    +0.350 C 
BRANCH  17  18
ATOM     18  N   LIG    1        1.996   2.566   0.500  0.00  0.00    -0.880 N 
BRANCH  18  19
ATOM     19  C   LIG    1        2.879   1.650  -0.050  0.00  0.00    +0.280 A 
ATOM     20  N   LIG    1        3.832   1.943  -0.879  0.00  0.00    -0.490 NA
ATOM     21  C   LIG    1        4.584   0.942  -1.301  0.00  0.00    +0.270 A 
ATOM     22  C   LIG    1        4.244  -0.252  -0.814  0.00  0.00    -0.090 A 
ATOM     23  S   LIG    1        2.866  -0.031   0.261  0.00  0.00    +0.140 S 
ENDBRANCH  18  19
BRANCH  18  24
ATOM     24  S   LIG    1        2.120   4.171   0.113  0.00  0.00    +2.680 S 
ATOM     25  O   LIG    1        0.838   4.739   0.341  0.00  0.00    -0.940 OA
ATOM     26  O   LIG    1        2.786   4.231  -1.141  0.00  0.00    -0.900 OA
BRANCH  24  27
ATOM     27  C   LIG    1        3.207   4.908   1.289  0.00  0.00    -0.680 A 
ATOM     28  C   LIG    1        2.699   5.446   2.457  0.00  0.00    +0.110 A 
ATOM     29  C   LIG    1        3.552   6.019   3.381  0.00  0.00    +0.000 A 
ATOM     30  C   LIG    1        4.911   6.065   3.133  0.00  0.00    +0.070 A 
ATOM     31  C   LIG    1        5.418   5.532   1.962  0.00  0.00    +0.000 A 
ATOM     32  C   LIG    1        4.566   4.954   1.040  0.00  0.00    +0.140 A 
ENDBRANCH  24  27
ENDBRANCH  18  24
ENDBRANCH  17  18
ENDBRANCH   3  17
TORSDOF 8
