REMARK  Name = ZINCpe00000JfaRr.0
REMARK                            x       y       z     vdW  Elec       q    Type
REMARK                         _______ _______ _______ _____ _____    ______ ____
ROOT
ATOM      1  N   LIG    1       -0.608  -0.561  -5.602  0.00  0.00    -0.520 NA
ATOM      2  C   LIG    1       -1.018  -1.860  -5.049  0.00  0.00    +0.150 C 
ATOM      3  C   LIG    1       -1.953  -2.558  -6.040  0.00  0.00    +0.230 C 
ATOM      4  O   LIG    1       -1.290  -2.692  -7.300  0.00  0.00    -0.370 OA
ATOM      5  C   LIG    1       -0.877  -1.446  -7.868  0.00  0.00    +0.140 C 
ATOM      6  C   LIG    1        0.069  -0.736  -6.895  0.00  0.00    +0.170 C 
ENDROOT
BRANCH   1   7
ATOM      7  C   LIG    1        0.247   0.167  -4.655  0.00  0.00    +0.220 C 
BRANCH   7  14
ATOM      8  C   LIG    1       -0.730   1.580   1.266  0.00  0.00    +0.030 C 
ATOM      9  C   LIG    1       -0.013   1.086   0.008  0.00  0.00    -0.040 C 
ATOM     10  C   LIG    1        1.423   1.616  -0.003  0.00  0.00    +0.020 C 
ATOM     11  C   LIG    1        2.152   1.095  -1.244  0.00  0.00    +0.010 C 
ATOM     12  C   LIG    1        1.439   1.603  -2.501  0.00  0.00    +0.260 C 
ATOM     13  N   LIG    1        0.022   1.221  -2.428  0.00  0.00    -0.610 N 
ATOM     14  C   LIG    1       -0.559   0.542  -3.437  0.00  0.00    +0.520 C 
ATOM     15  O   LIG    1       -1.729   0.232  -3.365  0.00  0.00    -0.520 OA
ATOM     16  C   LIG    1       -0.750   1.594  -1.235  0.00  0.00    +0.280 C 
ENDBRANCH   7  14
ENDBRANCH   1   7
BRANCH   5  17
ATOM     17  C   LIG    1       -0.152  -1.701  -9.190  0.00  0.00    +0.320 C 
BRANCH  17  18
ATOM     18  N   LIG    1       -1.091  -2.271 -10.160  0.00  0.00    -0.600 N 
ATOM     19  C   LIG    1       -1.864  -1.388 -11.037  0.00  0.00    +0.300 C 
BRANCH  18  20
ATOM     20  C   LIG    1       -1.248  -3.650 -10.248  0.00  0.00    +0.350 A 
ATOM     21  C   LIG    1       -0.589  -4.489  -9.350  0.00  0.00    +0.000 A 
ATOM     22  C   LIG    1       -0.783  -5.855  -9.477  0.00  0.00    +0.060 A 
ATOM     23  C   LIG    1       -1.612  -6.305 -10.495  0.00  0.00    +0.160 A 
ATOM     24  N   LIG    1       -2.192  -5.440 -11.303  0.00  0.00    -0.210 NA
ATOM     25  N   LIG    1       -2.021  -4.173 -11.189  0.00  0.00    -0.310 NA
ENDBRANCH  18  20
ENDBRANCH  17  18
ENDBRANCH   5  17
TORSDOF 5
