REMARK  Name = ZINCpk00000KfKuB.0
REMARK                            x       y       z     vdW  Elec       q    Type
REMARK                         _______ _______ _______ _____ _____    ______ ____
ROOT
ATOM      1  C   LIG    1       -1.290  -0.773   0.009  0.00  0.00    +0.350 C 
ENDROOT
BRANCH   1   6
ATOM      2  N   LIG    1       -0.206  -3.808  -1.758  0.00  0.00    -0.870 N 
ATOM      3  H   LIG    1        0.428  -4.533  -1.636  0.00  0.00    +0.420 HD
ATOM      4  H   LIG    1       -0.742  -3.763  -2.565  0.00  0.00    +0.400 HD
ATOM      5  C   LIG    1       -0.342  -2.865  -0.804  0.00  0.00    +0.700 C 
ATOM      6  N   LIG    1       -1.222  -1.859  -0.973  0.00  0.00    -0.730 N 
ATOM      7  H   LIG    1       -1.811  -1.853  -1.743  0.00  0.00    +0.410 HD
ATOM      8  O   LIG    1        0.330  -2.923   0.208  0.00  0.00    -0.580 OA
ENDBRANCH   1   6
BRANCH   1   9
ATOM      9  C   LIG    1        0.071  -0.141   0.153  0.00  0.00    -0.080 A 
ATOM     10  C   LIG    1        0.493   0.316   1.387  0.00  0.00    +0.040 A 
ATOM     11  C   LIG    1        1.741   0.896   1.520  0.00  0.00    +0.020 A 
ATOM     12  C   LIG    1        2.567   1.018   0.419  0.00  0.00    +0.040 A 
ATOM     13  C   LIG    1        2.145   0.561  -0.817  0.00  0.00    -0.090 A 
ATOM     14 BR   LIG    1        3.275   0.727  -2.324  0.00  0.00    -0.050 Br
ATOM     15  C   LIG    1        0.896  -0.019  -0.949  0.00  0.00    +0.060 A 
ENDBRANCH   1   9
BRANCH   1  16
ATOM     16  C   LIG    1       -1.738  -1.334   1.360  0.00  0.00    +0.080 C 
BRANCH  16  17
ATOM     17  C   LIG    1       -3.147  -1.856   1.245  0.00  0.00    +0.520 C 
ATOM     18  N   LIG    1       -3.753  -2.400   2.319  0.00  0.00    -0.520 N 
ATOM     19  H   LIG    1       -3.283  -2.455   3.165  0.00  0.00    +0.430 HD
ATOM     20  O   LIG    1       -3.735  -1.786   0.187  0.00  0.00    -0.540 OA
BRANCH  18  21
ATOM     21  N   LIG    1       -5.063  -2.885   2.212  0.00  0.00    -0.520 N 
ATOM     22  H   LIG    1       -5.534  -2.829   1.366  0.00  0.00    +0.430 HD
ATOM     23  C   LIG    1       -5.670  -3.429   3.286  0.00  0.00    +0.560 C 
ATOM     24  O   LIG    1       -5.080  -3.499   4.346  0.00  0.00    -0.520 OA
BRANCH  23  25
ATOM     25  C   LIG    1       -7.055  -3.942   3.173  0.00  0.00    -0.080 A 
ATOM     26  C   LIG    1       -7.753  -3.866   1.964  0.00  0.00    +0.000 A 
ATOM     27  C   LIG    1       -9.041  -4.362   1.902  0.00  0.00    +0.270 A 
ATOM     28  N   LIG    1       -9.615  -4.890   2.965  0.00  0.00    -0.460 NA
ATOM     29  C   LIG    1       -8.994  -4.976   4.125  0.00  0.00    +0.270 A 
ATOM     30  C   LIG    1       -7.702  -4.510   4.274  0.00  0.00    +0.040 A 
ENDBRANCH  23  25
ENDBRANCH  18  21
ENDBRANCH  16  17
ENDBRANCH   1  16
TORSDOF 6
