REMARK  Name = ZINCpk00000xIfAu.0
REMARK                            x       y       z     vdW  Elec       q    Type
REMARK                         _______ _______ _______ _____ _____    ______ ____
ROOT
ATOM      1  C   LIG    1       -4.118   0.352   3.428  0.00  0.00    +0.150 C 
ATOM      2  C   LIG    1       -4.265  -0.680   2.286  0.00  0.00    +0.080 C 
ATOM      3  C   LIG    1       -3.250  -0.239   1.255  0.00  0.00    +0.520 C 
ATOM      4  N   LIG    1       -2.371   0.615   1.807  0.00  0.00    -0.590 N 
ATOM      5  O   LIG    1       -3.231  -0.603   0.098  0.00  0.00    -0.520 OA
ATOM      6  C   LIG    1       -2.663   0.835   3.229  0.00  0.00    +0.320 C 
ENDROOT
BRANCH   6   7
ATOM      7  C   LIG    1       -2.551   2.300   3.564  0.00  0.00    +0.060 A 
ATOM      8  C   LIG    1       -1.736   2.845   4.497  0.00  0.00    -0.100 A 
ATOM      9  C   LIG    1       -1.938   4.229   4.488  0.00  0.00    +0.240 A 
ATOM     10  N   LIG    1       -2.847   4.504   3.588  0.00  0.00    -0.290 NA
ATOM     11  N   LIG    1       -3.249   3.303   2.991  0.00  0.00    -0.360 N 
ATOM     12  C   LIG    1       -4.251   3.160   1.932  0.00  0.00    +0.340 C 
ENDBRANCH   6   7
BRANCH   4  13
ATOM     13  C   LIG    1       -1.260   1.241   1.085  0.00  0.00    +0.210 C 
ATOM     14  C   LIG    1       -0.215   0.316   0.458  0.00  0.00    +0.020 C 
ATOM     15  C   LIG    1       -1.213   1.058  -0.434  0.00  0.00    +0.040 C 
ENDBRANCH   4  13
BRANCH   1  16
ATOM     16  N   LIG    1       -4.281  -0.289   4.740  0.00  0.00    -0.670 NA
ATOM     17  H   LIG    1       -3.735   0.184   5.444  0.00  0.00    +0.350 HD
BRANCH  16  18
ATOM     18  C   LIG    1       -5.697  -0.350   5.125  0.00  0.00    +0.250 C 
BRANCH  18  24
ATOM     19  C   LIG    1       -5.579  -0.294   7.636  0.00  0.00    +0.330 A 
ATOM     20  N   LIG    1       -5.690  -0.872   8.820  0.00  0.00    -0.540 NA
ATOM     21  C   LIG    1       -6.033  -2.140   8.943  0.00  0.00    +0.300 A 
ATOM     22  C   LIG    1       -6.291  -2.914   7.829  0.00  0.00    -0.070 A 
ATOM     23  C   LIG    1       -6.191  -2.343   6.567  0.00  0.00    +0.120 A 
ATOM     24  C   LIG    1       -5.824  -1.013   6.472  0.00  0.00    -0.160 A 
BRANCH  19  26
ATOM     25  C   LIG    1       -4.984   1.696   8.788  0.00  0.00    +0.260 C 
ATOM     26  O   LIG    1       -5.223   1.012   7.556  0.00  0.00    -0.310 OA
ENDBRANCH  19  26
ENDBRANCH  18  24
ENDBRANCH  16  18
ENDBRANCH   1  16
TORSDOF 6
