REMARK  Name = ZINCkj00000y7G5L.1
REMARK                            x       y       z     vdW  Elec       q    Type
REMARK                         _______ _______ _______ _____ _____    ______ ____
ROOT
ATOM      1  N   LIG    1       -2.854   1.652   0.036  0.00  0.00    -0.380 N 
ATOM      2  C   LIG    1       -2.212   1.124  -1.173  0.00  0.00    +0.260 C 
ATOM      3  C   LIG    1       -0.756   1.595  -1.230  0.00  0.00    +0.080 C 
ATOM      4  C   LIG    1       -0.013   1.086   0.008  0.00  0.00    +0.030 C 
ATOM      5  C   LIG    1       -0.733   1.581   1.266  0.00  0.00    +0.130 C 
ATOM      6  C   LIG    1       -2.190   1.111   1.229  0.00  0.00    +0.310 C 
ATOM      7  H   LIG    1       -2.784   2.659   0.041  0.00  0.00    +0.420 HD
ENDROOT
BRANCH   5   8
ATOM      8  O   LIG    1       -0.087   1.052   2.425  0.00  0.00    -0.530 OA
ATOM      9  H   LIG    1        0.842   1.307   2.509  0.00  0.00    +0.400 HD
ENDBRANCH   5   8
BRANCH   1  10
ATOM     10  C   LIG    1       -4.270   1.263   0.047  0.00  0.00    +0.440 C 
BRANCH  10  13
ATOM     11  C   LIG    1       -6.214   3.073  -3.100  0.00  0.00    +0.230 C 
ATOM     12  C   LIG    1       -5.519   2.426  -1.975  0.00  0.00    -0.040 C 
ATOM     13  C   LIG    1       -4.965   1.910  -1.078  0.00  0.00    -0.310 C 
ENDBRANCH  10  13
ENDBRANCH   1  10
BRANCH   5  14
ATOM     14  C   LIG    1       -0.690   3.110   1.310  0.00  0.00    +0.170 C 
BRANCH  14  15
ATOM     15  C   LIG    1        0.740   3.576   1.214  0.00  0.00    +0.150 A 
ATOM     16  N   LIG    1        1.401   3.845   0.114  0.00  0.00    -0.460 NA
ATOM     17  C   LIG    1        2.629   4.222   0.513  0.00  0.00    +0.210 A 
ATOM     18  N   LIG    1        2.653   4.158   1.811  0.00  0.00    -0.360 NA
ATOM     19  O   LIG    1        1.578   3.788   2.233  0.00  0.00    +0.090 OA
BRANCH  17  20
ATOM     20  C   LIG    1        3.768   4.639  -0.381  0.00  0.00    +0.050 C 
ATOM     21  C   LIG    1        5.141   4.830   0.268  0.00  0.00    +0.070 C 
ATOM     22  C   LIG    1        4.336   6.047  -0.193  0.00  0.00    +0.060 C 
ENDBRANCH  17  20
ENDBRANCH  14  15
ENDBRANCH   5  14
TORSDOF 6
