REMARK  Name = ZINCkj00000y7G5L.2
REMARK                            x       y       z     vdW  Elec       q    Type
REMARK                         _______ _______ _______ _____ _____    ______ ____
ROOT
ATOM      1  N   LIG    1        0.197  -2.543   2.815  0.00  0.00    -0.380 N 
ATOM      2  C   LIG    1        1.368  -2.007   3.520  0.00  0.00    +0.250 C 
ATOM      3  C   LIG    1        1.262  -0.483   3.607  0.00  0.00    +0.060 C 
ATOM      4  C   LIG    1        1.204   0.100   2.192  0.00  0.00    +0.030 C 
ATOM      5  C   LIG    1        0.023  -0.522   1.442  0.00  0.00    +0.120 C 
ATOM      6  C   LIG    1        0.175  -2.044   1.435  0.00  0.00    +0.310 C 
ATOM      7  H   LIG    1       -0.643  -2.252   3.291  0.00  0.00    +0.430 HD
ENDROOT
BRANCH   5   8
ATOM      8  O   LIG    1       -1.198  -0.166   2.094  0.00  0.00    -0.560 OA
ATOM      9  H   LIG    1       -1.358   0.787   2.136  0.00  0.00    +0.400 HD
ENDBRANCH   5   8
BRANCH   1  10
ATOM     10  C   LIG    1        0.265  -4.011   2.803  0.00  0.00    +0.440 C 
BRANCH  10  13
ATOM     11  C   LIG    1       -0.035  -5.432   6.656  0.00  0.00    +0.230 C 
ATOM     12  C   LIG    1        0.072  -4.924   5.279  0.00  0.00    -0.040 C 
ATOM     13  C   LIG    1        0.158  -4.519   4.180  0.00  0.00    -0.310 C 
ENDBRANCH  10  13
ENDBRANCH   1  10
BRANCH   5  14
ATOM     14  C   LIG    1        0.002  -0.004   0.002  0.00  0.00    +0.210 C 
BRANCH  14  15
ATOM     15  C   LIG    1       -0.018   1.503   0.010  0.00  0.00    +0.150 A 
ATOM     16  N   LIG    1        1.024   2.298   0.005  0.00  0.00    -0.460 NA
ATOM     17  C   LIG    1        0.527   3.547   0.016  0.00  0.00    +0.210 A 
ATOM     18  N   LIG    1       -0.769   3.450   0.028  0.00  0.00    -0.370 NA
ATOM     19  O   LIG    1       -1.103   2.284   0.019  0.00  0.00    +0.090 OA
BRANCH  17  20
ATOM     20  C   LIG    1        1.325   4.825   0.015  0.00  0.00    +0.050 C 
ATOM     21  C   LIG    1        0.564   6.134   0.236  0.00  0.00    +0.050 C 
ATOM     22  C   LIG    1        1.111   5.791  -1.152  0.00  0.00    +0.060 C 
ENDBRANCH  17  20
ENDBRANCH  14  15
ENDBRANCH   5  14
TORSDOF 6
