REMARK  Name = ZINCrD000000ACrT.0
REMARK                            x       y       z     vdW  Elec       q    Type
REMARK                         _______ _______ _______ _____ _____    ______ ____
ROOT
ATOM      1  C   LIG    1       -1.168   5.229  -2.355  0.00  0.00    +0.160 C 
ENDROOT
BRANCH   1   2
ATOM      2  C   LIG    1       -1.897   5.728  -3.576  0.00  0.00    +0.110 A 
ATOM      3  C   LIG    1       -2.877   6.631  -3.512  0.00  0.00    -0.130 A 
ATOM      4  S   LIG    1       -3.449   6.934  -5.150  0.00  0.00    +0.250 S 
ATOM      5  C   LIG    1       -2.319   5.808  -5.764  0.00  0.00    +0.240 A 
ATOM      6  N   LIG    1       -1.622   5.303  -4.795  0.00  0.00    -0.480 NA
BRANCH   5   7
ATOM      7  N   LIG    1       -2.170   5.482  -7.106  0.00  0.00    -0.610 N 
ATOM      8  H   LIG    1       -1.503   4.831  -7.375  0.00  0.00    +0.430 HD
ATOM      9  C   LIG    1       -2.951   6.070  -8.033  0.00  0.00    +0.610 C 
ATOM     10  O   LIG    1       -3.788   6.886  -7.695  0.00  0.00    -0.490 OA
BRANCH   9  11
ATOM     11  C   LIG    1       -2.793   5.726  -9.450  0.00  0.00    -0.090 A 
ATOM     12  C   LIG    1       -3.515   6.244 -10.487  0.00  0.00    +0.070 A 
ATOM     13  C   LIG    1       -3.032   5.637 -11.657  0.00  0.00    -0.070 A 
ATOM     14  C   LIG    1       -2.050   4.786 -11.288  0.00  0.00    +0.230 A 
ATOM     15  O   LIG    1       -1.905   4.846  -9.957  0.00  0.00    -0.160 OA
ENDBRANCH   9  11
ENDBRANCH   5   7
ENDBRANCH   1   2
BRANCH   1  17
ATOM     16  O   LIG    1       -1.848   3.119  -3.165  0.00  0.00    -0.520 OA
ATOM     17  C   LIG    1       -1.254   3.725  -2.299  0.00  0.00    +0.520 C 
ATOM     18  N   LIG    1       -0.670   3.054  -1.286  0.00  0.00    -0.730 N 
ATOM     19  H   LIG    1       -0.195   3.539  -0.594  0.00  0.00    +0.400 HD
BRANCH  18  20
ATOM     20  C   LIG    1       -0.753   1.593  -1.232  0.00  0.00    +0.290 C 
BRANCH  20  21
ATOM     21  C   LIG    1       -0.013   1.086   0.008  0.00  0.00    +0.200 C 
BRANCH  21  22
ATOM     22  O   LIG    1       -0.682   1.547   1.184  0.00  0.00    -0.310 OA
BRANCH  22  23
ATOM     23  C   LIG    1       -0.149   1.182   2.380  0.00  0.00    +0.140 A 
ATOM     24  C   LIG    1        0.991   0.392   2.421  0.00  0.00    -0.080 A 
ATOM     25  C   LIG    1        1.534   0.027   3.637  0.00  0.00    +0.070 A 
ATOM     26  C   LIG    1        0.937   0.438   4.814  0.00  0.00    -0.010 A 
ATOM     27  C   LIG    1       -0.203   1.222   4.776  0.00  0.00    +0.000 A 
ATOM     28 CL   LIG    1       -0.951   1.738   6.256  0.00  0.00    -0.060 Cl
ATOM     29  C   LIG    1       -0.747   1.595   3.561  0.00  0.00    +0.000 A 
ENDBRANCH  22  23
ENDBRANCH  21  22
ENDBRANCH  20  21
ENDBRANCH  18  20
ENDBRANCH   1  17
TORSDOF 8
