REMARK  Name = ZINCrH000004rZKH.2
REMARK                            x       y       z     vdW  Elec       q    Type
REMARK                         _______ _______ _______ _____ _____    ______ ____
ROOT
ATOM      1  N   LIG    1        1.361   3.327  -2.000  0.00  0.00    -0.530 NA
ATOM      2  C   LIG    1        0.884   4.302  -1.010  0.00  0.00    +0.170 C 
ATOM      3  C   LIG    1        1.261   3.829   0.396  0.00  0.00    +0.020 C 
ATOM      4  C   LIG    1        0.629   2.459   0.656  0.00  0.00    +0.020 C 
ATOM      5  C   LIG    1        1.103   1.475  -0.417  0.00  0.00    -0.010 C 
ATOM      6  C   LIG    1        0.731   2.016  -1.800  0.00  0.00    +0.180 C 
ENDROOT
BRANCH   1   7
ATOM      7  C   LIG    1        1.140   3.815  -3.368  0.00  0.00    +0.310 C 
ATOM      8  C   LIG    1       -0.334   4.185  -3.545  0.00  0.00    +0.030 C 
BRANCH   7  12
ATOM      9  C   LIG    1        3.309   6.467  -4.453  0.00  0.00    +0.220 A 
ATOM     10  N   LIG    1        2.912   6.879  -3.277  0.00  0.00    -0.370 NA
ATOM     11  O   LIG    1        2.159   6.066  -2.783  0.00  0.00    +0.080 OA
ATOM     12  C   LIG    1        1.996   5.030  -3.612  0.00  0.00    +0.200 A 
ATOM     13  N   LIG    1        2.725   5.268  -4.674  0.00  0.00    -0.470 NA
BRANCH   9  20
ATOM     14  C   LIG    1        4.399   9.034  -3.682  0.00  0.00    +0.100 C 
ATOM     15  C   LIG    1        4.764   8.416  -5.008  0.00  0.00    -0.050 A 
ATOM     16  C   LIG    1        5.626   9.072  -5.862  0.00  0.00    +0.000 A 
ATOM     17  C   LIG    1        5.958   8.508  -7.081  0.00  0.00    +0.040 A 
ATOM     18  C   LIG    1        5.431   7.283  -7.448  0.00  0.00    +0.000 A 
ATOM     19  C   LIG    1        4.571   6.616  -6.599  0.00  0.00    +0.070 A 
ATOM     20  C   LIG    1        4.234   7.179  -5.370  0.00  0.00    -0.030 A 
ENDBRANCH   9  20
ENDBRANCH   7  12
ENDBRANCH   1   7
BRANCH   5  21
ATOM     21  C   LIG    1        0.429   0.119  -0.201  0.00  0.00    +0.050 C 
BRANCH  21  22
ATOM     22  C   LIG    1        0.947  -0.507   1.095  0.00  0.00    -0.080 C 
ATOM     23  C   LIG    1        2.476  -0.524   1.078  0.00  0.00    +0.050 C 
ATOM     24  C   LIG    1        0.422  -1.940   1.215  0.00  0.00    +0.050 C 
BRANCH  22  25
ATOM     25  C   LIG    1        0.467   0.303   2.272  0.00  0.00    +0.530 C 
ATOM     26  O   LIG    1       -0.595   0.887   2.213  0.00  0.00    -0.540 OA
ATOM     27  N   LIG    1        1.217   0.380   3.389  0.00  0.00    -0.860 N 
ATOM     28  H   LIG    1        0.908   0.902   4.146  0.00  0.00    +0.400 HD
ATOM     29  H   LIG    1        2.066  -0.087   3.435  0.00  0.00    +0.400 HD
ENDBRANCH  22  25
ENDBRANCH  21  22
ENDBRANCH   5  21
TORSDOF 6
