REMARK  Name = ZINCvU00000006sD.0
REMARK                            x       y       z     vdW  Elec       q    Type
REMARK                         _______ _______ _______ _____ _____    ______ ____
ROOT
ATOM      1  C   LIG    1        4.807   1.364  -0.001  0.00  0.00    +0.520 C 
ATOM      2  O   LIG    1        4.987   0.163  -0.011  0.00  0.00    -0.490 OA
ENDROOT
BRANCH   1   3
ATOM      3  C   LIG    1        5.963   2.284  -0.015  0.00  0.00    -0.100 A 
ATOM      4  C   LIG    1        5.759   3.665  -0.003  0.00  0.00    +0.100 A 
ATOM      5  C   LIG    1        6.840   4.522  -0.015  0.00  0.00    +0.050 A 
ATOM      6  C   LIG    1        8.128   4.018  -0.040  0.00  0.00    -0.040 A 
ATOM      7  C   LIG    1        8.342   2.643  -0.052  0.00  0.00    +0.150 A 
ATOM      8 CL   LIG    1        9.483   5.104  -0.055  0.00  0.00    -0.050 Cl
ATOM      9  C   LIG    1        7.263   1.774  -0.034  0.00  0.00    +0.110 A 
BRANCH   7  10
ATOM     10  N   LIG    1        9.646   2.137  -0.076  0.00  0.00    -0.670 N 
ATOM     11  H   LIG    1       10.380   2.672   0.265  0.00  0.00    +0.410 HD
ATOM     12  C   LIG    1        9.883   0.907  -0.574  0.00  0.00    +0.600 C 
ATOM     13  O   LIG    1        8.981   0.277  -1.093  0.00  0.00    -0.500 OA
BRANCH  12  14
ATOM     14  C   LIG    1       11.227   0.329  -0.489  0.00  0.00    -0.280 A 
ATOM     15  C   LIG    1       11.591  -0.903  -0.955  0.00  0.00    +0.120 A 
ATOM     16  C   LIG    1       12.918  -1.194  -0.744  0.00  0.00    +0.000 A 
ATOM     17  C   LIG    1       13.618  -0.235  -0.128  0.00  0.00    -0.050 A 
ATOM     18  S   LIG    1       12.632   1.113   0.221  0.00  0.00    +0.200 S 
ENDBRANCH  12  14
ENDBRANCH   7  10
ENDBRANCH   1   3
BRANCH   1  19
ATOM     19  O   LIG    1        3.554   1.858   0.023  0.00  0.00    -0.330 OA
BRANCH  19  20
ATOM     20  C   LIG    1        2.467   0.896   0.036  0.00  0.00    +0.280 C 
BRANCH  20  22
ATOM     21  O   LIG    1        1.129   2.840   0.071  0.00  0.00    -0.440 OA
ATOM     22  C   LIG    1        1.149   1.627   0.063  0.00  0.00    +0.510 C 
ATOM     23  N   LIG    1       -0.006   0.933   0.078  0.00  0.00    -0.630 N 
ATOM     24  H   LIG    1        0.010  -0.036   0.072  0.00  0.00    +0.430 HD
BRANCH  23  25
ATOM     25  C   LIG    1       -1.217   1.606   0.097  0.00  0.00    +0.340 A 
ATOM     26  N   LIG    1       -1.347   2.887   0.112  0.00  0.00    -0.470 NA
ATOM     27  C   LIG    1       -2.595   3.395   0.125  0.00  0.00    +0.110 A 
ATOM     28  C   LIG    1       -2.998   4.747   0.138  0.00  0.00    +0.070 A 
ATOM     29  C   LIG    1       -4.331   5.074   0.157  0.00  0.00    +0.040 A 
ATOM     30  C   LIG    1       -5.301   4.084   0.162  0.00  0.00    +0.040 A 
ATOM     31  C   LIG    1       -4.931   2.757   0.150  0.00  0.00    +0.060 A 
ATOM     32  C   LIG    1       -3.584   2.406   0.131  0.00  0.00    -0.180 A 
ATOM     33  S   LIG    1       -2.795   0.831   0.112  0.00  0.00    +0.070 S 
ENDBRANCH  23  25
ENDBRANCH  20  22
ENDBRANCH  19  20
ENDBRANCH   1  19
TORSDOF 7
