REMARK  Name = ZINCpk000005p6ze.0
REMARK                            x       y       z     vdW  Elec       q    Type
REMARK                         _______ _______ _______ _____ _____    ______ ____
ROOT
ATOM      1  C   LIG    1        4.924   1.143  -0.039  0.00  0.00    +0.240 C 
ATOM      2  C   LIG    1        5.302   0.801  -1.481  0.00  0.00    +0.020 C 
ENDROOT
BRANCH   1   4
ATOM      3  C   LIG    1        2.488   1.112  -0.016  0.00  0.00    +0.570 C 
ATOM      4  N   LIG    1        3.630   1.828  -0.023  0.00  0.00    -0.700 N 
ATOM      5  H   LIG    1        3.594   2.797  -0.017  0.00  0.00    +0.410 HD
ATOM      6  O   LIG    1        2.532  -0.102  -0.023  0.00  0.00    -0.520 OA
BRANCH   3  11
ATOM      7  C   LIG    1       -0.051   3.757   0.022  0.00  0.00    +0.500 A 
ATOM      8  N   LIG    1       -1.195   3.092   0.029  0.00  0.00    -0.550 NA
ATOM      9  C   LIG    1       -1.214   1.770   0.017  0.00  0.00    +0.370 A 
ATOM     10  C   LIG    1       -0.013   1.076   0.008  0.00  0.00    -0.040 A 
ATOM     11  C   LIG    1        1.176   1.806   0.001  0.00  0.00    +0.170 A 
ATOM     12  N   LIG    1        1.115   3.136   0.008  0.00  0.00    -0.500 NA
BRANCH   7  14
ATOM     13  C   LIG    1       -1.361   5.737   0.044  0.00  0.00    +0.290 C 
ATOM     14  O   LIG    1       -0.076   5.112   0.028  0.00  0.00    -0.290 OA
ENDBRANCH   7  14
ENDBRANCH   3  11
ENDBRANCH   1   4
BRANCH   1  15
ATOM     15  C   LIG    1        5.992   2.056   0.566  0.00  0.00    +0.050 C 
BRANCH  15  16
ATOM     16  C   LIG    1        5.680   2.297   2.044  0.00  0.00    -0.020 C 
ATOM     17  C   LIG    1        4.712   3.468   2.290  0.00  0.00    +0.280 C 
ATOM     18  N   LIG    1        5.601   3.834   3.412  0.00  0.00    -0.640 N 
ATOM     19  C   LIG    1        5.438   4.518   4.562  0.00  0.00    +0.540 C 
ATOM     20  O   LIG    1        6.374   4.665   5.318  0.00  0.00    -0.540 OA
ATOM     21  C   LIG    1        6.739   3.147   2.770  0.00  0.00    +0.280 C 
BRANCH  19  22
ATOM     22  C   LIG    1        4.092   5.101   4.907  0.00  0.00    -0.020 C 
ATOM     23  C   LIG    1        3.817   6.457   4.235  0.00  0.00    +0.040 C 
ATOM     24  C   LIG    1        3.176   6.896   5.562  0.00  0.00    -0.040 C 
ATOM     25  C   LIG    1        1.682   6.580   5.655  0.00  0.00    +0.030 C 
ATOM     26  C   LIG    1        4.071   5.851   6.249  0.00  0.00    +0.060 C 
ENDBRANCH  19  22
ENDBRANCH  15  16
ENDBRANCH   1  15
TORSDOF 6
