REMARK  Name = ZINCrH000004o1A5.0
REMARK                            x       y       z     vdW  Elec       q    Type
REMARK                         _______ _______ _______ _____ _____    ______ ____
ROOT
ATOM      1  C   LIG    1       -4.560  -0.799   1.025  0.00  0.00    +0.030 C 
ATOM      2  C   LIG    1       -3.707  -1.065  -0.217  0.00  0.00    +0.190 C 
ENDROOT
BRANCH   2   3
ATOM      3  C   LIG    1       -2.410  -0.304  -0.108  0.00  0.00    +0.520 C 
ATOM      4  N   LIG    1       -2.424   1.040  -0.004  0.00  0.00    -0.670 N 
ATOM      5  H   LIG    1       -3.267   1.511   0.082  0.00  0.00    +0.420 HD
ATOM      6  O   LIG    1       -1.354  -0.901  -0.114  0.00  0.00    -0.480 OA
BRANCH   4   7
ATOM      7  C   LIG    1       -1.220   1.756  -0.020  0.00  0.00    +0.140 A 
ATOM      8  C   LIG    1       -0.098   1.216  -0.634  0.00  0.00    +0.080 A 
ATOM      9  C   LIG    1        1.088   1.926  -0.654  0.00  0.00    +0.050 A 
ATOM     10  C   LIG    1        1.161   3.173  -0.058  0.00  0.00    +0.080 A 
ATOM     11  C   LIG    1        0.044   3.714   0.561  0.00  0.00    +0.060 A 
ATOM     12  F   LIG    1        0.118   4.931   1.143  0.00  0.00    -0.110 F 
ATOM     13  F   LIG    1        2.321   3.864  -0.081  0.00  0.00    -0.120 F 
ATOM     14  C   LIG    1       -1.145   3.006   0.585  0.00  0.00    +0.060 A 
ATOM     15  F   LIG    1       -2.233   3.531   1.188  0.00  0.00    -0.120 F 
ENDBRANCH   4   7
ENDBRANCH   2   3
BRANCH   2  16
ATOM     16  N   LIG    1       -3.424  -2.503  -0.318  0.00  0.00    -0.500 NA
ATOM     17  C   LIG    1       -2.824  -3.010   0.923  0.00  0.00    +0.220 C 
BRANCH  16  18
ATOM     18  C   LIG    1       -4.637  -3.255  -0.663  0.00  0.00    +0.230 C 
BRANCH  18  19
ATOM     19  C   LIG    1       -4.269  -4.677  -0.998  0.00  0.00    +0.520 C 
ATOM     20  N   LIG    1       -5.227  -5.558  -1.346  0.00  0.00    -0.680 N 
ATOM     21  H   LIG    1       -6.145  -5.261  -1.448  0.00  0.00    +0.410 HD
ATOM     22  O   LIG    1       -3.109  -5.030  -0.954  0.00  0.00    -0.490 OA
BRANCH  20  23
ATOM     23  C   LIG    1       -4.899  -6.902  -1.560  0.00  0.00    +0.170 A 
ATOM     24  C   LIG    1       -3.675  -7.238  -2.122  0.00  0.00    +0.030 A 
ATOM     25  C   LIG    1       -3.354  -8.565  -2.332  0.00  0.00    +0.050 A 
ATOM     26  C   LIG    1       -4.250  -9.559  -1.984  0.00  0.00    +0.000 A 
ATOM     27  C   LIG    1       -5.471  -9.228  -1.423  0.00  0.00    +0.070 A 
ATOM     28  C   LIG    1       -5.796  -7.903  -1.205  0.00  0.00    -0.120 A 
ATOM     29 BR   LIG    1       -7.461  -7.451  -0.431  0.00  0.00    -0.050 Br
ENDBRANCH  20  23
ENDBRANCH  18  19
ENDBRANCH  16  18
ENDBRANCH   2  16
TORSDOF 6
