REMARK  Name = ZINCrH00000tj10k.0
REMARK                            x       y       z     vdW  Elec       q    Type
REMARK                         _______ _______ _______ _____ _____    ______ ____
ROOT
ATOM      1  C   LIG    1        1.884  -1.337   3.900  0.00  0.00    +0.210 A 
ATOM      2  C   LIG    1        0.543  -0.978   3.866  0.00  0.00    +0.000 A 
ATOM      3  C   LIG    1       -0.030  -0.566   2.679  0.00  0.00    +0.160 A 
ATOM      4  C   LIG    1        0.730  -0.509   1.525  0.00  0.00    -0.700 A 
ATOM      5  C   LIG    1        2.064  -0.870   1.555  0.00  0.00    +0.150 A 
ATOM      6  C   LIG    1        2.645  -1.279   2.740  0.00  0.00    -0.030 A 
ENDROOT
BRANCH   1   9
ATOM      7  O   LIG    1        0.603  -2.779   5.733  0.00  0.00    -0.510 OA
ATOM      8  C   LIG    1        1.737  -2.441   6.002  0.00  0.00    +0.510 C 
ATOM      9  N   LIG    1        2.467  -1.755   5.101  0.00  0.00    -0.680 N 
ATOM     10  H   LIG    1        3.398  -1.552   5.285  0.00  0.00    +0.420 HD
BRANCH   8  11
ATOM     11  C   LIG    1        2.328  -2.789   7.344  0.00  0.00    +0.060 C 
BRANCH  11  12
ATOM     12  C   LIG    1        1.298  -3.562   8.170  0.00  0.00    +0.050 C 
BRANCH  12  13
ATOM     13  C   LIG    1        1.898  -3.915   9.532  0.00  0.00    +0.110 C 
BRANCH  13  14
ATOM     14  C   LIG    1        0.884  -4.677  10.346  0.00  0.00    -0.180 A 
ATOM     15  C   LIG    1        0.742  -6.003  10.352  0.00  0.00    +0.000 A 
ATOM     16  C   LIG    1       -0.259  -6.479  11.181  0.00  0.00    +0.010 A 
ATOM     17  C   LIG    1       -0.931  -5.539  11.847  0.00  0.00    -0.050 A 
ATOM     18  S   LIG    1       -0.290  -3.953  11.438  0.00  0.00    +0.100 S 
ENDBRANCH  13  14
ENDBRANCH  12  13
ENDBRANCH  11  12
ENDBRANCH   8  11
ENDBRANCH   1   9
BRANCH   4  19
ATOM     19  S   LIG    1       -0.005   0.017   0.013  0.00  0.00    +2.700 S 
ATOM     20  O   LIG    1        0.786  -0.534  -1.031  0.00  0.00    -0.950 OA
ATOM     21  O   LIG    1       -1.400  -0.222   0.140  0.00  0.00    -0.950 OA
BRANCH  19  22
ATOM     22  N   LIG    1        0.181   1.660  -0.077  0.00  0.00    -1.120 NA
ATOM     23  H   LIG    1       -0.598   2.238  -0.064  0.00  0.00    +0.420 HD
BRANCH  22  24
ATOM     24  C   LIG    1        1.522   2.240  -0.183  0.00  0.00    +0.400 C 
BRANCH  24  25
ATOM     25  C   LIG    1        1.414   3.680  -0.615  0.00  0.00    -0.030 A 
ATOM     26  C   LIG    1        1.300   4.741   0.205  0.00  0.00    -0.030 A 
ATOM     27  C   LIG    1        1.231   5.889  -0.618  0.00  0.00    -0.070 A 
ATOM     28  C   LIG    1        1.298   5.460  -1.891  0.00  0.00    +0.180 A 
ATOM     29  O   LIG    1        1.409   4.122  -1.883  0.00  0.00    -0.170 OA
ENDBRANCH  24  25
ENDBRANCH  22  24
ENDBRANCH  19  22
ENDBRANCH   4  19
TORSDOF 9
