REMARK  Name = ZINCb80000003Whh.0
REMARK                            x       y       z     vdW  Elec       q    Type
REMARK                         _______ _______ _______ _____ _____    ______ ____
ROOT
ATOM      1  C   LIG    1        1.550  -1.961  -0.173  0.00  0.00    +0.090 C 
ATOM      2  C   LIG    1        1.403  -0.460  -0.427  0.00  0.00    +0.140 C 
ATOM      3  C   LIG    1        0.002  -0.004   0.002  0.00  0.00    +0.300 C 
ATOM      4  N   LIG    1       -0.018   1.462   0.010  0.00  0.00    -0.370 N 
ATOM      5  N   LIG    1       -1.117   2.318   0.019  0.00  0.00    -0.340 NA
ATOM      6  C   LIG    1       -0.671   3.555   0.025  0.00  0.00    +0.340 A 
ATOM      7  C   LIG    1        0.735   3.513   0.011  0.00  0.00    -0.140 A 
ATOM      8  C   LIG    1        1.106   2.221   0.003  0.00  0.00    +0.060 A 
ATOM      9  C   LIG    1        2.498   1.639  -0.009  0.00  0.00    +0.320 C 
ATOM     10  O   LIG    1        2.393   0.248   0.326  0.00  0.00    -0.370 OA
ENDROOT
BRANCH   6  11
ATOM     11  N   LIG    1       -1.459   4.712   0.036  0.00  0.00    -0.850 N 
ATOM     12  H   LIG    1       -2.426   4.640   0.045  0.00  0.00    +0.400 HD
ATOM     13  H   LIG    1       -1.038   5.586   0.035  0.00  0.00    +0.410 HD
ENDBRANCH   6  11
TORSDOF 1
