REMARK  Name = ZINCrH000004mEWz.0
REMARK                            x       y       z     vdW  Elec       q    Type
REMARK                         _______ _______ _______ _____ _____    ______ ____
ROOT
ATOM      1  N   LIG    1        6.189  -3.216   2.829  0.00  0.00    -0.740 N 
ATOM      2  H   LIG    1        5.861  -2.685   3.572  0.00  0.00    +0.400 HD
ATOM      3  C   LIG    1        5.939  -2.828   1.562  0.00  0.00    +0.710 C 
ATOM      4  N   LIG    1        5.234  -1.704   1.328  0.00  0.00    -0.750 N 
ATOM      5  H   LIG    1        4.906  -1.173   2.071  0.00  0.00    +0.400 HD
ATOM      6  O   LIG    1        6.349  -3.493   0.631  0.00  0.00    -0.590 OA
ENDROOT
BRANCH   1   7
ATOM      7  C   LIG    1        6.955  -4.438   3.083  0.00  0.00    +0.350 C 
BRANCH   7  11
ATOM      8  C   LIG    1        7.351  -5.021   7.301  0.00  0.00    +0.110 A 
ATOM      9  C   LIG    1        8.302  -4.291   6.608  0.00  0.00    -0.040 A 
ATOM     10  C   LIG    1        8.174  -4.108   5.243  0.00  0.00    +0.040 A 
ATOM     11  C   LIG    1        7.092  -4.644   4.570  0.00  0.00    -0.110 A 
ATOM     12  C   LIG    1        6.139  -5.374   5.256  0.00  0.00    -0.010 A 
ATOM     13  C   LIG    1        6.265  -5.565   6.623  0.00  0.00    +0.100 A 
BRANCH   8  15
ATOM     14  C   LIG    1        8.619  -4.618   9.273  0.00  0.00    +0.240 C 
ATOM     15  O   LIG    1        7.479  -5.206   8.643  0.00  0.00    -0.310 OA
ENDBRANCH   8  15
BRANCH  13  16
ATOM     16  O   LIG    1        5.328  -6.282   7.299  0.00  0.00    -0.310 OA
ATOM     17  C   LIG    1        4.240  -6.810   6.538  0.00  0.00    +0.250 C 
ENDBRANCH  13  16
ENDBRANCH   7  11
ENDBRANCH   1   7
BRANCH   4  18
ATOM     18  C   LIG    1        4.962  -1.282  -0.048  0.00  0.00    +0.410 C 
BRANCH  18  19
ATOM     19  C   LIG    1        4.163  -0.005  -0.035  0.00  0.00    -0.030 A 
ATOM     20  C   LIG    1        4.675   1.241  -0.033  0.00  0.00    -0.020 A 
ATOM     21  C   LIG    1        3.584   2.135  -0.025  0.00  0.00    +0.000 A 
ATOM     22  C   LIG    1        2.456   1.376  -0.013  0.00  0.00    +0.060 A 
ATOM     23  O   LIG    1        2.822   0.081  -0.022  0.00  0.00    -0.160 OA
BRANCH  22  24
ATOM     24  C   LIG    1        1.068   1.886   0.002  0.00  0.00    +0.140 A 
ATOM     25  C   LIG    1       -0.013   1.076   0.008  0.00  0.00    -0.060 A 
ATOM     26  S   LIG    1       -1.451   2.094   0.019  0.00  0.00    +0.150 S 
ATOM     27  C   LIG    1       -0.475   3.497   0.025  0.00  0.00    +0.060 A 
ATOM     28  C   LIG    1       -1.001   4.908   0.037  0.00  0.00    +0.190 C 
ATOM     29  N   LIG    1        0.773   3.179   0.011  0.00  0.00    -0.460 NA
ENDBRANCH  22  24
ENDBRANCH  18  19
ENDBRANCH   4  18
TORSDOF 7
