REMARK  Name = ZINCpk00000RMMHF.0
REMARK                            x       y       z     vdW  Elec       q    Type
REMARK                         _______ _______ _______ _____ _____    ______ ____
ROOT
ATOM      1  C   LIG    1        2.548   1.464  -0.015  0.00  0.00    +0.080 C 
ATOM      2  C   LIG    1        2.835   0.585  -1.259  0.00  0.00    +0.220 C 
ATOM      3  N   LIG    1        4.004  -0.228  -0.838  0.00  0.00    -0.460 N 
ATOM      4  C   LIG    1        3.761  -0.581   0.578  0.00  0.00    +0.220 C 
ATOM      5  C   LIG    1        2.835   0.502   1.161  0.00  0.00    +0.000 C 
ENDROOT
BRANCH   3   6
ATOM      6  C   LIG    1        4.124  -1.363  -1.618  0.00  0.00    +0.390 A 
ATOM      7  N   LIG    1        3.252  -1.595  -2.588  0.00  0.00    -0.520 NA
ATOM      8  C   LIG    1        3.327  -2.664  -3.357  0.00  0.00    +0.340 A 
ATOM      9  C   LIG    1        4.332  -3.603  -3.183  0.00  0.00    -0.030 A 
ATOM     10  C   LIG    1        5.264  -3.409  -2.189  0.00  0.00    -0.020 A 
ATOM     11  C   LIG    1        6.465  -4.176  -1.704  0.00  0.00    +0.140 C 
ATOM     12  C   LIG    1        7.496  -4.304  -2.827  0.00  0.00    +0.090 C 
ATOM     13  C   LIG    1        6.040  -5.564  -1.218  0.00  0.00    +0.090 C 
ATOM     14  O   LIG    1        7.021  -3.409  -0.600  0.00  0.00    -0.310 OA
ATOM     15  C   LIG    1        6.273  -2.307  -0.413  0.00  0.00    +0.530 C 
ATOM     16  O   LIG    1        6.481  -1.462   0.436  0.00  0.00    -0.440 OA
ATOM     17  C   LIG    1        5.174  -2.267  -1.385  0.00  0.00    -0.270 A 
ENDBRANCH   3   6
BRANCH   1  21
ATOM     18  C   LIG    1       -1.558   4.338   0.040  0.00  0.00    +0.360 C 
ATOM     19  N   LIG    1       -0.675   3.169   0.025  0.00  0.00    -0.380 N 
ATOM     20  C   LIG    1        0.674   3.192   0.013  0.00  0.00    +0.230 A 
ATOM     21  C   LIG    1        1.109   1.911   0.002  0.00  0.00    -0.230 A 
ATOM     22  C   LIG    1       -0.013   1.076   0.008  0.00  0.00    +0.240 A 
ATOM     23  N   LIG    1       -1.083   1.829   0.017  0.00  0.00    -0.290 NA
ENDBRANCH   1  21
BRANCH   5  24
ATOM     24  C   LIG    1        3.540   1.247   2.296  0.00  0.00    +0.190 C 
BRANCH  24  25
ATOM     25  O   LIG    1        3.692   0.374   3.417  0.00  0.00    -0.570 OA
ATOM     26  H   LIG    1        4.132   0.781   4.176  0.00  0.00    +0.380 HD
ENDBRANCH  24  25
ENDBRANCH   5  24
TORSDOF 4
