REMARK  Name = ZINCpk00000xIfwE.0
REMARK                            x       y       z     vdW  Elec       q    Type
REMARK                         _______ _______ _______ _____ _____    ______ ____
ROOT
ATOM      1  N   LIG    1       -3.443  -1.367  -3.542  0.00  0.00    -0.470 N 
ATOM      2  C   LIG    1       -2.959  -2.582  -2.872  0.00  0.00    +0.230 C 
ATOM      3  C   LIG    1       -2.623  -2.258  -1.415  0.00  0.00    +0.210 C 
ATOM      4  N   LIG    1       -1.607  -1.197  -1.373  0.00  0.00    -0.540 NA
ATOM      5  C   LIG    1       -2.092   0.018  -2.043  0.00  0.00    +0.200 C 
ATOM      6  C   LIG    1       -2.428  -0.306  -3.501  0.00  0.00    +0.220 C 
ENDROOT
BRANCH   1  11
ATOM      7  C   LIG    1       -4.093  -3.128  -6.578  0.00  0.00    +0.300 A 
ATOM      8  C   LIG    1       -4.582  -2.104  -7.380  0.00  0.00    +0.190 A 
ATOM      9  N   LIG    1       -4.681  -0.877  -6.902  0.00  0.00    -0.380 NA
ATOM     10  C   LIG    1       -4.317  -0.618  -5.660  0.00  0.00    +0.170 A 
ATOM     11  C   LIG    1       -3.827  -1.639  -4.850  0.00  0.00    +0.310 A 
ATOM     12  N   LIG    1       -3.721  -2.872  -5.331  0.00  0.00    -0.540 NA
BRANCH   7  14
ATOM     13  C   LIG    1       -3.481  -5.390  -6.191  0.00  0.00    +0.260 C 
ATOM     14  O   LIG    1       -3.992  -4.388  -7.072  0.00  0.00    -0.300 OA
ENDBRANCH   7  14
ENDBRANCH   1  11
BRANCH   4  15
ATOM     15  C   LIG    1       -1.202  -0.910   0.009  0.00  0.00    +0.350 C 
BRANCH  15  16
ATOM     16  C   LIG    1        0.002  -0.004   0.002  0.00  0.00    +0.180 A 
ATOM     17  N   LIG    1       -0.016   1.299   0.009  0.00  0.00    -0.270 NA
ATOM     18  N   LIG    1        1.191   1.747   0.000  0.00  0.00    -0.260 NA
ATOM     19  C   LIG    1        2.029   0.733  -0.013  0.00  0.00    +0.250 A 
ATOM     20  O   LIG    1        1.289  -0.395  -0.012  0.00  0.00    -0.210 OA
BRANCH  19  21
ATOM     21  C   LIG    1        3.497   0.815  -0.027  0.00  0.00    +0.030 A 
ATOM     22  C   LIG    1        4.235   1.960  -0.028  0.00  0.00    +0.060 A 
ATOM     23  C   LIG    1        5.587   1.571  -0.042  0.00  0.00    -0.060 A 
ATOM     24  C   LIG    1        5.611   0.223  -0.050  0.00  0.00    +0.220 A 
ATOM     25  O   LIG    1        4.347  -0.231  -0.035  0.00  0.00    -0.160 OA
ENDBRANCH  19  21
ENDBRANCH  15  16
ENDBRANCH   4  15
TORSDOF 5
