REMARK  Name = ZINCrD0000074L6R.0
REMARK                            x       y       z     vdW  Elec       q    Type
REMARK                         _______ _______ _______ _____ _____    ______ ____
ROOT
ATOM      1  C   LIG    1       -1.749  -3.444  -3.360  0.00  0.00    -0.260 A 
ATOM      2  C   LIG    1       -1.417  -4.760  -3.282  0.00  0.00    +0.250 A 
ATOM      3  N   LIG    1       -0.267  -4.933  -3.971  0.00  0.00    -0.370 N 
ATOM      4  N   LIG    1        0.118  -3.688  -4.486  0.00  0.00    -0.260 NA
ATOM      5  C   LIG    1        0.451  -6.198  -4.148  0.00  0.00    +0.360 C 
ATOM      6  C   LIG    1       -0.772  -2.800  -4.125  0.00  0.00    +0.100 A 
ATOM      7  C   LIG    1       -0.746  -1.333  -4.471  0.00  0.00    +0.160 C 
ENDROOT
BRANCH   1   8
ATOM      8  C   LIG    1       -2.958  -2.796  -2.737  0.00  0.00    +0.300 C 
BRANCH   8  11
ATOM      9  C   LIG    1       -1.215  -0.897   0.010  0.00  0.00    +0.280 C 
ATOM     10  C   LIG    1       -1.492  -1.397  -1.411  0.00  0.00    +0.160 C 
ATOM     11  N   LIG    1       -2.624  -2.334  -1.383  0.00  0.00    -0.520 NA
ATOM     12  C   LIG    1       -2.339  -3.470  -0.494  0.00  0.00    +0.160 C 
ATOM     13  C   LIG    1       -2.055  -2.948   0.917  0.00  0.00    +0.220 C 
ATOM     14  O   LIG    1       -0.972  -2.016   0.866  0.00  0.00    -0.370 OA
BRANCH   9  19
ATOM     15  C   LIG    1        3.591   0.634  -0.037  0.00  0.00    +0.180 C 
ATOM     16  C   LIG    1        2.084   0.668  -0.019  0.00  0.00    -0.010 A 
ATOM     17  C   LIG    1        1.322   1.776  -0.005  0.00  0.00    -0.060 A 
ATOM     18  C   LIG    1       -0.025   1.347   0.008  0.00  0.00    -0.040 A 
ATOM     19  C   LIG    1       -0.006   0.002   0.000  0.00  0.00    -0.010 A 
ATOM     20  O   LIG    1        1.274  -0.404  -0.016  0.00  0.00    -0.160 OA
ENDBRANCH   9  19
ENDBRANCH   8  11
ENDBRANCH   1   8
BRANCH   2  21
ATOM     21  O   LIG    1       -2.114  -5.726  -2.631  0.00  0.00    -0.220 OA
BRANCH  21  22
ATOM     22  C   LIG    1       -3.068  -6.401  -3.323  0.00  0.00    +0.060 A 
ATOM     23  C   LIG    1       -3.887  -7.324  -2.680  0.00  0.00    +0.060 A 
ATOM     24  C   LIG    1       -4.846  -7.988  -3.428  0.00  0.00    +0.020 A 
ATOM     25  C   LIG    1       -4.956  -7.715  -4.779  0.00  0.00    +0.230 A 
ATOM     26  N   LIG    1       -4.163  -6.835  -5.359  0.00  0.00    -0.450 NA
ATOM     27  C   LIG    1       -3.243  -6.177  -4.682  0.00  0.00    +0.190 A 
ENDBRANCH  21  22
ENDBRANCH   2  21
TORSDOF 5
