REMARK  Name = ZINCvU00000009XH.0
REMARK                            x       y       z     vdW  Elec       q    Type
REMARK                         _______ _______ _______ _____ _____    ______ ____
ROOT
ATOM      1  C   LIG    1       -2.505   0.842   0.132  0.00  0.00    +0.290 C 
ENDROOT
BRANCH   1   2
ATOM      2  C   LIG    1       -2.495   0.048   1.413  0.00  0.00    -0.110 A 
ATOM      3  C   LIG    1       -2.824   0.661   2.608  0.00  0.00    +0.030 A 
ATOM      4  C   LIG    1       -2.819  -0.068   3.783  0.00  0.00    +0.000 A 
ATOM      5  C   LIG    1       -2.478  -1.408   3.764  0.00  0.00    +0.010 A 
ATOM      6  C   LIG    1       -2.144  -2.019   2.569  0.00  0.00    +0.010 A 
ATOM      7  C   LIG    1       -2.153  -1.291   1.394  0.00  0.00    +0.010 A 
ENDBRANCH   1   2
BRANCH   1  10
ATOM      8  N   LIG    1       -0.041   1.024   0.019  0.00  0.00    -0.660 N 
ATOM      9  H   LIG    1        0.001   0.055   0.010  0.00  0.00    +0.410 HD
ATOM     10  C   LIG    1       -1.235   1.648   0.031  0.00  0.00    +0.520 C 
ATOM     11  O   LIG    1       -1.289   2.857  -0.039  0.00  0.00    -0.510 OA
BRANCH   8  17
ATOM     12  C   LIG    1        4.639   1.561   1.428  0.00  0.00    +0.100 C 
ATOM     13  C   LIG    1        3.424   2.059   0.689  0.00  0.00    -0.060 A 
ATOM     14  C   LIG    1        3.475   3.260   0.005  0.00  0.00    -0.010 A 
ATOM     15  C   LIG    1        2.362   3.720  -0.674  0.00  0.00    -0.060 A 
ATOM     16  C   LIG    1        1.195   2.981  -0.671  0.00  0.00    +0.010 A 
ATOM     17  C   LIG    1        1.140   1.775   0.014  0.00  0.00    +0.150 A 
ATOM     18  C   LIG    1        2.422   5.030  -1.417  0.00  0.00    +0.100 C 
ATOM     19  C   LIG    1        2.258   1.318   0.699  0.00  0.00    -0.030 A 
ENDBRANCH   8  17
ENDBRANCH   1  10
BRANCH   1  20
ATOM     20  N   LIG    1       -3.658   1.745   0.126  0.00  0.00    -0.730 N 
ATOM     21  H   LIG    1       -3.557   2.663   0.423  0.00  0.00    +0.410 HD
BRANCH  20  22
ATOM     22  C   LIG    1       -4.906   1.284  -0.308  0.00  0.00    +0.200 A 
ATOM     23  C   LIG    1       -5.049  -0.029  -0.738  0.00  0.00    -0.050 A 
ATOM     24  C   LIG    1       -6.281  -0.485  -1.162  0.00  0.00    +0.040 A 
ATOM     25  C   LIG    1       -7.375   0.370  -1.168  0.00  0.00    +0.110 A 
ATOM     26  C   LIG    1       -7.230   1.684  -0.743  0.00  0.00    +0.020 A 
ATOM     27  C   LIG    1       -5.999   2.140  -0.314  0.00  0.00    -0.030 A 
BRANCH  25  28
ATOM     28  N   LIG    1       -8.624  -0.092  -1.603  0.00  0.00    -0.560 N 
ATOM     29  C   LIG    1       -9.812   0.755  -1.757  0.00  0.00    +0.260 C 
ATOM     30  C   LIG    1      -11.008  -0.220  -1.822  0.00  0.00    +0.060 C 
ATOM     31  C   LIG    1      -10.336  -1.509  -2.348  0.00  0.00    +0.070 C 
ATOM     32  C   LIG    1       -8.886  -1.367  -1.939  0.00  0.00    +0.510 C 
ATOM     33  O   LIG    1       -8.079  -2.271  -1.915  0.00  0.00    -0.520 OA
ENDBRANCH  25  28
ENDBRANCH  20  22
ENDBRANCH   1  20
TORSDOF 6
