REMARK  Name = ZINCpe000000X5fg.0
REMARK                            x       y       z     vdW  Elec       q    Type
REMARK                         _______ _______ _______ _____ _____    ______ ____
ROOT
ATOM      1  C   LIG    1       -1.320   0.633   4.679  0.00  0.00    +0.320 C 
ENDROOT
BRANCH   1   5
ATOM      2  N   LIG    1       -0.749   1.582   1.173  0.00  0.00    -0.730 N 
ATOM      3  H   LIG    1       -1.274   2.395   1.105  0.00  0.00    +0.400 HD
ATOM      4  C   LIG    1       -0.698   0.909   2.340  0.00  0.00    +0.710 C 
ATOM      5  N   LIG    1       -1.376   1.365   3.411  0.00  0.00    -0.740 N 
ATOM      6  H   LIG    1       -1.900   2.178   3.343  0.00  0.00    +0.400 HD
ATOM      7  O   LIG    1       -0.041  -0.111   2.425  0.00  0.00    -0.580 OA
BRANCH   2  11
ATOM      8  C   LIG    1        0.440   3.100  -3.046  0.00  0.00    +0.060 C 
ATOM      9  C   LIG    1        0.623   1.860  -2.169  0.00  0.00    +0.190 C 
ATOM     10  C   LIG    1       -0.634   1.627  -1.301  0.00  0.00    +0.050 C 
ATOM     11  C   LIG    1       -0.013   1.086   0.008  0.00  0.00    +0.250 C 
ATOM     12  C   LIG    1        1.397   1.636  -0.003  0.00  0.00    +0.470 C 
ATOM     13  O   LIG    1        2.129   1.682   0.958  0.00  0.00    -0.430 OA
ATOM     14  O   LIG    1        1.714   2.064  -1.230  0.00  0.00    -0.340 OA
ENDBRANCH   2  11
ENDBRANCH   1   5
BRANCH   1  15
ATOM     15  C   LIG    1       -2.170   1.359   5.725  0.00  0.00    +0.160 C 
ATOM     16  C   LIG    1       -2.015   0.664   7.080  0.00  0.00    +0.170 C 
ATOM     17  N   LIG    1       -2.892   1.318   8.063  0.00  0.00    -0.530 NA
ATOM     18  C   LIG    1       -4.295   1.263   7.626  0.00  0.00    +0.140 C 
ATOM     19  C   LIG    1       -4.427   1.952   6.264  0.00  0.00    +0.220 C 
ATOM     20  O   LIG    1       -3.544   1.324   5.330  0.00  0.00    -0.380 OA
BRANCH  17  21
ATOM     21  C   LIG    1       -2.732   0.717   9.394  0.00  0.00    +0.230 C 
BRANCH  21  22
ATOM     22  C   LIG    1       -3.808   1.235  10.312  0.00  0.00    -0.090 A 
ATOM     23  C   LIG    1       -3.588   2.376  11.060  0.00  0.00    +0.020 A 
ATOM     24  C   LIG    1       -4.578   2.854  11.899  0.00  0.00    +0.000 A 
ATOM     25  C   LIG    1       -5.784   2.186  11.997  0.00  0.00    +0.000 A 
ATOM     26  C   LIG    1       -6.002   1.042  11.252  0.00  0.00    +0.000 A 
ATOM     27  C   LIG    1       -5.014   0.566  10.410  0.00  0.00    +0.010 A 
ENDBRANCH  21  22
ENDBRANCH  17  21
ENDBRANCH   1  15
TORSDOF 5
