REMARK  Name = ZINCpk00000eaf6X.0
REMARK                            x       y       z     vdW  Elec       q    Type
REMARK                         _______ _______ _______ _____ _____    ______ ____
ROOT
ATOM      1  C   LIG    1        3.103  -0.606   1.613  0.00  0.00    +0.580 C 
ATOM      2  N   LIG    1        2.395  -0.022   0.626  0.00  0.00    -0.610 N 
ATOM      3  C   LIG    1        1.607  -0.830  -0.317  0.00  0.00    +0.290 C 
ATOM      4  C   LIG    1        1.976  -0.412  -1.744  0.00  0.00    +0.190 C 
ATOM      5  N   LIG    1        1.813   1.042  -1.883  0.00  0.00    -0.490 N 
ATOM      6  C   LIG    1        2.729   1.768  -0.994  0.00  0.00    +0.190 C 
ATOM      7  C   LIG    1        2.390   1.439   0.464  0.00  0.00    +0.300 C 
ATOM      8  O   LIG    1        3.834   0.065   2.316  0.00  0.00    -0.540 OA
ENDROOT
BRANCH   1  11
ATOM      9  N   LIG    1        4.013  -4.127   2.368  0.00  0.00    -0.480 N 
ATOM     10  C   LIG    1        4.111  -2.802   2.155  0.00  0.00    +0.400 A 
ATOM     11  C   LIG    1        2.992  -2.059   1.840  0.00  0.00    -0.260 A 
ATOM     12  C   LIG    1        1.736  -2.704   1.732  0.00  0.00    +0.140 A 
ATOM     13  C   LIG    1        1.662  -4.044   1.947  0.00  0.00    -0.080 A 
ATOM     14  C   LIG    1        2.830  -4.760   2.270  0.00  0.00    +0.520 A 
ATOM     15  O   LIG    1        2.769  -5.963   2.464  0.00  0.00    -0.540 OA
BRANCH   9  16
ATOM     16  C   LIG    1        5.215  -4.894   2.707  0.00  0.00    +0.320 C 
BRANCH  16  17
ATOM     17  C   LIG    1        5.876  -5.399   1.423  0.00  0.00    +0.170 C 
BRANCH  17  19
ATOM     18  C   LIG    1        6.979  -4.649  -0.569  0.00  0.00    +0.210 C 
ATOM     19  O   LIG    1        6.341  -4.285   0.657  0.00  0.00    -0.390 OA
ENDBRANCH  17  19
ENDBRANCH  16  17
ENDBRANCH   9  16
ENDBRANCH   1  11
BRANCH   5  20
ATOM     20  C   LIG    1        1.982   1.440  -3.211  0.00  0.00    +0.110 A 
ATOM     21  C   LIG    1        2.272   0.497  -4.189  0.00  0.00    -0.040 A 
ATOM     22  C   LIG    1        2.434   0.893  -5.502  0.00  0.00    +0.030 A 
ATOM     23  C   LIG    1        2.319   2.229  -5.841  0.00  0.00    -0.030 A 
ATOM     24  C   LIG    1        2.036   3.171  -4.870  0.00  0.00    +0.030 A 
ATOM     25  C   LIG    1        1.867   2.780  -3.555  0.00  0.00    -0.010 A 
ENDBRANCH   5  20
TORSDOF 5
