REMARK  Name = ZINCrH000004uCN5.0
REMARK                            x       y       z     vdW  Elec       q    Type
REMARK                         _______ _______ _______ _____ _____    ______ ____
ROOT
ATOM      1  O   LIG    1        7.276   5.260   0.664  0.00  0.00    -0.530 OA
ATOM      2  C   LIG    1        6.586   4.886   1.593  0.00  0.00    +0.560 C 
ATOM      3  N   LIG    1        5.411   4.270   1.355  0.00  0.00    -0.720 N 
ATOM      4  H   LIG    1        4.861   3.972   2.095  0.00  0.00    +0.400 HD
ENDROOT
BRANCH   2   5
ATOM      5  C   LIG    1        7.035   5.108   2.982  0.00  0.00    -0.150 A 
ATOM      6  C   LIG    1        6.240   4.685   4.051  0.00  0.00    +0.080 A 
ATOM      7  C   LIG    1        6.664   4.890   5.345  0.00  0.00    +0.000 A 
ATOM      8  C   LIG    1        7.877   5.525   5.589  0.00  0.00    +0.170 A 
ATOM      9  C   LIG    1        8.667   5.953   4.528  0.00  0.00    +0.000 A 
ATOM     10  C   LIG    1        8.252   5.747   3.231  0.00  0.00    +0.120 A 
BRANCH   8  11
ATOM     11  N   LIG    1        8.302   5.735   6.904  0.00  0.00    -0.420 N 
ATOM     12  C   LIG    1        7.631   5.376   8.046  0.00  0.00    +0.130 A 
ATOM     13  C   LIG    1        8.395   5.761   9.085  0.00  0.00    +0.160 A 
ATOM     14  N   LIG    1        9.499   6.349   8.598  0.00  0.00    -0.480 NA
ATOM     15  C   LIG    1        9.455   6.339   7.294  0.00  0.00    +0.400 A 
ENDBRANCH   8  11
ENDBRANCH   2   5
BRANCH   3  16
ATOM     16  C   LIG    1        4.966   4.050  -0.024  0.00  0.00    +0.330 C 
BRANCH  16  17
ATOM     17  C   LIG    1        3.633   3.348  -0.015  0.00  0.00    -0.140 A 
ATOM     18  C   LIG    1        2.464   4.086   0.000  0.00  0.00    +0.080 A 
ATOM     19  C   LIG    1        1.240   3.444   0.009  0.00  0.00    +0.000 A 
ATOM     20  C   LIG    1        1.185   2.058   0.002  0.00  0.00    +0.140 A 
ATOM     21  C   LIG    1        2.359   1.320  -0.008  0.00  0.00    -0.080 A 
ATOM     22  C   LIG    1        3.580   1.966  -0.021  0.00  0.00    +0.070 A 
BRANCH  20  23
ATOM     23  O   LIG    1       -0.017   1.425   0.010  0.00  0.00    -0.300 OA
BRANCH  23  24
ATOM     24  C   LIG    1        0.002  -0.004   0.002  0.00  0.00    +0.230 C 
BRANCH  24  25
ATOM     25  C   LIG    1       -1.433  -0.534   0.013  0.00  0.00    +0.470 C 
ATOM     26  F   LIG    1       -2.088  -0.083   1.164  0.00  0.00    -0.170 F 
ATOM     27  F   LIG    1       -1.414  -1.933   0.005  0.00  0.00    -0.170 F 
ATOM     28  F   LIG    1       -2.110  -0.070  -1.121  0.00  0.00    -0.170 F 
ENDBRANCH  24  25
ENDBRANCH  23  24
ENDBRANCH  20  23
ENDBRANCH  16  17
ENDBRANCH   3  16
TORSDOF 7
