REMARK  Name = ZINCpk0000054GnC.0
REMARK                            x       y       z     vdW  Elec       q    Type
REMARK                         _______ _______ _______ _____ _____    ______ ____
ROOT
ATOM      1  N   LIG    1       -0.662   5.370   2.096  0.00  0.00    -0.720 N 
ATOM      2  H   LIG    1       -1.539   5.765   1.974  0.00  0.00    +0.400 HD
ATOM      3  C   LIG    1       -0.369   4.187   1.522  0.00  0.00    +0.600 C 
ATOM      4  O   LIG    1        0.732   3.692   1.677  0.00  0.00    -0.520 OA
ENDROOT
BRANCH   1   8
ATOM      5  C   LIG    1        0.971   8.247   5.388  0.00  0.00    +0.540 C 
ATOM      6  N   LIG    1        0.473   7.423   4.445  0.00  0.00    -0.650 N 
ATOM      7  C   LIG    1        0.113   7.578   3.022  0.00  0.00    +0.280 C 
ATOM      8  C   LIG    1        0.345   6.061   2.906  0.00  0.00    +0.250 C 
ATOM      9  C   LIG    1        0.071   6.001   4.420  0.00  0.00    +0.260 C 
ATOM     10  O   LIG    1        1.216   9.403   5.116  0.00  0.00    -0.510 OA
BRANCH   5  11
ATOM     11  C   LIG    1        1.222   7.732   6.782  0.00  0.00    +0.210 C 
BRANCH  11  12
ATOM     12  O   LIG    1        1.746   8.786   7.593  0.00  0.00    -0.360 OA
BRANCH  12  13
ATOM     13  C   LIG    1        2.021   8.400   8.941  0.00  0.00    +0.140 C 
ATOM     14  C   LIG    1        3.459   7.888   9.042  0.00  0.00    +0.020 C 
BRANCH  13  16
ATOM     15  C   LIG    1        0.377  10.043   9.857  0.00  0.00    +0.020 C 
ATOM     16  C   LIG    1        1.843   9.608   9.863  0.00  0.00    +0.030 C 
ENDBRANCH  13  16
ENDBRANCH  12  13
ENDBRANCH  11  12
ENDBRANCH   5  11
ENDBRANCH   1   8
BRANCH   3  17
ATOM     17  C   LIG    1       -1.380   3.493   0.709  0.00  0.00    -0.280 A 
ATOM     18  C   LIG    1       -2.663   3.924   0.440  0.00  0.00    +0.300 A 
ATOM     19  N   LIG    1       -3.256   3.000  -0.331  0.00  0.00    -0.450 N 
ATOM     20  H   LIG    1       -4.166   3.051  -0.663  0.00  0.00    +0.450 HD
ATOM     21  N   LIG    1       -2.366   1.952  -0.582  0.00  0.00    -0.260 NA
ATOM     22  C   LIG    1       -1.224   2.206   0.020  0.00  0.00    +0.210 A 
BRANCH  22  23
ATOM     23  C   LIG    1       -0.016   1.356   0.009  0.00  0.00    +0.040 A 
ATOM     24  C   LIG    1        0.002  -0.004   0.002  0.00  0.00    -0.010 A 
ATOM     25  C   LIG    1        1.357  -0.391  -0.013  0.00  0.00    -0.070 A 
ATOM     26  C   LIG    1        2.091   0.739  -0.014  0.00  0.00    +0.200 A 
ATOM     27  O   LIG    1        1.258   1.792  -0.000  0.00  0.00    -0.140 OA
ENDBRANCH  22  23
ENDBRANCH   3  17
TORSDOF 7
