REMARK  Name = ZINCkj00000y7wri.1
REMARK                            x       y       z     vdW  Elec       q    Type
REMARK                         _______ _______ _______ _____ _____    ______ ____
ROOT
ATOM      1  C   LIG    1       -4.661   0.492   3.063  0.00  0.00    +0.150 C 
ATOM      2  C   LIG    1       -5.778   1.457   3.512  0.00  0.00    +0.100 C 
ATOM      3  C   LIG    1       -6.297   2.039   2.170  0.00  0.00    +0.090 C 
ATOM      4  C   LIG    1       -4.991   2.128   1.342  0.00  0.00    +0.260 C 
ATOM      5  N   LIG    1       -4.218   0.928   1.726  0.00  0.00    -0.390 N 
ATOM      6  H   LIG    1       -4.383   0.191   1.057  0.00  0.00    +0.410 HD
ENDROOT
BRANCH   1   7
ATOM      7  C   LIG    1       -5.205  -0.936   2.991  0.00  0.00    +0.330 C 
BRANCH   7  10
ATOM      8  C   LIG    1       -5.380  -1.585   0.237  0.00  0.00    +0.100 C 
ATOM      9  C   LIG    1       -4.242  -2.101   1.079  0.00  0.00    +0.490 C 
ATOM     10  N   LIG    1       -4.194  -1.814   2.395  0.00  0.00    -0.600 N 
ATOM     11  O   LIG    1       -3.369  -2.773   0.573  0.00  0.00    -0.490 OA
BRANCH  10  12
ATOM     12  C   LIG    1       -3.132  -2.381   3.230  0.00  0.00    +0.180 C 
ATOM     13  C   LIG    1       -1.900  -2.944   2.520  0.00  0.00    +0.050 C 
ATOM     14  C   LIG    1       -2.913  -3.894   3.164  0.00  0.00    +0.030 C 
ENDBRANCH  10  12
ENDBRANCH   7  10
ENDBRANCH   1   7
BRANCH   5  15
ATOM     15  C   LIG    1       -2.785   1.253   1.762  0.00  0.00    +0.250 C 
BRANCH  15  16
ATOM     16  C   LIG    1       -2.303   1.585   0.348  0.00  0.00    +0.320 C 
BRANCH  16  17
ATOM     17  N   LIG    1       -0.874   1.909   0.384  0.00  0.00    -0.470 N 
ATOM     18  C   LIG    1        0.163   1.028   0.238  0.00  0.00    +0.120 A 
ATOM     19  C   LIG    1        1.299   1.745   0.331  0.00  0.00    +0.170 A 
ATOM     20  N   LIG    1        0.965   3.028   0.532  0.00  0.00    -0.480 NA
ATOM     21  C   LIG    1       -0.335   3.134   0.568  0.00  0.00    +0.400 A 
ENDBRANCH  16  17
ENDBRANCH  15  16
ENDBRANCH   5  15
TORSDOF 6
