REMARK  Name = ZINCkj00000y7wri.0
REMARK                            x       y       z     vdW  Elec       q    Type
REMARK                         _______ _______ _______ _____ _____    ______ ____
ROOT
ATOM      1  C   LIG    1       -4.843   0.400   2.864  0.00  0.00    +0.140 C 
ATOM      2  C   LIG    1       -5.278  -1.010   3.316  0.00  0.00    +0.080 C 
ATOM      3  C   LIG    1       -5.449  -1.770   1.974  0.00  0.00    +0.080 C 
ATOM      4  C   LIG    1       -4.310  -1.158   1.121  0.00  0.00    +0.250 C 
ATOM      5  N   LIG    1       -4.270   0.267   1.512  0.00  0.00    -0.380 N 
ATOM      6  H   LIG    1       -4.813   0.814   0.860  0.00  0.00    +0.430 HD
ENDROOT
BRANCH   1   7
ATOM      7  C   LIG    1       -3.788   0.952   3.825  0.00  0.00    +0.300 C 
BRANCH   7  10
ATOM      8  C   LIG    1       -4.990   0.383   7.413  0.00  0.00    +0.120 C 
ATOM      9  C   LIG    1       -4.277   0.216   6.096  0.00  0.00    +0.520 C 
ATOM     10  N   LIG    1       -4.391   1.163   5.143  0.00  0.00    -0.590 N 
ATOM     11  O   LIG    1       -3.599  -0.769   5.894  0.00  0.00    -0.530 OA
BRANCH  10  12
ATOM     12  C   LIG    1       -5.118   2.402   5.426  0.00  0.00    +0.210 C 
ATOM     13  C   LIG    1       -5.471   3.301   4.239  0.00  0.00    +0.020 C 
ATOM     14  C   LIG    1       -4.373   3.722   5.218  0.00  0.00    +0.040 C 
ENDBRANCH  10  12
ENDBRANCH   7  10
ENDBRANCH   1   7
BRANCH   5  15
ATOM     15  C   LIG    1       -2.879   0.740   1.516  0.00  0.00    +0.240 C 
BRANCH  15  16
ATOM     16  C   LIG    1       -2.314   0.676   0.096  0.00  0.00    +0.320 C 
BRANCH  16  17
ATOM     17  N   LIG    1       -0.895   1.038   0.118  0.00  0.00    -0.470 N 
ATOM     18  C   LIG    1       -0.370   2.281  -0.113  0.00  0.00    +0.120 A 
ATOM     19  C   LIG    1        0.967   2.167   0.000  0.00  0.00    +0.170 A 
ATOM     20  N   LIG    1        1.251   0.891   0.298  0.00  0.00    -0.480 NA
ATOM     21  C   LIG    1        0.140   0.209   0.373  0.00  0.00    +0.400 A 
ENDBRANCH  16  17
ENDBRANCH  15  16
ENDBRANCH   5  15
TORSDOF 6
