REMARK  Name = ZINCrD000000Dctj.0
REMARK                            x       y       z     vdW  Elec       q    Type
REMARK                         _______ _______ _______ _____ _____    ______ ____
ROOT
ATOM      1  C   LIG    1       -0.433   5.633  -2.251  0.00  0.00    +0.490 A 
ATOM      2  C   LIG    1       -0.574   7.046  -2.249  0.00  0.00    -0.230 A 
ATOM      3  C   LIG    1       -0.100   8.035  -1.301  0.00  0.00    +0.060 A 
ATOM      4  C   LIG    1       -0.400   9.284  -1.607  0.00  0.00    -0.030 A 
ATOM      5  S   LIG    1       -1.298   9.376  -3.109  0.00  0.00    +0.180 S 
ATOM      6  C   LIG    1       -1.257   7.632  -3.320  0.00  0.00    +0.120 A 
ATOM      7  N   LIG    1       -1.753   6.849  -4.284  0.00  0.00    -0.520 NA
ATOM      8  C   LIG    1       -1.602   5.538  -4.240  0.00  0.00    +0.430 A 
ATOM      9  N   LIG    1       -0.956   4.936  -3.246  0.00  0.00    -0.540 NA
ENDROOT
BRANCH   8  10
ATOM     10  C   LIG    1       -2.171   4.711  -5.332  0.00  0.00    +0.170 A 
ATOM     11  C   LIG    1       -2.850   5.326  -6.381  0.00  0.00    +0.030 A 
ATOM     12  C   LIG    1       -3.376   4.542  -7.394  0.00  0.00    +0.060 A 
ATOM     13  C   LIG    1       -3.204   3.167  -7.324  0.00  0.00    -0.010 A 
ATOM     14  C   LIG    1       -2.517   2.623  -6.252  0.00  0.00    +0.260 A 
ATOM     15  N   LIG    1       -2.023   3.393  -5.305  0.00  0.00    -0.440 NA
ENDBRANCH   8  10
BRANCH   1  16
ATOM     16  N   LIG    1        0.236   4.993  -1.223  0.00  0.00    -0.700 N 
ATOM     17  H   LIG    1        0.618   5.510  -0.496  0.00  0.00    +0.420 HD
BRANCH  16  18
ATOM     18  C   LIG    1        0.370   3.534  -1.232  0.00  0.00    +0.310 C 
BRANCH  18  19
ATOM     19  C   LIG    1        1.147   3.085   0.008  0.00  0.00    +0.300 C 
ATOM     20  F   LIG    1        2.418   3.670  -0.001  0.00  0.00    -0.180 F 
ATOM     21  F   LIG    1        0.458   3.483   1.159  0.00  0.00    -0.180 F 
BRANCH  19  22
ATOM     22  C   LIG    1        1.286   1.562  -0.002  0.00  0.00    +0.100 C 
ATOM     23  C   LIG    1        2.044   1.124  -1.259  0.00  0.00    +0.000 C 
ATOM     24  C   LIG    1        2.246  -0.394  -1.219  0.00  0.00    +0.230 C 
ATOM     25  O   LIG    1        2.952  -0.749  -0.028  0.00  0.00    -0.380 OA
ATOM     26  C   LIG    1        2.268  -0.406   1.179  0.00  0.00    +0.230 C 
ATOM     27  C   LIG    1        2.068   1.111   1.236  0.00  0.00    -0.010 C 
BRANCH  22  28
ATOM     28  O   LIG    1       -0.011   0.963   0.007  0.00  0.00    -0.540 OA
ATOM     29  H   LIG    1        0.002  -0.004   0.002  0.00  0.00    +0.390 HD
ENDBRANCH  22  28
ENDBRANCH  19  22
ENDBRANCH  18  19
ENDBRANCH  16  18
ENDBRANCH   1  16
TORSDOF 6
