REMARK  Name = ZINCpk00000eb95o.0
REMARK                            x       y       z     vdW  Elec       q    Type
REMARK                         _______ _______ _______ _____ _____    ______ ____
ROOT
ATOM      1  N   LIG    1       -5.890   0.895   6.387  0.00  0.00    -0.740 N 
ATOM      2  H   LIG    1       -5.660  -0.003   6.102  0.00  0.00    +0.400 HD
ATOM      3  C   LIG    1       -5.593   1.948   5.599  0.00  0.00    +0.710 C 
ATOM      4  N   LIG    1       -4.978   1.752   4.417  0.00  0.00    -0.740 N 
ATOM      5  H   LIG    1       -4.748   0.854   4.132  0.00  0.00    +0.400 HD
ATOM      6  O   LIG    1       -5.881   3.074   5.956  0.00  0.00    -0.580 OA
ENDROOT
BRANCH   1   7
ATOM      7  C   LIG    1       -6.559   1.107   7.673  0.00  0.00    +0.400 C 
BRANCH   7  10
ATOM      8  C   LIG    1       -9.072  -0.727   7.384  0.00  0.00    +0.160 C 
ATOM      9  C   LIG    1       -7.859  -1.017   8.230  0.00  0.00    +0.090 A 
ATOM     10  C   LIG    1       -6.775  -0.220   8.352  0.00  0.00    -0.100 A 
ATOM     11  N   LIG    1       -5.911  -0.842   9.213  0.00  0.00    -0.350 N 
ATOM     12  C   LIG    1       -4.682  -0.498   9.696  0.00  0.00    +0.220 A 
ATOM     13  C   LIG    1       -4.029  -1.311  10.553  0.00  0.00    +0.010 A 
ATOM     14  C   LIG    1       -4.607  -2.525  10.959  0.00  0.00    +0.050 A 
ATOM     15  C   LIG    1       -5.832  -2.879  10.485  0.00  0.00    +0.070 A 
ATOM     16  C   LIG    1       -6.501  -2.020   9.591  0.00  0.00    +0.240 A 
ATOM     17  N   LIG    1       -7.676  -2.105   8.982  0.00  0.00    -0.490 NA
ENDBRANCH   7  10
ENDBRANCH   1   7
BRANCH   4  18
ATOM     18  C   LIG    1       -4.655   2.897   3.561  0.00  0.00    +0.370 C 
BRANCH  18  19
ATOM     19  C   LIG    1       -3.976   2.411   2.307  0.00  0.00    +0.200 A 
ATOM     20  C   LIG    1       -4.711   2.181   1.155  0.00  0.00    -0.120 A 
ATOM     21  C   LIG    1       -4.047   1.734   0.023  0.00  0.00    +0.370 A 
ATOM     22  N   LIG    1       -2.740   1.542   0.075  0.00  0.00    -0.560 NA
ATOM     23  C   LIG    1       -2.066   1.770   1.193  0.00  0.00    +0.560 A 
ATOM     24  N   LIG    1       -2.671   2.193   2.294  0.00  0.00    -0.550 NA
BRANCH  23  25
ATOM     25  N   LIG    1       -0.698   1.558   1.213  0.00  0.00    -0.590 N 
ATOM     26  C   LIG    1        0.063   1.806   2.440  0.00  0.00    +0.310 C 
ATOM     27  C   LIG    1       -0.013   1.086   0.008  0.00  0.00    +0.300 C 
ENDBRANCH  23  25
ENDBRANCH  18  19
ENDBRANCH   4  18
TORSDOF 5
