REMARK  Name = ZINCyk0000000jIj.0
REMARK                            x       y       z     vdW  Elec       q    Type
REMARK                         _______ _______ _______ _____ _____    ______ ____
ROOT
ATOM      1  N   LIG    1       -5.912   0.901  -1.216  0.00  0.00    -1.000 NA
ATOM      2  C   LIG    1       -6.059   1.974  -2.210  0.00  0.00    +0.290 C 
ATOM      3  C   LIG    1       -7.499   1.988  -2.718  0.00  0.00    +0.030 C 
ATOM      4  C   LIG    1       -7.869   0.596  -3.235  0.00  0.00    +0.000 C 
ATOM      5  C   LIG    1       -7.768  -0.418  -2.094  0.00  0.00    +0.050 C 
ATOM      6  C   LIG    1       -6.325  -0.461  -1.581  0.00  0.00    +0.290 C 
ENDROOT
BRANCH   4   7
ATOM      7  C   LIG    1       -9.280   0.616  -3.765  0.00  0.00    +0.530 C 
ATOM      8  N   LIG    1       -9.607   1.439  -4.780  0.00  0.00    -0.760 N 
ATOM      9  H   LIG    1       -8.935   2.019  -5.170  0.00  0.00    +0.400 HD
ATOM     10  O   LIG    1      -10.121  -0.110  -3.277  0.00  0.00    -0.500 OA
BRANCH   8  11
ATOM     11  C   LIG    1      -10.979   1.458  -5.295  0.00  0.00    +0.320 C 
BRANCH  11  12
ATOM     12  C   LIG    1      -11.112   2.558  -6.350  0.00  0.00    +0.290 C 
BRANCH  12  13
ATOM     13  N   LIG    1      -10.686   3.842  -5.776  0.00  0.00    -0.380 N 
ATOM     14  C   LIG    1      -11.475   4.122  -4.569  0.00  0.00    +0.250 C 
ATOM     15  C   LIG    1      -10.980   5.417  -3.922  0.00  0.00    +0.060 C 
ATOM     16  C   LIG    1      -11.138   6.571  -4.916  0.00  0.00    +0.040 C 
ATOM     17  C   LIG    1      -10.373   6.235  -6.199  0.00  0.00    +0.060 C 
ATOM     18  C   LIG    1      -10.890   4.909  -6.763  0.00  0.00    +0.250 C 
ATOM     19  H   LIG    1       -9.709   3.792  -5.532  0.00  0.00    +0.420 HD
ENDBRANCH  12  13
BRANCH  12  20
ATOM     20  C   LIG    1      -12.549   2.658  -6.793  0.00  0.00    -0.100 A 
ATOM     21  C   LIG    1      -13.031   2.283  -7.991  0.00  0.00    +0.040 A 
ATOM     22  C   LIG    1      -14.419   2.551  -7.977  0.00  0.00    -0.050 A 
ATOM     23  C   LIG    1      -14.702   3.075  -6.771  0.00  0.00    +0.230 A 
ATOM     24  O   LIG    1      -13.567   3.132  -6.056  0.00  0.00    -0.180 OA
ENDBRANCH  12  20
ENDBRANCH  11  12
ENDBRANCH   8  11
ENDBRANCH   4   7
BRANCH   1  25
ATOM     25  S   LIG    1       -5.299   1.224   0.288  0.00  0.00    +2.720 S 
ATOM     26  O   LIG    1       -5.519   2.608   0.523  0.00  0.00    -0.960 OA
ATOM     27  O   LIG    1       -5.787   0.202   1.147  0.00  0.00    -0.950 OA
BRANCH  25  31
ATOM     28  C   LIG    1       -0.493  -0.921   0.413  0.00  0.00    +0.340 C 
ATOM     29  N   LIG    1       -1.555   0.077   0.259  0.00  0.00    -0.400 N 
ATOM     30  C   LIG    1       -2.881  -0.147   0.431  0.00  0.00    +0.330 A 
ATOM     31  C   LIG    1       -3.553   1.005   0.198  0.00  0.00    -0.760 A 
ATOM     32  C   LIG    1       -2.616   1.991  -0.126  0.00  0.00    +0.110 A 
ATOM     33  C   LIG    1       -1.372   1.398  -0.080  0.00  0.00    -0.050 A 
BRANCH  33  34
ATOM     34  C   LIG    1       -0.088   2.054  -0.350  0.00  0.00    +0.590 C 
ATOM     35  O   LIG    1        0.939   1.402  -0.357  0.00  0.00    -0.540 OA
ATOM     36  N   LIG    1       -0.046   3.380  -0.590  0.00  0.00    -0.840 N 
ATOM     37  H   LIG    1        0.808   3.828  -0.691  0.00  0.00    +0.410 HD
ATOM     38  H   LIG    1       -0.871   3.887  -0.659  0.00  0.00    +0.400 HD
ENDBRANCH  33  34
ENDBRANCH  25  31
ENDBRANCH   1  25
TORSDOF 8
