REMARK  Name = ZINCb700000010yj.0
REMARK                            x       y       z     vdW  Elec       q    Type
REMARK                         _______ _______ _______ _____ _____    ______ ____
ROOT
ATOM      1  N   LIG    1        1.058   1.903   0.002  0.00  0.00    -0.310 N 
ATOM      2  C   LIG    1       -0.013   1.076   0.008  0.00  0.00    +0.160 A 
ATOM      3  C   LIG    1       -1.106   1.874   0.017  0.00  0.00    +0.030 A 
ATOM      4  N   LIG    1       -0.656   3.134   0.024  0.00  0.00    -0.240 NA
ATOM      5  N   LIG    1        0.630   3.117   0.012  0.00  0.00    -0.090 NA
ENDROOT
BRANCH   3   6
ATOM      6  C   LIG    1       -2.546   1.430   0.021  0.00  0.00    +0.040 C 
ATOM      7  C   LIG    1       -2.840  -0.020  -0.367  0.00  0.00    +0.030 C 
ATOM      8  C   LIG    1       -3.192   1.116  -1.330  0.00  0.00    +0.040 C 
ENDBRANCH   3   6
BRANCH   1   9
ATOM      9  C   LIG    1        2.463   1.488  -0.013  0.00  0.00    +0.350 C 
BRANCH   9  10
ATOM     10  C   LIG    1        3.175   2.144  -1.198  0.00  0.00    +0.270 C 
BRANCH  10  11
ATOM     11  N   LIG    1        4.584   1.728  -1.214  0.00  0.00    -0.630 N 
ATOM     12  H   LIG    1        4.638   0.724  -1.302  0.00  0.00    +0.440 HD
ATOM     13  H   LIG    1        5.029   2.014  -0.354  0.00  0.00    +0.440 HD
ATOM     14  H   LIG    1        5.054   2.160  -1.995  0.00  0.00    +0.450 HD
ENDBRANCH  10  11
ENDBRANCH   9  10
ENDBRANCH   1   9
TORSDOF 4
