REMARK  Name = ZINCwl0000000sOJ.2
REMARK                            x       y       z     vdW  Elec       q    Type
REMARK                         _______ _______ _______ _____ _____    ______ ____
ROOT
ATOM      1  C   LIG    1       -1.519   4.194  -2.184  0.00  0.00    -0.290 A 
ATOM      2  C   LIG    1       -1.720   5.559  -2.264  0.00  0.00    +0.150 A 
ATOM      3  N   LIG    1       -2.370   5.821  -3.411  0.00  0.00    -0.420 N 
ATOM      4  C   LIG    1       -2.616   4.665  -4.094  0.00  0.00    +0.050 A 
ATOM      5  C   LIG    1       -3.329   4.569  -5.418  0.00  0.00    +0.150 C 
ATOM      6  C   LIG    1       -1.282   6.578  -1.243  0.00  0.00    +0.150 C 
ATOM      7  C   LIG    1       -2.121   3.628  -3.399  0.00  0.00    -0.020 A 
ENDROOT
BRANCH   1   8
ATOM      8  C   LIG    1       -0.849   3.462  -1.107  0.00  0.00    +0.420 C 
ATOM      9  O   LIG    1       -0.395   4.062  -0.156  0.00  0.00    -0.470 OA
BRANCH   8  10
ATOM     10  C   LIG    1       -0.724   1.962  -1.181  0.00  0.00    +0.270 C 
BRANCH  10  14
ATOM     11  C   LIG    1        1.482  -0.441   0.011  0.00  0.00    +0.000 C 
ATOM     12  C   LIG    1        2.209   0.798   0.597  0.00  0.00    +0.100 C 
ATOM     13  C   LIG    1        1.377   1.960  -0.001  0.00  0.00    +0.270 C 
ATOM     14  N   LIG    1       -0.018   1.470   0.010  0.00  0.00    -0.380 N 
ATOM     15  H   LIG    1       -0.487   1.799   0.841  0.00  0.00    +0.430 HD
ATOM     16  C   LIG    1        0.002  -0.004   0.002  0.00  0.00    +0.290 C 
BRANCH  11  20
ATOM     17  C   LIG    1        3.094  -3.350   1.907  0.00  0.00    +0.310 C 
ATOM     18  N   LIG    1        2.904  -2.182   1.044  0.00  0.00    -0.720 N 
ATOM     19  H   LIG    1        3.661  -1.796   0.576  0.00  0.00    +0.410 HD
ATOM     20  C   LIG    1        1.677  -1.643   0.899  0.00  0.00    +0.520 C 
ATOM     21  O   LIG    1        0.730  -2.125   1.484  0.00  0.00    -0.530 OA
ENDBRANCH  11  20
ENDBRANCH  10  14
ENDBRANCH   8  10
ENDBRANCH   1   8
BRANCH   3  22
ATOM     22  C   LIG    1       -2.764   7.158  -3.862  0.00  0.00    +0.430 C 
BRANCH  22  23
ATOM     23  C   LIG    1       -4.140   7.480  -3.338  0.00  0.00    -0.060 A 
ATOM     24  C   LIG    1       -4.495   8.561  -2.604  0.00  0.00    +0.180 A 
ATOM     25  N   LIG    1       -5.828   8.430  -2.362  0.00  0.00    -0.230 N 
ATOM     26  N   LIG    1       -6.231   7.341  -2.918  0.00  0.00    -0.070 NA
ATOM     27  N   LIG    1       -5.251   6.756  -3.511  0.00  0.00    -0.240 NA
BRANCH  25  28
ATOM     28  C   LIG    1       -6.624   9.326  -1.633  0.00  0.00    +0.160 A 
ATOM     29  C   LIG    1       -6.083  10.519  -1.173  0.00  0.00    -0.050 A 
ATOM     30  C   LIG    1       -6.867  11.403  -0.455  0.00  0.00    +0.090 A 
ATOM     31  C   LIG    1       -8.189  11.103  -0.194  0.00  0.00    -0.050 A 
ATOM     32  C   LIG    1       -8.736   9.910  -0.652  0.00  0.00    +0.240 A 
ATOM     33  C   LIG    1       -7.953   9.023  -1.377  0.00  0.00    -0.040 A 
BRANCH  32  34
ATOM     34  N   LIG    1      -10.073   9.606  -0.387  0.00  0.00    -0.870 N 
ATOM     35  H   LIG    1      -10.454   8.774  -0.707  0.00  0.00    +0.400 HD
ATOM     36  H   LIG    1      -10.621  10.228   0.117  0.00  0.00    +0.410 HD
ENDBRANCH  32  34
ENDBRANCH  25  28
ENDBRANCH  22  23
ENDBRANCH   3  22
TORSDOF 8
