REMARK  Name = ZINCwl0000000sOJ.1
REMARK                            x       y       z     vdW  Elec       q    Type
REMARK                         _______ _______ _______ _____ _____    ______ ____
ROOT
ATOM      1  C   LIG    1       -7.356  -1.830  -2.311  0.00  0.00    -0.290 A 
ATOM      2  C   LIG    1       -6.891  -1.465  -1.061  0.00  0.00    +0.170 A 
ATOM      3  N   LIG    1       -6.574  -0.159  -1.097  0.00  0.00    -0.420 N 
ATOM      4  C   LIG    1       -6.821   0.358  -2.336  0.00  0.00    +0.030 A 
ATOM      5  C   LIG    1       -6.593   1.790  -2.747  0.00  0.00    +0.150 C 
ATOM      6  C   LIG    1       -6.761  -2.373   0.134  0.00  0.00    +0.150 C 
ATOM      7  C   LIG    1       -7.297  -0.614  -3.133  0.00  0.00    -0.010 A 
ENDROOT
BRANCH   1   8
ATOM      8  C   LIG    1       -7.815  -3.156  -2.729  0.00  0.00    +0.420 C 
ATOM      9  O   LIG    1       -7.810  -4.077  -1.938  0.00  0.00    -0.470 OA
BRANCH   8  10
ATOM     10  C   LIG    1       -8.293  -3.378  -4.141  0.00  0.00    +0.280 C 
BRANCH  10  14
ATOM     11  C   LIG    1       -9.974  -6.300  -5.617  0.00  0.00    -0.010 C 
ATOM     12  C   LIG    1      -10.758  -6.063  -4.306  0.00  0.00    +0.100 C 
ATOM     13  C   LIG    1       -9.904  -5.063  -3.502  0.00  0.00    +0.280 C 
ATOM     14  N   LIG    1       -8.696  -4.781  -4.307  0.00  0.00    -0.390 N 
ATOM     15  H   LIG    1       -7.944  -5.394  -4.032  0.00  0.00    +0.430 HD
ATOM     16  C   LIG    1       -9.079  -5.040  -5.719  0.00  0.00    +0.300 C 
BRANCH  11  20
ATOM     17  C   LIG    1      -12.694  -7.489  -8.035  0.00  0.00    +0.310 C 
ATOM     18  N   LIG    1      -11.780  -7.409  -6.893  0.00  0.00    -0.720 N 
ATOM     19  H   LIG    1      -11.799  -8.096  -6.208  0.00  0.00    +0.410 HD
ATOM     20  C   LIG    1      -10.914  -6.382  -6.793  0.00  0.00    +0.520 C 
ATOM     21  O   LIG    1      -10.890  -5.523  -7.649  0.00  0.00    -0.530 OA
ENDBRANCH  11  20
ENDBRANCH  10  14
ENDBRANCH   8  10
ENDBRANCH   1   8
BRANCH   3  22
ATOM     22  C   LIG    1       -6.043   0.604   0.035  0.00  0.00    +0.430 C 
BRANCH  22  23
ATOM     23  C   LIG    1       -4.538   0.533   0.027  0.00  0.00    -0.060 A 
ATOM     24  C   LIG    1       -3.678   1.579   0.029  0.00  0.00    +0.180 A 
ATOM     25  N   LIG    1       -2.429   1.039   0.020  0.00  0.00    -0.230 N 
ATOM     26  N   LIG    1       -2.547  -0.243   0.008  0.00  0.00    -0.070 NA
ATOM     27  N   LIG    1       -3.789  -0.575   0.018  0.00  0.00    -0.250 NA
BRANCH  25  28
ATOM     28  C   LIG    1       -1.222   1.754   0.017  0.00  0.00    +0.160 A 
ATOM     29  C   LIG    1       -1.238   3.143   0.029  0.00  0.00    -0.050 A 
ATOM     30  C   LIG    1       -0.050   3.849   0.022  0.00  0.00    +0.090 A 
ATOM     31  C   LIG    1        1.156   3.177   0.008  0.00  0.00    -0.050 A 
ATOM     32  C   LIG    1        1.179   1.787   0.000  0.00  0.00    +0.240 A 
ATOM     33  C   LIG    1       -0.013   1.076   0.008  0.00  0.00    -0.040 A 
BRANCH  32  34
ATOM     34  N   LIG    1        2.399   1.108  -0.015  0.00  0.00    -0.870 N 
ATOM     35  H   LIG    1        3.232   1.606  -0.020  0.00  0.00    +0.410 HD
ATOM     36  H   LIG    1        2.414   0.138  -0.020  0.00  0.00    +0.400 HD
ENDBRANCH  32  34
ENDBRANCH  25  28
ENDBRANCH  22  23
ENDBRANCH   3  22
TORSDOF 8
