REMARK  Name = ZINCBI0000000gcn.0
REMARK                            x       y       z     vdW  Elec       q    Type
REMARK                         _______ _______ _______ _____ _____    ______ ____
ROOT
ATOM      1  C   LIG    1       -0.843   7.629   0.264  0.00  0.00    +0.190 A 
ATOM      2  C   LIG    1        0.316   8.134  -0.304  0.00  0.00    +0.020 A 
ATOM      3  C   LIG    1        0.464   9.497  -0.480  0.00  0.00    +0.050 A 
ATOM      4  C   LIG    1       -0.543  10.361  -0.091  0.00  0.00    +0.010 A 
ATOM      5  C   LIG    1       -1.702   9.867   0.478  0.00  0.00    +0.000 A 
ATOM      6  C   LIG    1       -1.861   8.501   0.653  0.00  0.00    +0.020 A 
ENDROOT
BRANCH   6   7
ATOM      7  N   LIG    1       -3.035   7.998   1.222  0.00  0.00    -0.490 N 
ATOM      8  C   LIG    1       -4.198   8.285   0.370  0.00  0.00    +0.220 C 
ATOM      9  C   LIG    1       -5.451   7.669   0.997  0.00  0.00    +0.270 C 
ATOM     10  N   LIG    1       -5.654   8.231   2.339  0.00  0.00    -0.390 N 
ATOM     11  C   LIG    1       -4.496   7.915   3.185  0.00  0.00    +0.280 C 
ATOM     12  H   LIG    1       -5.758   9.232   2.272  0.00  0.00    +0.420 HD
ATOM     13  C   LIG    1       -3.236   8.534   2.576  0.00  0.00    +0.230 C 
BRANCH  10  14
ATOM     14  C   LIG    1       -6.867   7.652   2.933  0.00  0.00    +0.260 C 
BRANCH  14  15
ATOM     15  C   LIG    1       -8.089   8.085   2.121  0.00  0.00    +0.100 C 
BRANCH  15  16
ATOM     16  C   LIG    1       -9.333   7.491   2.731  0.00  0.00    -0.060 A 
ATOM     17  C   LIG    1       -9.802   6.252   2.321  0.00  0.00    -0.030 A 
ATOM     18  C   LIG    1      -10.944   5.737   2.905  0.00  0.00    +0.270 A 
ATOM     19  N   LIG    1      -11.589   6.414   3.835  0.00  0.00    -0.470 NA
ATOM     20  C   LIG    1      -11.175   7.597   4.246  0.00  0.00    +0.270 A 
ATOM     21  C   LIG    1      -10.038   8.173   3.710  0.00  0.00    -0.030 A 
ENDBRANCH  15  16
ENDBRANCH  14  15
ENDBRANCH  10  14
ENDBRANCH   6   7
BRANCH   1  24
ATOM     22  O   LIG    1        0.354   5.806  -1.262  0.00  0.00    -0.500 OA
ATOM     23  C   LIG    1       -0.313   5.388  -0.339  0.00  0.00    +0.520 C 
ATOM     24  N   LIG    1       -0.995   6.248   0.443  0.00  0.00    -0.660 N 
ATOM     25  H   LIG    1       -1.591   5.910   1.130  0.00  0.00    +0.420 HD
BRANCH  23  26
ATOM     26  C   LIG    1       -0.378   3.907  -0.068  0.00  0.00    +0.000 C 
ATOM     27  C   LIG    1       -1.828   3.422  -0.191  0.00  0.00    +0.050 C 
ATOM     28  C   LIG    1       -1.893   1.963   0.264  0.00  0.00    +0.080 C 
ATOM     29  C   LIG    1       -0.806   1.169  -0.402  0.00  0.00    +0.510 C 
ATOM     30  N   LIG    1        0.257   1.722  -0.987  0.00  0.00    -0.600 N 
ATOM     31  O   LIG    1       -0.902  -0.040  -0.411  0.00  0.00    -0.540 OA
ATOM     32  C   LIG    1        0.477   3.159  -1.091  0.00  0.00    +0.300 C 
BRANCH  30  33
ATOM     33  C   LIG    1        1.266   0.830  -1.562  0.00  0.00    +0.340 C 
BRANCH  33  34
ATOM     34  C   LIG    1        0.920   0.540  -3.000  0.00  0.00    -0.110 A 
ATOM     35  C   LIG    1        0.124  -0.545  -3.314  0.00  0.00    +0.040 A 
ATOM     36  C   LIG    1       -0.197  -0.809  -4.633  0.00  0.00    +0.000 A 
ATOM     37  C   LIG    1        0.286   0.008  -5.638  0.00  0.00    +0.010 A 
ATOM     38  C   LIG    1        1.087   1.091  -5.324  0.00  0.00    +0.000 A 
ATOM     39  C   LIG    1        1.404   1.356  -4.005  0.00  0.00    +0.010 A 
ENDBRANCH  33  34
ENDBRANCH  30  33
ENDBRANCH  23  26
ENDBRANCH   1  24
TORSDOF 8
