REMARK  Name = ZINCtV00001bB3P9.0
REMARK                            x       y       z     vdW  Elec       q    Type
REMARK                         _______ _______ _______ _____ _____    ______ ____
ROOT
ATOM      1  N   LIG    1       -0.947   7.323   1.484  0.00  0.00    -0.520 NA
ATOM      2  C   LIG    1       -0.672   8.015   0.395  0.00  0.00    +0.360 A 
ATOM      3  S   LIG    1       -0.500   9.774   0.250  0.00  0.00    +0.010 S 
ATOM      4  C   LIG    1       -0.159   9.743  -1.489  0.00  0.00    -0.020 A 
ATOM      5  C   LIG    1       -0.189   8.451  -1.843  0.00  0.00    +0.180 A 
ATOM      6  N   LIG    1       -0.454   7.530  -0.865  0.00  0.00    -0.360 N 
ENDROOT
BRANCH   1  14
ATOM      7  C   LIG    1        1.326   7.744   3.138  0.00  0.00    +0.100 C 
ATOM      8  C   LIG    1       -0.056   8.203   3.527  0.00  0.00    -0.080 A 
ATOM      9  C   LIG    1       -0.255   8.859   4.723  0.00  0.00    +0.010 A 
ATOM     10  C   LIG    1       -1.524   9.276   5.085  0.00  0.00    +0.000 A 
ATOM     11  C   LIG    1       -2.601   9.044   4.247  0.00  0.00    +0.020 A 
ATOM     12  C   LIG    1       -2.416   8.393   3.045  0.00  0.00    -0.080 A 
ATOM     13  C   LIG    1       -3.590   8.141   2.135  0.00  0.00    +0.090 C 
ATOM     14  C   LIG    1       -1.138   7.969   2.674  0.00  0.00    +0.100 A 
ENDBRANCH   1  14
BRANCH   5  15
ATOM     15  C   LIG    1        0.055   8.035  -3.241  0.00  0.00    -0.030 A 
ATOM     16  C   LIG    1        0.929   6.983  -3.516  0.00  0.00    +0.060 A 
ATOM     17  C   LIG    1        1.149   6.596  -4.822  0.00  0.00    +0.030 A 
ATOM     18  C   LIG    1        0.513   7.255  -5.859  0.00  0.00    +0.040 A 
ATOM     19  C   LIG    1       -0.352   8.303  -5.593  0.00  0.00    -0.040 A 
ATOM     20 CL   LIG    1       -1.146   9.124  -6.901  0.00  0.00    -0.060 Cl
ATOM     21  C   LIG    1       -0.585   8.697  -4.290  0.00  0.00    +0.060 A 
ENDBRANCH   5  15
BRANCH   6  22
ATOM     22  N   LIG    1       -0.506   6.158  -1.143  0.00  0.00    -0.260 NA
ATOM     23  C   LIG    1       -0.841   5.330  -0.225  0.00  0.00    +0.280 C 
BRANCH  23  24
ATOM     24  C   LIG    1       -1.019   3.871  -0.555  0.00  0.00    +0.050 C 
ATOM     25  C   LIG    1       -2.446   3.437  -0.210  0.00  0.00    +0.070 C 
ATOM     26  C   LIG    1       -2.562   1.942  -0.285  0.00  0.00    -0.040 C 
ATOM     27  C   LIG    1       -1.550   1.135  -0.274  0.00  0.00    -0.050 C 
ATOM     28  C   LIG    1       -0.119   1.581  -0.204  0.00  0.00    +0.070 C 
ATOM     29  C   LIG    1       -0.042   3.031   0.277  0.00  0.00    +0.030 C 
ENDBRANCH  23  24
ENDBRANCH   6  22
TORSDOF 4
