REMARK  Name = ZINCrH000004jORg.0
REMARK                            x       y       z     vdW  Elec       q    Type
REMARK                         _______ _______ _______ _____ _____    ______ ____
ROOT
ATOM      1  C   LIG    1       -1.757  -4.142  -2.353  0.00  0.00    +0.190 C 
ATOM      2  N   LIG    1       -2.284  -4.118  -0.982  0.00  0.00    -0.520 NA
ENDROOT
BRANCH   2   3
ATOM      3  C   LIG    1       -2.534  -2.740  -0.539  0.00  0.00    +0.220 C 
BRANCH   3   4
ATOM      4  C   LIG    1       -1.225  -2.001  -0.433  0.00  0.00    +0.510 C 
ATOM      5  N   LIG    1       -1.209  -0.711  -0.041  0.00  0.00    -0.680 N 
ATOM      6  H   LIG    1       -2.029  -0.283   0.250  0.00  0.00    +0.410 HD
ATOM      7  O   LIG    1       -0.186  -2.566  -0.701  0.00  0.00    -0.480 OA
BRANCH   5   8
ATOM      8  C   LIG    1       -0.009   0.010  -0.054  0.00  0.00    +0.160 A 
ATOM      9  C   LIG    1        1.118  -0.502   0.576  0.00  0.00    -0.020 A 
ATOM     10  C   LIG    1        2.301   0.212   0.560  0.00  0.00    +0.040 A 
ATOM     11  C   LIG    1        2.364   1.435  -0.082  0.00  0.00    +0.050 A 
ATOM     12  C   LIG    1        1.244   1.948  -0.710  0.00  0.00    +0.050 A 
ATOM     13 CL   LIG    1        1.038  -2.034   1.389  0.00  0.00    -0.030 Cl
ATOM     14  C   LIG    1        0.058   1.239  -0.699  0.00  0.00    -0.040 A 
ATOM     15 CL   LIG    1       -1.347   1.884  -1.489  0.00  0.00    -0.050 Cl
ENDBRANCH   5   8
ENDBRANCH   3   4
ENDBRANCH   2   3
BRANCH   2  16
ATOM     16  C   LIG    1       -3.499  -4.936  -0.870  0.00  0.00    +0.210 C 
BRANCH  16  17
ATOM     17  C   LIG    1       -3.146  -6.407  -1.098  0.00  0.00    +0.070 C 
BRANCH  17  18
ATOM     18  C   LIG    1       -4.393  -7.246  -0.984  0.00  0.00    +0.520 C 
ATOM     19  N   LIG    1       -4.324  -8.582  -1.148  0.00  0.00    -0.680 N 
ATOM     20  H   LIG    1       -3.463  -9.011  -1.272  0.00  0.00    +0.420 HD
ATOM     21  O   LIG    1       -5.458  -6.719  -0.743  0.00  0.00    -0.520 OA
BRANCH  19  22
ATOM     22  C   LIG    1       -5.490  -9.347  -1.141  0.00  0.00    +0.170 A 
ATOM     23  C   LIG    1       -6.540  -9.004  -0.295  0.00  0.00    +0.030 A 
ATOM     24  C   LIG    1       -7.695  -9.754  -0.289  0.00  0.00    +0.090 A 
ATOM     25  C   LIG    1       -7.808 -10.868  -1.127  0.00  0.00    -0.050 A 
ATOM     26  C   LIG    1       -6.749 -11.213  -1.971  0.00  0.00    +0.090 A 
ATOM     27  C   LIG    1       -5.599 -10.455  -1.976  0.00  0.00    -0.010 A 
BRANCH  25  28
ATOM     28  C   LIG    1       -9.004 -11.654  -1.118  0.00  0.00    +0.250 C 
ATOM     29  N   LIG    1       -9.954 -12.277  -1.112  0.00  0.00    -0.420 NA
ENDBRANCH  25  28
ENDBRANCH  19  22
ENDBRANCH  17  18
ENDBRANCH  16  17
ENDBRANCH   2  16
TORSDOF 8
