REMARK  Name = ZINCrg00000O6rJa.0
REMARK                            x       y       z     vdW  Elec       q    Type
REMARK                         _______ _______ _______ _____ _____    ______ ____
ROOT
ATOM      1  O   LIG    1        0.211  -3.055   8.222  0.00  0.00    -0.520 OA
ATOM      2  C   LIG    1       -0.648  -3.855   7.918  0.00  0.00    +0.520 C 
ATOM      3  N   LIG    1       -1.233  -3.787   6.705  0.00  0.00    -0.610 N 
ATOM      4  C   LIG    1       -2.276  -4.748   6.322  0.00  0.00    +0.270 C 
ATOM      5  C   LIG    1       -3.515  -3.974   5.860  0.00  0.00    +0.030 C 
ATOM      6  C   LIG    1       -3.117  -3.001   4.747  0.00  0.00    +0.020 C 
ATOM      7  C   LIG    1       -2.094  -1.998   5.285  0.00  0.00    +0.260 C 
ATOM      8  C   LIG    1       -0.839  -2.750   5.742  0.00  0.00    +0.280 C 
ENDROOT
BRANCH   7   9
ATOM      9  N   LIG    1       -1.737  -1.049   4.228  0.00  0.00    -0.420 N 
ATOM     10  N   LIG    1       -1.167  -1.516   3.040  0.00  0.00    -0.190 NA
ATOM     11  C   LIG    1       -0.840  -0.693   2.083  0.00  0.00    +0.240 A 
ATOM     12  C   LIG    1       -1.058   0.694   2.228  0.00  0.00    +0.240 A 
ATOM     13  C   LIG    1       -1.616   1.174   3.398  0.00  0.00    -0.160 A 
ATOM     14  C   LIG    1       -1.962   0.268   4.409  0.00  0.00    +0.530 A 
ATOM     15  O   LIG    1       -2.461   0.668   5.450  0.00  0.00    -0.550 OA
BRANCH  12  16
ATOM     16  N   LIG    1       -0.712   1.565   1.211  0.00  0.00    -0.600 N 
ATOM     17  C   LIG    1        0.007   1.090   0.018  0.00  0.00    +0.270 C 
ATOM     18  C   LIG    1       -0.737   1.587  -1.226  0.00  0.00    +0.220 C 
ATOM     19  O   LIG    1       -0.933   2.999  -1.124  0.00  0.00    -0.380 OA
ATOM     20  C   LIG    1       -1.745   3.399  -0.018  0.00  0.00    +0.220 C 
ATOM     21  C   LIG    1       -1.052   2.995   1.289  0.00  0.00    +0.260 C 
ENDBRANCH  12  16
ENDBRANCH   7   9
BRANCH   2  22
ATOM     22  C   LIG    1       -1.063  -4.924   8.895  0.00  0.00    +0.130 C 
BRANCH  22  23
ATOM     23  C   LIG    1       -0.264  -4.781  10.165  0.00  0.00    -0.170 A 
ATOM     24  C   LIG    1        0.914  -5.370  10.441  0.00  0.00    +0.180 A 
ATOM     25  O   LIG    1        1.300  -4.989  11.670  0.00  0.00    -0.180 OA
ATOM     26  C   LIG    1        0.378  -4.166  12.195  0.00  0.00    +0.160 A 
ATOM     27  C   LIG    1       -0.611  -4.008  11.297  0.00  0.00    -0.050 A 
ENDBRANCH  22  23
ENDBRANCH   2  22
TORSDOF 4
