REMARK  Name = ZINCvU0000000IvY.0
REMARK                            x       y       z     vdW  Elec       q    Type
REMARK                         _______ _______ _______ _____ _____    ______ ____
ROOT
ATOM      1  N   LIG    1        0.994  -0.484   0.967  0.00  0.00    -0.700 N 
ATOM      2  H   LIG    1        1.892  -0.701   0.672  0.00  0.00    +0.410 HD
ATOM      3  C   LIG    1        0.659  -0.625   2.265  0.00  0.00    +0.570 C 
ATOM      4  O   LIG    1       -0.467  -0.353   2.635  0.00  0.00    -0.530 OA
ENDROOT
BRANCH   3   5
ATOM      5  C   LIG    1        1.660  -1.109   3.239  0.00  0.00    -0.120 A 
ATOM      6  C   LIG    1        2.952  -1.428   2.817  0.00  0.00    +0.050 A 
ATOM      7  C   LIG    1        3.882  -1.875   3.731  0.00  0.00    +0.020 A 
ATOM      8  C   LIG    1        3.535  -2.018   5.063  0.00  0.00    -0.050 A 
ATOM      9  C   LIG    1        2.255  -1.709   5.487  0.00  0.00    +0.020 A 
ATOM     10  C   LIG    1        1.316  -1.256   4.584  0.00  0.00    +0.080 A 
BRANCH   8  11
ATOM     11  C   LIG    1        4.555  -2.514   6.055  0.00  0.00    +0.120 C 
BRANCH  11  12
ATOM     12  S   LIG    1        4.475  -4.324   6.152  0.00  0.00    -0.090 S 
BRANCH  12  13
ATOM     13  C   LIG    1        5.717  -4.712   7.340  0.00  0.00    -0.090 A 
ATOM     14  C   LIG    1        6.462  -3.696   7.927  0.00  0.00    +0.010 A 
ATOM     15  C   LIG    1        7.431  -4.003   8.861  0.00  0.00    +0.050 A 
ATOM     16  C   LIG    1        7.668  -5.322   9.205  0.00  0.00    -0.040 A 
ATOM     17  C   LIG    1        6.932  -6.337   8.620  0.00  0.00    +0.050 A 
ATOM     18 CL   LIG    1        8.893  -5.705  10.375  0.00  0.00    -0.070 Cl
ATOM     19  C   LIG    1        5.957  -6.036   7.689  0.00  0.00    +0.050 A 
ENDBRANCH  12  13
ENDBRANCH  11  12
ENDBRANCH   8  11
ENDBRANCH   3   5
BRANCH   1  20
ATOM     20  C   LIG    1        0.002  -0.004   0.002  0.00  0.00    +0.390 C 
BRANCH  20  26
ATOM     21  C   LIG    1       -2.514   1.804   0.022  0.00  0.00    +0.320 C 
ATOM     22  N   LIG    1       -1.126   2.275   0.019  0.00  0.00    -0.450 N 
ATOM     23  C   LIG    1       -0.711   3.579   0.028  0.00  0.00    +0.130 A 
ATOM     24  C   LIG    1        0.636   3.559   0.015  0.00  0.00    +0.140 A 
ATOM     25  N   LIG    1        1.032   2.278   0.004  0.00  0.00    -0.470 NA
ATOM     26  C   LIG    1       -0.018   1.503   0.010  0.00  0.00    +0.190 A 
ENDBRANCH  20  26
BRANCH  20  27
ATOM     27  C   LIG    1        0.364  -0.494  -1.376  0.00  0.00    -0.100 A 
ATOM     28  C   LIG    1        1.686  -0.503  -1.782  0.00  0.00    +0.040 A 
ATOM     29  C   LIG    1        2.018  -0.956  -3.045  0.00  0.00    +0.010 A 
ATOM     30  C   LIG    1        1.028  -1.392  -3.905  0.00  0.00    +0.020 A 
ATOM     31  C   LIG    1       -0.294  -1.379  -3.502  0.00  0.00    +0.010 A 
ATOM     32  C   LIG    1       -0.626  -0.929  -2.237  0.00  0.00    +0.020 A 
ENDBRANCH  20  27
ENDBRANCH   1  20
TORSDOF 7
