REMARK  Name = ZINCpe000000XYW6.1
REMARK                            x       y       z     vdW  Elec       q    Type
REMARK                         _______ _______ _______ _____ _____    ______ ____
ROOT
ATOM      1  N   LIG    1       -0.025   1.330   0.034  0.00  0.00    -0.740 N 
ATOM      2  H   LIG    1        0.805   1.830   0.016  0.00  0.00    +0.390 HD
ATOM      3  C   LIG    1       -0.000  -0.018   0.029  0.00  0.00    +0.710 C 
ATOM      4  N   LIG    1        1.172  -0.669  -0.100  0.00  0.00    -0.630 N 
ATOM      5  C   LIG    1        2.446   0.066  -0.126  0.00  0.00    +0.290 C 
ATOM      6  C   LIG    1        3.391  -0.572   0.906  0.00  0.00    +0.200 C 
ATOM      7  N   LIG    1        3.500  -2.012   0.637  0.00  0.00    -0.490 N 
ATOM      8  C   LIG    1        2.205  -2.684   0.804  0.00  0.00    +0.200 C 
ATOM      9  C   LIG    1        1.212  -2.134  -0.225  0.00  0.00    +0.250 C 
ATOM     10  C   LIG    1       -0.180  -2.711   0.044  0.00  0.00    +0.060 C 
ATOM     11  O   LIG    1       -1.036  -0.645   0.142  0.00  0.00    -0.580 OA
ENDROOT
BRANCH   7  12
ATOM     12  C   LIG    1        4.468  -2.593   1.438  0.00  0.00    +0.300 A 
ATOM     13  N   LIG    1        4.364  -2.534   2.760  0.00  0.00    -0.460 NA
ATOM     14  C   LIG    1        5.289  -3.090   3.522  0.00  0.00    +0.280 A 
ATOM     15  C   LIG    1        6.372  -3.738   2.948  0.00  0.00    +0.250 A 
ATOM     16  N   LIG    1        6.489  -3.806   1.636  0.00  0.00    -0.400 NA
ATOM     17  C   LIG    1        5.563  -3.255   0.856  0.00  0.00    +0.170 A 
BRANCH  17  18
ATOM     18  C   LIG    1        5.683  -3.332  -0.569  0.00  0.00    +0.270 C 
ATOM     19  N   LIG    1        5.778  -3.393  -1.699  0.00  0.00    -0.370 NA
ENDBRANCH  17  18
ENDBRANCH   7  12
BRANCH   1  20
ATOM     20  C   LIG    1       -1.307   2.039   0.060  0.00  0.00    +0.370 C 
BRANCH  20  23
ATOM     21  C   LIG    1       -0.607   3.789  -2.436  0.00  0.00    +0.150 C 
ATOM     22  C   LIG    1       -0.756   4.282  -1.020  0.00  0.00    +0.110 A 
ATOM     23  C   LIG    1       -1.059   3.525   0.060  0.00  0.00    -0.270 A 
ATOM     24  C   LIG    1       -1.096   4.366   1.178  0.00  0.00    +0.260 A 
ATOM     25  N   LIG    1       -0.830   5.584   0.781  0.00  0.00    -0.290 NA
ATOM     26  N   LIG    1       -0.615   5.557  -0.603  0.00  0.00    -0.470 N 
ATOM     27  H   LIG    1       -0.399   6.320  -1.161  0.00  0.00    +0.440 HD
ENDBRANCH  20  23
ENDBRANCH   1  20
TORSDOF 4
