REMARK  Name = ZINCpe000000XYW6.0
REMARK                            x       y       z     vdW  Elec       q    Type
REMARK                         _______ _______ _______ _____ _____    ______ ____
ROOT
ATOM      1  N   LIG    1       -0.025   1.330   0.034  0.00  0.00    -0.740 N 
ATOM      2  H   LIG    1        0.805   1.830   0.016  0.00  0.00    +0.390 HD
ATOM      3  C   LIG    1       -0.000  -0.018   0.029  0.00  0.00    +0.710 C 
ATOM      4  N   LIG    1        1.172  -0.669  -0.100  0.00  0.00    -0.630 N 
ATOM      5  C   LIG    1        2.446   0.066  -0.126  0.00  0.00    +0.290 C 
ATOM      6  C   LIG    1        3.391  -0.572   0.906  0.00  0.00    +0.200 C 
ATOM      7  N   LIG    1        3.500  -2.012   0.637  0.00  0.00    -0.490 N 
ATOM      8  C   LIG    1        2.205  -2.684   0.804  0.00  0.00    +0.200 C 
ATOM      9  C   LIG    1        1.212  -2.134  -0.225  0.00  0.00    +0.250 C 
ATOM     10  C   LIG    1       -0.180  -2.711   0.044  0.00  0.00    +0.060 C 
ATOM     11  O   LIG    1       -1.036  -0.645   0.142  0.00  0.00    -0.580 OA
ENDROOT
BRANCH   7  12
ATOM     12  C   LIG    1        4.468  -2.593   1.438  0.00  0.00    +0.300 A 
ATOM     13  N   LIG    1        4.364  -2.534   2.760  0.00  0.00    -0.460 NA
ATOM     14  C   LIG    1        5.289  -3.090   3.522  0.00  0.00    +0.270 A 
ATOM     15  C   LIG    1        6.372  -3.738   2.948  0.00  0.00    +0.250 A 
ATOM     16  N   LIG    1        6.489  -3.806   1.636  0.00  0.00    -0.400 NA
ATOM     17  C   LIG    1        5.563  -3.255   0.856  0.00  0.00    +0.180 A 
BRANCH  17  18
ATOM     18  C   LIG    1        5.683  -3.332  -0.569  0.00  0.00    +0.270 C 
ATOM     19  N   LIG    1        5.778  -3.393  -1.699  0.00  0.00    -0.370 NA
ENDBRANCH  17  18
ENDBRANCH   7  12
BRANCH   1  20
ATOM     20  C   LIG    1       -1.307   2.039   0.060  0.00  0.00    +0.360 C 
BRANCH  20  27
ATOM     21  C   LIG    1       -0.597   3.808  -2.471  0.00  0.00    +0.160 C 
ATOM     22  C   LIG    1       -0.746   4.307  -1.056  0.00  0.00    +0.090 A 
ATOM     23  N   LIG    1       -0.608   5.547  -0.661  0.00  0.00    -0.290 NA
ATOM     24  N   LIG    1       -0.820   5.591   0.723  0.00  0.00    -0.470 N 
ATOM     25  H   LIG    1       -0.776   6.383   1.281  0.00  0.00    +0.440 HD
ATOM     26  C   LIG    1       -1.095   4.338   1.141  0.00  0.00    +0.270 A 
ATOM     27  C   LIG    1       -1.059   3.525   0.060  0.00  0.00    -0.260 A 
ENDBRANCH  20  27
ENDBRANCH   1  20
TORSDOF 4
