REMARK  Name = ZINCc70000002wUK.0
REMARK                            x       y       z     vdW  Elec       q    Type
REMARK                         _______ _______ _______ _____ _____    ______ ____
ROOT
ATOM      1  C   LIG    1        0.084   1.140   2.386  0.00  0.00    +0.190 C 
ENDROOT
BRANCH   1   3
ATOM      2  C   LIG    1       -1.413   2.976   1.887  0.00  0.00    +0.200 C 
ATOM      3  N   LIG    1       -0.784   1.753   1.372  0.00  0.00    -0.670 NA
ATOM      4  H   LIG    1       -1.480   1.098   1.047  0.00  0.00    +0.360 HD
ENDBRANCH   1   3
BRANCH   1   5
ATOM      5  C   LIG    1        1.449   1.776   2.330  0.00  0.00    +0.460 C 
ATOM      6  O   LIG    1        1.841   2.276   1.302  0.00  0.00    -0.480 OA
BRANCH   5   7
ATOM      7  O   LIG    1        2.229   1.788   3.422  0.00  0.00    -0.360 OA
ATOM      8  C   LIG    1        3.531   2.419   3.296  0.00  0.00    +0.260 C 
ENDBRANCH   5   7
ENDBRANCH   1   5
BRANCH   1   9
ATOM      9  C   LIG    1        0.209  -0.360   2.110  0.00  0.00    +0.210 C 
BRANCH   9  10
ATOM     10  O   LIG    1       -1.066  -0.983   2.277  0.00  0.00    -0.380 OA
BRANCH  10  11
ATOM     11  C   LIG    1       -1.059  -2.393   2.042  0.00  0.00    +0.140 C 
ATOM     12  C   LIG    1       -2.427  -2.828   1.513  0.00  0.00    +0.040 C 
ATOM     13  C   LIG    1       -0.761  -3.127   3.351  0.00  0.00    +0.020 C 
ENDBRANCH  10  11
ENDBRANCH   9  10
ENDBRANCH   1   9
TORSDOF 6
