REMARK  Name = ZINCrD000000Cf7K.0
REMARK                            x       y       z     vdW  Elec       q    Type
REMARK                         _______ _______ _______ _____ _____    ______ ____
ROOT
ATOM      1  O   LIG    1       -4.885   5.058   0.166  0.00  0.00    -0.460 OA
ATOM      2  C   LIG    1       -4.668   4.350  -0.796  0.00  0.00    +0.510 C 
ATOM      3  N   LIG    1       -5.641   4.129  -1.702  0.00  0.00    -0.640 N 
ATOM      4  H   LIG    1       -5.468   3.563  -2.470  0.00  0.00    +0.420 HD
ENDROOT
BRANCH   2   5
ATOM      5  C   LIG    1       -3.312   3.719  -0.977  0.00  0.00    -0.010 C 
ATOM      6  C   LIG    1       -2.399   4.128   0.182  0.00  0.00    +0.070 C 
ATOM      7  C   LIG    1       -1.043   3.436   0.026  0.00  0.00    +0.230 C 
ATOM      8  N   LIG    1       -1.233   1.980   0.019  0.00  0.00    -0.460 N 
ATOM      9  C   LIG    1       -2.068   1.559  -1.114  0.00  0.00    +0.220 C 
ATOM     10  C   LIG    1       -3.454   2.195  -0.991  0.00  0.00    +0.060 C 
BRANCH   8  11
ATOM     11  C   LIG    1       -0.016   1.321   0.009  0.00  0.00    +0.490 A 
ATOM     12  N   LIG    1        1.103   2.030   0.002  0.00  0.00    -0.550 NA
ATOM     13  C   LIG    1        2.283   1.431  -0.012  0.00  0.00    +0.340 A 
ATOM     14  C   LIG    1        2.338   0.046  -0.020  0.00  0.00    -0.110 A 
ATOM     15  C   LIG    1        1.148  -0.665  -0.013  0.00  0.00    +0.350 A 
ATOM     16  N   LIG    1        0.002  -0.004   0.002  0.00  0.00    -0.530 NA
ENDBRANCH   8  11
ENDBRANCH   2   5
BRANCH   3  17
ATOM     17  C   LIG    1       -6.892   4.711  -1.535  0.00  0.00    +0.270 A 
ATOM     18  N   LIG    1       -7.227   5.481  -0.547  0.00  0.00    -0.470 NA
ATOM     19  C   LIG    1       -8.461   5.948  -0.546  0.00  0.00    +0.250 A 
ATOM     20  C   LIG    1       -9.205   5.555  -1.582  0.00  0.00    -0.230 A 
ATOM     21  S   LIG    1       -8.211   4.521  -2.606  0.00  0.00    +0.120 S 
BRANCH  20  22
ATOM     22  C   LIG    1      -10.641   5.934  -1.835  0.00  0.00    +0.190 C 
BRANCH  22  23
ATOM     23  C   LIG    1      -10.691   7.195  -2.659  0.00  0.00    -0.080 A 
ATOM     24  C   LIG    1      -10.723   8.427  -2.034  0.00  0.00    +0.010 A 
ATOM     25  C   LIG    1      -10.764   9.584  -2.789  0.00  0.00    +0.000 A 
ATOM     26  C   LIG    1      -10.783   9.508  -4.169  0.00  0.00    +0.000 A 
ATOM     27  C   LIG    1      -10.755   8.275  -4.794  0.00  0.00    +0.000 A 
ATOM     28  C   LIG    1      -10.710   7.119  -4.039  0.00  0.00    +0.010 A 
ENDBRANCH  22  23
ENDBRANCH  20  22
ENDBRANCH   3  17
TORSDOF 5
