REMARK  Name = ZINCrD0000075KWE.0
REMARK                            x       y       z     vdW  Elec       q    Type
REMARK                         _______ _______ _______ _____ _____    ______ ____
ROOT
ATOM      1  O   LIG    1       -1.359  -0.912  -0.104  0.00  0.00    -0.570 OA
ATOM      2  C   LIG    1       -2.418  -0.314  -0.090  0.00  0.00    +0.710 C 
ATOM      3  N   LIG    1       -3.577  -0.995  -0.190  0.00  0.00    -0.630 N 
ATOM      4  C   LIG    1       -4.863  -0.286  -0.285  0.00  0.00    +0.290 C 
ATOM      5  C   LIG    1       -5.631  -0.843  -1.494  0.00  0.00    +0.190 C 
ATOM      6  N   LIG    1       -5.735  -2.303  -1.372  0.00  0.00    -0.490 N 
ATOM      7  C   LIG    1       -4.410  -2.936  -1.406  0.00  0.00    +0.190 C 
ATOM      8  C   LIG    1       -3.591  -2.465  -0.200  0.00  0.00    +0.320 C 
ATOM      9  N   LIG    1       -2.433   1.028   0.025  0.00  0.00    -0.680 N 
ATOM     10  H   LIG    1       -3.276   1.499   0.113  0.00  0.00    +0.410 HD
ENDROOT
BRANCH   6  11
ATOM     11  C   LIG    1       -6.568  -2.830  -2.361  0.00  0.00    +0.110 A 
ATOM     12  C   LIG    1       -6.095  -3.818  -3.215  0.00  0.00    -0.040 A 
ATOM     13  C   LIG    1       -6.923  -4.341  -4.190  0.00  0.00    +0.030 A 
ATOM     14  C   LIG    1       -8.217  -3.874  -4.322  0.00  0.00    -0.020 A 
ATOM     15  C   LIG    1       -8.690  -2.887  -3.477  0.00  0.00    +0.030 A 
ATOM     16  C   LIG    1       -7.869  -2.364  -2.497  0.00  0.00    -0.020 A 
ENDBRANCH   6  11
BRANCH   9  17
ATOM     17  C   LIG    1       -1.228   1.745   0.019  0.00  0.00    +0.090 A 
ATOM     18  C   LIG    1       -0.146   1.300  -0.737  0.00  0.00    +0.120 A 
ATOM     19  C   LIG    1        1.025   2.036  -0.709  0.00  0.00    -0.010 A 
ATOM     20  C   LIG    1        1.081   3.190   0.062  0.00  0.00    +0.300 A 
ATOM     21  N   LIG    1        0.032   3.587   0.763  0.00  0.00    -0.520 NA
ATOM     22  C   LIG    1       -1.100   2.910   0.760  0.00  0.00    +0.280 A 
BRANCH  20  23
ATOM     23  O   LIG    1        2.225   3.920   0.096  0.00  0.00    -0.290 OA
BRANCH  23  24
ATOM     24  C   LIG    1        2.221   5.096   0.906  0.00  0.00    +0.250 C 
BRANCH  24  25
ATOM     25  C   LIG    1        3.587   5.781   0.819  0.00  0.00    +0.460 C 
ATOM     26  F   LIG    1        4.577   4.905   1.275  0.00  0.00    -0.170 F 
ATOM     27  F   LIG    1        3.582   6.933   1.612  0.00  0.00    -0.170 F 
ATOM     28  F   LIG    1        3.849   6.131  -0.510  0.00  0.00    -0.170 F 
ENDBRANCH  24  25
ENDBRANCH  23  24
ENDBRANCH  20  23
ENDBRANCH   9  17
TORSDOF 5
