REMARK  Name = ZINCtV00000tRSeY.0
REMARK                            x       y       z     vdW  Elec       q    Type
REMARK                         _______ _______ _______ _____ _____    ______ ____
ROOT
ATOM      1  C   LIG    1        3.602   3.445  -0.113  0.00  0.00    +0.120 A 
ATOM      2  C   LIG    1        4.855   4.010  -0.387  0.00  0.00    -0.050 A 
ATOM      3  S   LIG    1        6.001   2.747  -0.149  0.00  0.00    +0.090 S 
ATOM      4  C   LIG    1        4.795   1.530   0.305  0.00  0.00    +0.360 A 
ATOM      5  N   LIG    1        5.016   0.272   0.635  0.00  0.00    -0.500 NA
ATOM      6  N   LIG    1        3.588   2.166   0.239  0.00  0.00    -0.430 N 
ENDROOT
BRANCH   5   7
ATOM      7  C   LIG    1        6.272  -0.206   0.653  0.00  0.00    +0.130 A 
ATOM      8  C   LIG    1        7.154   0.076  -0.409  0.00  0.00    -0.030 A 
ATOM      9  C   LIG    1        8.429  -0.411  -0.379  0.00  0.00    +0.060 A 
ATOM     10  C   LIG    1        8.854  -1.192   0.688  0.00  0.00    -0.050 A 
ATOM     11  C   LIG    1        7.991  -1.482   1.738  0.00  0.00    +0.050 A 
ATOM     12 CL   LIG    1       10.476  -1.811   0.710  0.00  0.00    -0.070 Cl
ATOM     13  C   LIG    1        6.714  -1.000   1.730  0.00  0.00    +0.040 A 
ENDBRANCH   5   7
BRANCH   6  14
ATOM     14  C   LIG    1        2.398   1.503   0.535  0.00  0.00    +0.110 A 
ATOM     15  C   LIG    1        1.671   1.847   1.671  0.00  0.00    +0.050 A 
ATOM     16  C   LIG    1        0.493   1.189   1.960  0.00  0.00    +0.040 A 
ATOM     17  C   LIG    1        0.034   0.187   1.121  0.00  0.00    -0.020 A 
ATOM     18  C   LIG    1        0.754  -0.158  -0.009  0.00  0.00    +0.050 A 
ATOM     19 CL   LIG    1       -1.448  -0.638   1.489  0.00  0.00    -0.050 Cl
ATOM     20  C   LIG    1        1.933   0.496  -0.305  0.00  0.00    +0.060 A 
ENDBRANCH   6  14
BRANCH   1  24
ATOM     21  C   LIG    1        0.029   5.713  -0.399  0.00  0.00    +0.010 A 
ATOM     22  C   LIG    1        1.115   6.222   0.295  0.00  0.00    +0.110 A 
ATOM     23  C   LIG    1        2.279   5.493   0.394  0.00  0.00    +0.070 A 
ATOM     24  C   LIG    1        2.364   4.231  -0.212  0.00  0.00    +0.020 A 
ATOM     25  C   LIG    1        1.262   3.726  -0.917  0.00  0.00    +0.050 A 
ATOM     26  C   LIG    1        0.104   4.467  -1.000  0.00  0.00    +0.120 A 
BRANCH  21  28
ATOM     27  O   LIG    1       -1.293   7.689   0.071  0.00  0.00    -0.160 OA
ATOM     28  N   LIG    1       -1.218   6.505  -0.499  0.00  0.00    -0.030 N 
ATOM     29  O   LIG    1       -2.252   6.024  -1.158  0.00  0.00    -0.160 OA
ENDBRANCH  21  28
ENDBRANCH   1  24
TORSDOF 4
