REMARK  Name = ZINCpe00000c9xrq.0
REMARK                            x       y       z     vdW  Elec       q    Type
REMARK                         _______ _______ _______ _____ _____    ______ ____
ROOT
ATOM      1  O   LIG    1        1.466   2.903  -0.873  0.00  0.00    -0.520 OA
ATOM      2  C   LIG    1        2.414   3.658  -0.817  0.00  0.00    +0.530 C 
ATOM      3  N   LIG    1        3.668   3.170  -0.892  0.00  0.00    -0.620 N 
ATOM      4  C   LIG    1        4.906   3.956  -0.737  0.00  0.00    +0.270 C 
ATOM      5  C   LIG    1        5.987   3.147  -1.496  0.00  0.00    +0.040 C 
ATOM      6  C   LIG    1        5.570   1.688  -1.171  0.00  0.00    +0.040 C 
ATOM      7  C   LIG    1        4.029   1.768  -1.144  0.00  0.00    +0.230 C 
ENDROOT
BRANCH   7   8
ATOM      8  C   LIG    1        3.482   0.881  -0.024  0.00  0.00    +0.330 C 
BRANCH   8   9
ATOM      9  N   LIG    1        3.804  -0.520  -0.308  0.00  0.00    -0.290 N 
ATOM     10  C   LIG    1        4.472  -1.363   0.513  0.00  0.00    +0.170 A 
ATOM     11  C   LIG    1        4.546  -2.546  -0.140  0.00  0.00    -0.030 A 
ATOM     12  N   LIG    1        3.927  -2.372  -1.313  0.00  0.00    -0.260 NA
ATOM     13  N   LIG    1        3.498  -1.161  -1.382  0.00  0.00    -0.080 NA
BRANCH  11  14
ATOM     14  C   LIG    1        5.197  -3.811   0.356  0.00  0.00    +0.310 C 
BRANCH  14  15
ATOM     15  O   LIG    1        5.747  -3.585   1.656  0.00  0.00    -0.570 OA
ATOM     16  H   LIG    1        6.183  -4.359   2.038  0.00  0.00    +0.390 HD
ENDBRANCH  14  15
ENDBRANCH  11  14
ENDBRANCH   8   9
ENDBRANCH   7   8
BRANCH   2  17
ATOM     17  C   LIG    1        2.189   5.140  -0.663  0.00  0.00    +0.110 C 
BRANCH  17  18
ATOM     18  C   LIG    1        0.710   5.420  -0.604  0.00  0.00    -0.110 A 
ATOM     19  C   LIG    1        0.038   5.667  -1.756  0.00  0.00    +0.100 A 
ATOM     20  C   LIG    1       -1.349   5.925  -1.711  0.00  0.00    -0.210 A 
ATOM     21  C   LIG    1       -2.320   6.204  -2.656  0.00  0.00    +0.280 A 
ATOM     22  N   LIG    1       -3.484   6.367  -2.014  0.00  0.00    -0.420 N 
ATOM     23  H   LIG    1       -4.331   6.572  -2.440  0.00  0.00    +0.440 HD
ATOM     24  N   LIG    1       -3.298   6.199  -0.637  0.00  0.00    -0.310 NA
ATOM     25  C   LIG    1       -2.026   5.930  -0.405  0.00  0.00    +0.110 A 
ATOM     26  C   LIG    1       -1.261   5.671   0.752  0.00  0.00    +0.030 A 
ATOM     27  C   LIG    1        0.068   5.425   0.636  0.00  0.00    +0.060 A 
ENDBRANCH  17  18
ENDBRANCH   2  17
TORSDOF 6
