REMARK  Name = ZINCrH000004rniM.0
REMARK                            x       y       z     vdW  Elec       q    Type
REMARK                         _______ _______ _______ _____ _____    ______ ____
ROOT
ATOM      1  N   LIG    1       -0.335   1.879   3.590  0.00  0.00    -0.680 N 
ATOM      2  H   LIG    1       -1.151   2.390   3.478  0.00  0.00    +0.410 HD
ATOM      3  C   LIG    1        0.430   1.588   2.519  0.00  0.00    +0.700 C 
ATOM      4  N   LIG    1        0.111   2.085   1.308  0.00  0.00    -0.740 N 
ATOM      5  H   LIG    1       -0.670   2.652   1.207  0.00  0.00    +0.400 HD
ATOM      6  O   LIG    1        1.409   0.878   2.646  0.00  0.00    -0.570 OA
ENDROOT
BRANCH   1  13
ATOM      7  C   LIG    1       -0.959   3.531   5.819  0.00  0.00    +0.090 C 
ATOM      8  C   LIG    1       -0.237   2.218   5.980  0.00  0.00    -0.130 A 
ATOM      9  C   LIG    1        0.136   1.785   7.237  0.00  0.00    +0.050 A 
ATOM     10  C   LIG    1        0.804   0.585   7.388  0.00  0.00    +0.010 A 
ATOM     11  C   LIG    1        1.097  -0.193   6.276  0.00  0.00    +0.150 A 
ATOM     12  C   LIG    1        0.719   0.236   5.011  0.00  0.00    +0.010 A 
ATOM     13  C   LIG    1        0.049   1.442   4.863  0.00  0.00    +0.180 A 
BRANCH  11  14
ATOM     14  N   LIG    1        1.773  -1.409   6.429  0.00  0.00    -0.670 N 
ATOM     15  H   LIG    1        1.550  -2.162   5.860  0.00  0.00    +0.410 HD
ATOM     16  C   LIG    1        2.732  -1.532   7.367  0.00  0.00    +0.540 C 
ATOM     17  O   LIG    1        2.953  -0.618   8.133  0.00  0.00    -0.520 OA
BRANCH  16  18
ATOM     18  C   LIG    1        3.531  -2.807   7.465  0.00  0.00    -0.070 C 
ATOM     19  C   LIG    1        3.310  -3.686   8.697  0.00  0.00    +0.060 C 
ATOM     20  C   LIG    1        4.606  -2.885   8.551  0.00  0.00    +0.080 C 
ENDBRANCH  16  18
ENDBRANCH  11  14
ENDBRANCH   1  13
BRANCH   4  21
ATOM     21  C   LIG    1        0.943   1.769   0.144  0.00  0.00    +0.330 C 
BRANCH  21  22
ATOM     22  C   LIG    1        0.373   2.443  -1.078  0.00  0.00    -0.170 A 
ATOM     23  C   LIG    1       -0.557   1.782  -1.859  0.00  0.00    +0.070 A 
ATOM     24  C   LIG    1       -1.085   2.398  -2.977  0.00  0.00    -0.070 A 
ATOM     25  C   LIG    1       -0.673   3.679  -3.321  0.00  0.00    +0.230 A 
ATOM     26  C   LIG    1        0.266   4.338  -2.537  0.00  0.00    -0.080 A 
ATOM     27  C   LIG    1        0.786   3.718  -1.418  0.00  0.00    +0.070 A 
BRANCH  25  28
ATOM     28  N   LIG    1       -1.200   4.303  -4.454  0.00  0.00    -0.640 N 
ATOM     29  C   LIG    1       -2.095   3.564  -5.348  0.00  0.00    +0.280 C 
ATOM     30  C   LIG    1       -0.859   5.697  -4.748  0.00  0.00    +0.280 C 
ENDBRANCH  25  28
ENDBRANCH  21  22
ENDBRANCH   4  21
TORSDOF 6
