REMARK  Name = ZINCtV00001bB3tn.0
REMARK                            x       y       z     vdW  Elec       q    Type
REMARK                         _______ _______ _______ _____ _____    ______ ____
ROOT
ATOM      1  C   LIG    1        2.199   4.491   0.410  0.00  0.00    -0.060 A 
ATOM      2  C   LIG    1        2.404   3.256  -0.222  0.00  0.00    +0.090 A 
ATOM      3  C   LIG    1        3.669   2.754  -0.340  0.00  0.00    -0.010 A 
ATOM      4  C   LIG    1        4.752   3.461   0.176  0.00  0.00    +0.170 A 
ATOM      5  C   LIG    1        4.553   4.685   0.810  0.00  0.00    -0.010 A 
ATOM      6  C   LIG    1        3.292   5.198   0.928  0.00  0.00    +0.050 A 
ENDROOT
BRANCH   1   8
ATOM      7  C   LIG    1       -0.011   4.988  -0.526  0.00  0.00    -0.040 C 
ATOM      8  C   LIG    1        0.844   5.037   0.535  0.00  0.00    +0.170 C 
BRANCH   7   9
ATOM      9  C   LIG    1        0.498   4.634  -1.870  0.00  0.00    +0.170 A 
ATOM     10  C   LIG    1       -0.402   4.374  -2.904  0.00  0.00    -0.030 A 
ATOM     11  C   LIG    1        0.089   4.050  -4.156  0.00  0.00    +0.070 A 
ATOM     12  C   LIG    1        1.464   3.985  -4.333  0.00  0.00    -0.030 A 
ATOM     13  C   LIG    1        2.299   4.255  -3.264  0.00  0.00    +0.270 A 
ATOM     14  N   LIG    1        1.807   4.566  -2.083  0.00  0.00    -0.450 NA
ENDBRANCH   7   9
BRANCH   7  16
ATOM     15  N   LIG    1       -2.503   5.509  -0.192  0.00  0.00    -0.410 NA
ATOM     16  C   LIG    1       -1.400   5.279  -0.340  0.00  0.00    +0.250 C 
ENDBRANCH   7  16
ENDBRANCH   1   8
BRANCH   4  17
ATOM     17  N   LIG    1        6.039   2.943   0.058  0.00  0.00    -0.540 N 
BRANCH  17  18
ATOM     18  C   LIG    1        6.960   3.546  -0.805  0.00  0.00    +0.200 A 
ATOM     19  C   LIG    1        6.557   4.580  -1.640  0.00  0.00    -0.040 A 
ATOM     20  C   LIG    1        7.469   5.177  -2.487  0.00  0.00    +0.040 A 
ATOM     21  C   LIG    1        8.781   4.738  -2.513  0.00  0.00    -0.050 A 
ATOM     22  C   LIG    1        9.184   3.705  -1.687  0.00  0.00    +0.040 A 
ATOM     23  C   LIG    1        8.278   3.108  -0.833  0.00  0.00    -0.060 A 
ENDBRANCH  17  18
BRANCH  17  24
ATOM     24  C   LIG    1        6.411   1.819   0.802  0.00  0.00    +0.150 A 
ATOM     25  C   LIG    1        6.614   0.600   0.168  0.00  0.00    +0.000 A 
ATOM     26  C   LIG    1        6.986  -0.507   0.905  0.00  0.00    +0.020 A 
ATOM     27  C   LIG    1        7.146  -0.405   2.275  0.00  0.00    +0.010 A 
ATOM     28  C   LIG    1        6.940   0.806   2.910  0.00  0.00    +0.020 A 
ATOM     29  C   LIG    1        6.573   1.918   2.178  0.00  0.00    +0.000 A 
ENDBRANCH  17  24
ENDBRANCH   4  17
TORSDOF 6
