REMARK  Name = ZINCpk000005evgp.0
REMARK                            x       y       z     vdW  Elec       q    Type
REMARK                         _______ _______ _______ _____ _____    ______ ____
ROOT
ATOM      1  N   LIG    1       -1.841   2.495   1.632  0.00  0.00    -1.060 N 
ATOM      2  H   LIG    1       -2.200   1.699   2.056  0.00  0.00    +0.430 HD
ENDROOT
BRANCH   1   6
ATOM      3  C   LIG    1        0.594   5.088   3.795  0.00  0.00    -0.060 A 
ATOM      4  C   LIG    1       -0.771   5.078   4.016  0.00  0.00    +0.030 A 
ATOM      5  C   LIG    1       -1.581   4.220   3.300  0.00  0.00    +0.020 A 
ATOM      6  C   LIG    1       -1.024   3.365   2.358  0.00  0.00    +0.110 A 
ATOM      7  C   LIG    1        0.348   3.373   2.142  0.00  0.00    +0.040 A 
ATOM      8  C   LIG    1        1.152   4.238   2.858  0.00  0.00    +0.030 A 
BRANCH   3   9
ATOM      9  C   LIG    1        1.476   6.027   4.578  0.00  0.00    +0.110 C 
BRANCH   9  13
ATOM     10  C   LIG    1        3.193   5.338   7.929  0.00  0.00    +0.290 C 
ATOM     11  N   LIG    1        2.743   5.999   6.702  0.00  0.00    -0.740 N 
ATOM     12  H   LIG    1        3.024   6.908   6.510  0.00  0.00    +0.400 HD
ATOM     13  C   LIG    1        1.939   5.346   5.840  0.00  0.00    +0.510 C 
ATOM     14  O   LIG    1        1.587   4.211   6.081  0.00  0.00    -0.530 OA
ENDBRANCH   9  13
ENDBRANCH   3   9
ENDBRANCH   1   6
BRANCH   1  15
ATOM     15  S   LIG    1       -2.199   2.821   0.049  0.00  0.00    +2.690 S 
ATOM     16  O   LIG    1       -0.959   3.068  -0.600  0.00  0.00    -0.940 OA
ATOM     17  O   LIG    1       -3.109   1.815  -0.373  0.00  0.00    -0.940 OA
BRANCH  15  18
ATOM     18  C   LIG    1       -3.088   4.342   0.017  0.00  0.00    -0.690 A 
ATOM     19  C   LIG    1       -4.455   4.347   0.220  0.00  0.00    +0.190 A 
ATOM     20  C   LIG    1       -5.155   5.539   0.188  0.00  0.00    +0.000 A 
ATOM     21  C   LIG    1       -4.486   6.727  -0.043  0.00  0.00    +0.190 A 
ATOM     22  C   LIG    1       -3.118   6.721  -0.245  0.00  0.00    -0.700 A 
ATOM     23  C   LIG    1       -2.419   5.529  -0.215  0.00  0.00    +0.230 A 
BRANCH  22  24
ATOM     24  S   LIG    1       -2.265   8.235  -0.540  0.00  0.00    +2.670 S 
ATOM     25  F   LIG    1       -0.729   8.007  -0.117  0.00  0.00    -0.460 F 
ATOM     26  O   LIG    1       -2.798   9.181   0.377  0.00  0.00    -0.920 OA
ATOM     27  O   LIG    1       -2.269   8.430  -1.948  0.00  0.00    -0.910 OA
ENDBRANCH  22  24
ENDBRANCH  15  18
ENDBRANCH   1  15
TORSDOF 6
