REMARK  Name = ZINCvU0000000IEE.1
REMARK                            x       y       z     vdW  Elec       q    Type
REMARK                         _______ _______ _______ _____ _____    ______ ____
ROOT
ATOM      1  C   LIG    1       -7.253   7.107   0.497  0.00  0.00    +0.140 A 
ATOM      2  C   LIG    1       -7.497   5.739   0.485  0.00  0.00    +0.020 A 
ATOM      3  C   LIG    1       -6.447   4.846   0.379  0.00  0.00    +0.030 A 
ATOM      4  C   LIG    1       -5.151   5.306   0.278  0.00  0.00    +0.040 A 
ATOM      5  C   LIG    1       -4.894   6.679   0.293  0.00  0.00    -0.060 A 
ATOM      6  C   LIG    1       -5.954   7.581   0.401  0.00  0.00    +0.080 A 
ENDROOT
BRANCH   1   9
ATOM      7  O   LIG    1       -7.274   9.504  -0.660  0.00  0.00    -0.490 OA
ATOM      8  C   LIG    1       -8.274   9.186  -0.047  0.00  0.00    +0.550 C 
ATOM      9  N   LIG    1       -8.319   8.007   0.604  0.00  0.00    -0.670 N 
ATOM     10  H   LIG    1       -9.090   7.782   1.148  0.00  0.00    +0.410 HD
BRANCH   8  11
ATOM     11  C   LIG    1       -9.441  10.092  -0.015  0.00  0.00    -0.130 A 
ATOM     12  C   LIG    1      -10.591   9.730   0.688  0.00  0.00    +0.060 A 
ATOM     13  C   LIG    1      -11.677  10.581   0.714  0.00  0.00    +0.020 A 
ATOM     14  C   LIG    1      -11.628  11.791   0.045  0.00  0.00    +0.060 A 
ATOM     15  C   LIG    1      -10.492  12.157  -0.654  0.00  0.00    +0.020 A 
ATOM     16  C   LIG    1       -9.396  11.318  -0.684  0.00  0.00    +0.020 A 
ATOM     17 CL   LIG    1       -7.968  11.782  -1.556  0.00  0.00    -0.020 Cl
ENDBRANCH   8  11
ENDBRANCH   1   9
BRANCH   5  18
ATOM     18  C   LIG    1       -3.509   7.175   0.191  0.00  0.00    +0.370 C 
ATOM     19  N   LIG    1       -2.525   6.334   0.091  0.00  0.00    -0.270 NA
BRANCH  19  20
ATOM     20  N   LIG    1       -1.203   6.799   0.101  0.00  0.00    -0.340 N 
ATOM     21  C   LIG    1       -0.820   8.091   0.098  0.00  0.00    +0.430 A 
ATOM     22  N   LIG    1        0.529   8.118   0.104  0.00  0.00    -0.460 N 
ATOM     23  H   LIG    1        1.086   8.912   0.100  0.00  0.00    +0.470 HD
ATOM     24  N   LIG    1        0.978   6.790   0.117  0.00  0.00    -0.260 NA
ATOM     25  S   LIG    1       -1.857   9.452   0.081  0.00  0.00    -0.540 S 
ATOM     26  C   LIG    1       -0.068   6.011   0.119  0.00  0.00    +0.360 A 
BRANCH  26  27
ATOM     27  C   LIG    1       -0.042   4.531   0.132  0.00  0.00    -0.050 A 
ATOM     28  C   LIG    1        1.176   3.852   0.144  0.00  0.00    +0.100 A 
ATOM     29  C   LIG    1        1.194   2.472   0.157  0.00  0.00    +0.030 A 
ATOM     30  C   LIG    1        0.005   1.762   0.157  0.00  0.00    -0.010 A 
ATOM     31  C   LIG    1       -1.207   2.431   0.139  0.00  0.00    +0.040 A 
ATOM     32 CL   LIG    1        0.034   0.027   0.171  0.00  0.00    -0.050 Cl
ATOM     33  C   LIG    1       -1.237   3.811   0.132  0.00  0.00    +0.100 A 
ENDBRANCH  26  27
ENDBRANCH  19  20
ENDBRANCH   5  18
TORSDOF 5
