REMARK  Name = ZINCvU00000006UK.0
REMARK                            x       y       z     vdW  Elec       q    Type
REMARK                         _______ _______ _______ _____ _____    ______ ____
ROOT
ATOM      1  C   LIG    1       -3.669   3.057  -0.313  0.00  0.00    +0.540 C 
ATOM      2  N   LIG    1       -2.494   3.716  -0.259  0.00  0.00    -0.670 N 
ATOM      3  H   LIG    1       -2.484   4.681  -0.157  0.00  0.00    +0.420 HD
ATOM      4  O   LIG    1       -3.683   1.845  -0.344  0.00  0.00    -0.500 OA
ENDROOT
BRANCH   2   5
ATOM      5  C   LIG    1       -1.290   3.009  -0.351  0.00  0.00    +0.150 A 
ATOM      6  C   LIG    1       -0.172   3.447   0.346  0.00  0.00    -0.010 A 
ATOM      7  C   LIG    1        1.016   2.749   0.251  0.00  0.00    +0.040 A 
ATOM      8  C   LIG    1        1.090   1.610  -0.530  0.00  0.00    -0.100 A 
ATOM      9  C   LIG    1       -0.023   1.169  -1.222  0.00  0.00    +0.050 A 
ATOM     10  C   LIG    1       -1.213   1.865  -1.134  0.00  0.00    +0.020 A 
BRANCH   8  11
ATOM     11  C   LIG    1        2.386   0.848  -0.628  0.00  0.00    +0.200 C 
BRANCH  11  12
ATOM     12  C   LIG    1        2.438  -0.197   0.457  0.00  0.00    +0.100 A 
ATOM     13  N   LIG    1        1.998  -1.391   0.328  0.00  0.00    -0.460 NA
ATOM     14  C   LIG    1        2.113  -2.221   1.381  0.00  0.00    +0.080 A 
ATOM     15  C   LIG    1        1.724  -3.570   1.512  0.00  0.00    +0.080 A 
ATOM     16  C   LIG    1        1.928  -4.236   2.682  0.00  0.00    +0.030 A 
ATOM     17  C   LIG    1        2.521  -3.604   3.765  0.00  0.00    +0.040 A 
ATOM     18  C   LIG    1        2.912  -2.288   3.667  0.00  0.00    +0.060 A 
ATOM     19  C   LIG    1        2.712  -1.590   2.478  0.00  0.00    -0.180 A 
ATOM     20  S   LIG    1        3.082   0.068   2.015  0.00  0.00    +0.100 S 
ENDBRANCH  11  12
ENDBRANCH   8  11
ENDBRANCH   2   5
BRANCH   1  21
ATOM     21  C   LIG    1       -4.965   3.827  -0.334  0.00  0.00    -0.010 C 
ATOM     22  C   LIG    1       -5.294   4.231  -1.773  0.00  0.00    +0.090 C 
BRANCH  21  23
ATOM     23  S   LIG    1       -6.294   2.787   0.319  0.00  0.00    +0.090 S 
BRANCH  23  28
ATOM     24  C   LIG    1      -11.017   5.164   0.854  0.00  0.00    +0.200 C 
ATOM     25  C   LIG    1       -9.565   4.901   0.552  0.00  0.00    +0.190 A 
ATOM     26  N   LIG    1       -8.707   5.759   0.075  0.00  0.00    -0.280 NA
ATOM     27  N   LIG    1       -7.556   5.205  -0.057  0.00  0.00    -0.290 NA
ATOM     28  C   LIG    1       -7.618   3.950   0.323  0.00  0.00    +0.140 A 
ATOM     29  N   LIG    1       -8.902   3.718   0.726  0.00  0.00    -0.430 N 
BRANCH  29  30
ATOM     30  C   LIG    1       -9.454   2.462   1.240  0.00  0.00    +0.200 C 
ATOM     31  C   LIG    1       -8.464   1.397   1.716  0.00  0.00    +0.070 C 
ATOM     32  C   LIG    1       -9.230   1.199   0.406  0.00  0.00    +0.060 C 
ENDBRANCH  29  30
ENDBRANCH  23  28
ENDBRANCH  21  23
ENDBRANCH   1  21
TORSDOF 7
