REMARK  Name = ZINCrD0000075G4x.0
REMARK                            x       y       z     vdW  Elec       q    Type
REMARK                         _______ _______ _______ _____ _____    ______ ____
ROOT
ATOM      1  O   LIG    1       -1.269   6.464   0.752  0.00  0.00    -0.520 OA
ATOM      2  C   LIG    1       -0.737   5.866   1.668  0.00  0.00    +0.590 C 
ATOM      3  N   LIG    1        0.136   4.873   1.408  0.00  0.00    -0.720 N 
ATOM      4  H   LIG    1        0.560   4.396   2.139  0.00  0.00    +0.410 HD
ENDROOT
BRANCH   2   5
ATOM      5  C   LIG    1       -1.047   6.226   3.057  0.00  0.00    -0.190 A 
ATOM      6  C   LIG    1       -0.345   7.160   3.763  0.00  0.00    +0.050 A 
ATOM      7  S   LIG    1       -0.976   7.326   5.336  0.00  0.00    +0.220 S 
ATOM      8  C   LIG    1       -2.211   6.109   5.058  0.00  0.00    -0.200 A 
ATOM      9  C   LIG    1       -3.239   5.666   6.082  0.00  0.00    +0.120 C 
ATOM     10  C   LIG    1       -4.367   4.927   5.358  0.00  0.00    +0.030 C 
ATOM     11  C   LIG    1       -3.759   3.862   4.441  0.00  0.00    +0.020 C 
ATOM     12  C   LIG    1       -3.056   4.549   3.268  0.00  0.00    +0.090 C 
ATOM     13  C   LIG    1       -2.125   5.619   3.815  0.00  0.00    -0.050 A 
BRANCH   6  14
ATOM     14  N   LIG    1        0.737   7.879   3.266  0.00  0.00    -0.380 N 
ATOM     15  C   LIG    1        1.263   7.761   2.010  0.00  0.00    +0.160 A 
ATOM     16  C   LIG    1        2.296   8.621   1.903  0.00  0.00    -0.030 A 
ATOM     17  C   LIG    1        2.419   9.290   3.138  0.00  0.00    -0.020 A 
ATOM     18  C   LIG    1        1.454   8.818   3.953  0.00  0.00    +0.140 A 
ENDBRANCH   6  14
ENDBRANCH   2   5
BRANCH   3  19
ATOM     19  C   LIG    1        0.445   4.513   0.022  0.00  0.00    +0.410 C 
BRANCH  19  20
ATOM     20  C   LIG    1        1.441   3.383   0.006  0.00  0.00    +0.110 A 
ATOM     21  N   LIG    1        2.744   3.500  -0.006  0.00  0.00    -0.220 NA
ATOM     22  N   LIG    1        3.296   2.337  -0.017  0.00  0.00    -0.280 NA
ATOM     23  C   LIG    1        2.359   1.403  -0.013  0.00  0.00    +0.200 A 
ATOM     24  C   LIG    1        2.394  -0.004  -0.020  0.00  0.00    +0.080 A 
ATOM     25  C   LIG    1        1.224  -0.698  -0.013  0.00  0.00    +0.070 A 
ATOM     26  C   LIG    1        0.002  -0.004   0.002  0.00  0.00    +0.030 A 
ATOM     27  C   LIG    1       -0.016   1.345   0.009  0.00  0.00    +0.230 A 
ATOM     28  N   LIG    1        1.149   2.054   0.002  0.00  0.00    -0.380 N 
ENDBRANCH  19  20
ENDBRANCH   3  19
TORSDOF 4
