REMARK  Name = ZINCvU00000009ZD.0
REMARK                            x       y       z     vdW  Elec       q    Type
REMARK                         _______ _______ _______ _____ _____    ______ ____
ROOT
ATOM      1  C   LIG    1       -3.892   6.915   0.181  0.00  0.00    +0.140 C 
ATOM      2  C   LIG    1       -2.701   7.838   0.144  0.00  0.00    +0.220 C 
ATOM      3  C   LIG    1       -1.471   7.306   0.082  0.00  0.00    -0.300 C 
ATOM      4  C   LIG    1       -0.218   8.138   0.023  0.00  0.00    +0.400 C 
ATOM      5  N   LIG    1       -0.541   9.527   0.342  0.00  0.00    -0.380 N 
ATOM      6  N   LIG    1        0.308  10.595   0.629  0.00  0.00    -0.270 NA
ATOM      7  C   LIG    1       -0.464  11.645   0.843  0.00  0.00    +0.320 A 
ATOM      8  N   LIG    1       -1.750  11.275   0.703  0.00  0.00    -0.520 NA
ATOM      9  C   LIG    1       -1.809  10.007   0.405  0.00  0.00    +0.510 A 
ATOM     10  N   LIG    1       -2.911   9.194   0.179  0.00  0.00    -0.610 N 
ATOM     11  H   LIG    1       -3.796   9.570   0.048  0.00  0.00    +0.440 HD
ENDROOT
BRANCH   4  12
ATOM     12  C   LIG    1        0.369   8.064  -1.363  0.00  0.00    -0.090 A 
ATOM     13  C   LIG    1       -0.371   8.489  -2.450  0.00  0.00    +0.030 A 
ATOM     14  C   LIG    1        0.169   8.425  -3.721  0.00  0.00    +0.050 A 
ATOM     15  C   LIG    1        1.446   7.928  -3.906  0.00  0.00    -0.080 A 
ATOM     16  C   LIG    1        2.184   7.498  -2.818  0.00  0.00    +0.050 A 
ATOM     17 BR   LIG    1        2.183   7.835  -5.645  0.00  0.00    -0.040 Br
ATOM     18  C   LIG    1        1.646   7.567  -1.547  0.00  0.00    +0.060 A 
ENDBRANCH   4  12
BRANCH   7  19
ATOM     19  C   LIG    1        0.009  13.004   1.181  0.00  0.00    +0.050 A 
ATOM     20  C   LIG    1       -0.779  14.091   1.398  0.00  0.00    +0.020 A 
ATOM     21  C   LIG    1        0.085  15.165   1.691  0.00  0.00    -0.060 A 
ATOM     22  C   LIG    1        1.343  14.688   1.631  0.00  0.00    +0.200 A 
ATOM     23  O   LIG    1        1.294  13.381   1.323  0.00  0.00    -0.160 OA
ENDBRANCH   7  19
BRANCH   3  24
ATOM     24  C   LIG    1       -1.346   5.897   0.067  0.00  0.00    +0.590 C 
ATOM     25  N   LIG    1       -1.462   5.223  -1.094  0.00  0.00    -0.660 N 
ATOM     26  H   LIG    1       -1.570   5.707  -1.927  0.00  0.00    +0.410 HD
ATOM     27  O   LIG    1       -1.133   5.293   1.103  0.00  0.00    -0.500 OA
BRANCH  25  28
ATOM     28  C   LIG    1       -1.425   3.825  -1.098  0.00  0.00    +0.140 A 
ATOM     29  C   LIG    1       -2.207   3.111  -1.996  0.00  0.00    -0.020 A 
ATOM     30  C   LIG    1       -2.170   1.730  -1.997  0.00  0.00    +0.030 A 
ATOM     31  C   LIG    1       -1.354   1.059  -1.104  0.00  0.00    -0.010 A 
ATOM     32  C   LIG    1       -0.578   1.767  -0.204  0.00  0.00    +0.030 A 
ATOM     33  C   LIG    1       -0.607   3.148  -0.203  0.00  0.00    +0.020 A 
ENDBRANCH  25  28
ENDBRANCH   3  24
TORSDOF 4
