REMARK  Name = ZINCvU0000000Aq3.0
REMARK                            x       y       z     vdW  Elec       q    Type
REMARK                         _______ _______ _______ _____ _____    ______ ____
ROOT
ATOM      1  C   LIG    1        1.597   8.849   0.104  0.00  0.00    +0.200 C 
ATOM      2  C   LIG    1        0.693   7.644   0.068  0.00  0.00    +0.150 A 
ATOM      3  N   LIG    1       -0.605   7.655   0.078  0.00  0.00    -0.260 NA
ATOM      4  O   LIG    1       -1.095   6.330   0.033  0.00  0.00    -0.070 OA
ATOM      5  C   LIG    1       -0.057   5.470  -0.006  0.00  0.00    +0.310 A 
ATOM      6  N   LIG    1        0.019   4.150  -0.055  0.00  0.00    -0.460 NA
ATOM      7  C   LIG    1        1.181   3.516  -0.087  0.00  0.00    +0.250 A 
ATOM      8  C   LIG    1        2.391   4.213  -0.065  0.00  0.00    -0.010 A 
ATOM      9  C   LIG    1        2.371   5.604  -0.019  0.00  0.00    +0.010 A 
ATOM     10  C   LIG    1        1.116   6.245   0.013  0.00  0.00    -0.210 A 
ENDROOT
BRANCH   9  11
ATOM     11  C   LIG    1        3.628   6.385  -0.001  0.00  0.00    +0.560 C 
ATOM     12  N   LIG    1        4.553   6.151   0.951  0.00  0.00    -0.600 N 
ATOM     13  C   LIG    1        4.367   5.067   1.925  0.00  0.00    +0.260 C 
ATOM     14  C   LIG    1        5.606   4.166   1.903  0.00  0.00    +0.010 C 
ATOM     15  C   LIG    1        6.855   5.018   2.142  0.00  0.00    +0.020 C 
ATOM     16  C   LIG    1        6.990   6.053   1.022  0.00  0.00    -0.020 C 
ATOM     17  C   LIG    1        5.770   6.971   1.031  0.00  0.00    +0.290 C 
ATOM     18  O   LIG    1        3.826   7.238  -0.844  0.00  0.00    -0.510 OA
BRANCH  16  19
ATOM     19  C   LIG    1        8.257   6.882   1.244  0.00  0.00    +0.010 C 
BRANCH  19  20
ATOM     20  C   LIG    1        8.459   7.831   0.061  0.00  0.00    +0.220 C 
ATOM     21  F   LIG    1        9.617   8.589   0.263  0.00  0.00    -0.220 F 
ENDBRANCH  19  20
ENDBRANCH  16  19
ENDBRANCH   9  11
BRANCH   7  22
ATOM     22  C   LIG    1        1.198   2.034  -0.140  0.00  0.00    -0.060 A 
ATOM     23  C   LIG    1        2.411   1.349  -0.173  0.00  0.00    +0.080 A 
ATOM     24  C   LIG    1        2.421  -0.030  -0.224  0.00  0.00    +0.030 A 
ATOM     25  C   LIG    1        1.229  -0.732  -0.241  0.00  0.00    +0.090 A 
ATOM     26  C   LIG    1        0.021  -0.057  -0.207  0.00  0.00    -0.190 A 
ATOM     27  C   LIG    1       -0.000   1.321  -0.157  0.00  0.00    +0.130 A 
BRANCH  26  28
ATOM     28  C   LIG    1       -1.272  -0.830  -0.225  0.00  0.00    +0.510 C 
ATOM     29  F   LIG    1       -2.253  -0.113   0.469  0.00  0.00    -0.170 F 
ATOM     30  F   LIG    1       -1.082  -2.073   0.388  0.00  0.00    -0.170 F 
ATOM     31  F   LIG    1       -1.683  -1.021  -1.548  0.00  0.00    -0.170 F 
ENDBRANCH  26  28
ENDBRANCH   7  22
TORSDOF 5
