REMARK  Name = ZINCtj0000004rod.0
REMARK                            x       y       z     vdW  Elec       q    Type
REMARK                         _______ _______ _______ _____ _____    ______ ____
ROOT
ATOM      1  O   LIG    1        0.315  -0.180   7.103  0.00  0.00    -0.520 OA
ATOM      2  C   LIG    1        0.167  -0.790   6.066  0.00  0.00    +0.530 C 
ATOM      3  N   LIG    1        0.024  -0.121   4.904  0.00  0.00    -0.620 N 
ATOM      4  C   LIG    1       -0.065   1.347   4.886  0.00  0.00    +0.300 C 
ATOM      5  C   LIG    1       -1.300   1.750   4.072  0.00  0.00    +0.190 C 
ATOM      6  N   LIG    1       -1.239   1.114   2.749  0.00  0.00    -0.530 NA
ATOM      7  C   LIG    1       -1.283  -0.350   2.859  0.00  0.00    +0.170 C 
ATOM      8  C   LIG    1       -0.048  -0.839   3.623  0.00  0.00    +0.290 C 
ENDROOT
BRANCH   2   9
ATOM      9  C   LIG    1        0.144  -2.297   6.074  0.00  0.00    -0.020 C 
ATOM     10  C   LIG    1        1.544  -2.831   5.765  0.00  0.00    +0.040 C 
ATOM     11  C   LIG    1        1.514  -4.361   5.742  0.00  0.00    +0.030 C 
ATOM     12  C   LIG    1        1.092  -4.881   7.119  0.00  0.00    +0.290 C 
ATOM     13  N   LIG    1       -0.187  -4.258   7.488  0.00  0.00    -1.000 NA
ATOM     14  C   LIG    1       -0.294  -2.793   7.456  0.00  0.00    +0.320 C 
BRANCH  13  15
ATOM     15  S   LIG    1       -1.482  -5.190   7.931  0.00  0.00    +2.720 S 
ATOM     16  O   LIG    1       -1.272  -6.471   7.353  0.00  0.00    -0.940 OA
ATOM     17  O   LIG    1       -2.642  -4.407   7.686  0.00  0.00    -0.950 OA
BRANCH  15  18
ATOM     18  C   LIG    1       -1.392  -5.411   9.677  0.00  0.00    -0.800 A 
ATOM     19  C   LIG    1       -1.946  -4.605  10.584  0.00  0.00    +0.160 A 
ATOM     20  C   LIG    1       -1.744  -4.982  11.901  0.00  0.00    -0.020 A 
ATOM     21  C   LIG    1       -1.019  -6.090  12.063  0.00  0.00    +0.010 A 
ATOM     22  S   LIG    1       -0.552  -6.725  10.491  0.00  0.00    +0.220 S 
ENDBRANCH  15  18
ENDBRANCH  13  15
ENDBRANCH   2   9
BRANCH   6  23
ATOM     23  C   LIG    1       -2.314   1.608   1.878  0.00  0.00    +0.190 C 
BRANCH  23  24
ATOM     24  C   LIG    1       -2.075   1.121   0.447  0.00  0.00    +0.260 C 
BRANCH  24  25
ATOM     25  N   LIG    1       -3.149   1.616  -0.424  0.00  0.00    -0.390 N 
ATOM     26  C   LIG    1       -2.881   1.234  -1.834  0.00  0.00    +0.270 C 
ATOM     27  C   LIG    1       -4.284   1.300  -2.491  0.00  0.00    +0.070 C 
ATOM     28  C   LIG    1       -5.214   0.766  -1.378  0.00  0.00    +0.070 C 
ATOM     29  C   LIG    1       -4.432   0.973  -0.067  0.00  0.00    +0.250 C 
ATOM     30  H   LIG    1       -3.228   2.619  -0.345  0.00  0.00    +0.430 HD
ENDBRANCH  24  25
ENDBRANCH  23  24
ENDBRANCH   6  23
TORSDOF 6
