REMARK  Name = ZINCqH0000009ByK.0
REMARK                            x       y       z     vdW  Elec       q    Type
REMARK                         _______ _______ _______ _____ _____    ______ ____
ROOT
ATOM      1  C   LIG    1        1.376   4.773   0.072  0.00  0.00    +0.090 C 
ATOM      2  C   LIG    1        0.568   3.570   0.562  0.00  0.00    +0.170 C 
ATOM      3  O   LIG    1       -0.764   3.580  -0.001  0.00  0.00    -0.350 OA
ATOM      4  C   LIG    1       -1.204   2.212   0.019  0.00  0.00    +0.320 C 
ATOM      5  N   LIG    1       -0.016   1.344   0.009  0.00  0.00    -0.620 N 
ATOM      6  C   LIG    1        0.002  -0.004   0.002  0.00  0.00    +0.690 C 
ATOM      7  O   LIG    1        1.062  -0.597  -0.011  0.00  0.00    -0.560 OA
ATOM      8  C   LIG    1       -2.022   1.955   1.287  0.00  0.00    +0.040 C 
ATOM      9  C   LIG    1       -2.063   1.925  -1.214  0.00  0.00    +0.070 C 
ATOM     10  C   LIG    1        1.154   2.249   0.003  0.00  0.00    +0.220 C 
ENDROOT
BRANCH   6  11
ATOM     11  O   LIG    1       -1.155  -0.693   0.009  0.00  0.00    -0.350 OA
BRANCH  11  12
ATOM     12  C   LIG    1       -1.059  -2.142   0.001  0.00  0.00    +0.140 C 
ATOM     13  C   LIG    1       -0.318  -2.596  -1.258  0.00  0.00    +0.030 C 
ATOM     14  C   LIG    1       -2.465  -2.746   0.011  0.00  0.00    +0.080 C 
ATOM     15  C   LIG    1       -0.294  -2.610   1.240  0.00  0.00    +0.040 C 
ENDBRANCH  11  12
ENDBRANCH   6  11
BRANCH  10  16
ATOM     16  C   LIG    1        1.681   2.444  -1.420  0.00  0.00    +0.290 C 
BRANCH  16  17
ATOM     17  N   LIG    1        1.970   1.138  -2.017  0.00  0.00    -0.700 N 
ATOM     18  H   LIG    1        1.818   0.327  -1.508  0.00  0.00    +0.420 HD
BRANCH  17  19
ATOM     19  C   LIG    1        2.461   1.061  -3.312  0.00  0.00    +0.440 A 
ATOM     20  N   LIG    1        2.666   2.175  -4.000  0.00  0.00    -0.530 NA
ATOM     21  C   LIG    1        3.132   2.151  -5.232  0.00  0.00    +0.390 A 
ATOM     22  C   LIG    1        3.427   0.937  -5.854  0.00  0.00    -0.140 A 
ATOM     23  C   LIG    1        3.220  -0.259  -5.149  0.00  0.00    +0.170 A 
ATOM     24  C   LIG    1        2.739  -0.187  -3.869  0.00  0.00    -0.160 A 
ATOM     25 CL   LIG    1        2.471  -1.635  -2.950  0.00  0.00    -0.040 Cl
BRANCH  22  26
ATOM     26  C   LIG    1        3.933   0.912  -7.194  0.00  0.00    +0.260 C 
ATOM     27  N   LIG    1        4.335   0.892  -8.256  0.00  0.00    -0.410 NA
ENDBRANCH  22  26
ENDBRANCH  17  19
ENDBRANCH  16  17
ENDBRANCH  10  16
TORSDOF 6
