REMARK  Name = ZINCrg00000SjSHk.0
REMARK                            x       y       z     vdW  Elec       q    Type
REMARK                         _______ _______ _______ _____ _____    ______ ____
ROOT
ATOM      1  C   LIG    1        0.282   3.963   1.384  0.00  0.00    +0.060 C 
ATOM      2  C   LIG    1       -0.575   4.234   0.146  0.00  0.00    +0.260 C 
ENDROOT
BRANCH   2   3
ATOM      3  N   LIG    1       -1.413   5.412   0.380  0.00  0.00    -0.730 N 
ATOM      4  H   LIG    1       -2.322   5.305   0.701  0.00  0.00    +0.410 HD
ATOM      5  C   LIG    1       -0.920   6.646   0.150  0.00  0.00    +0.730 C 
ATOM      6  N   LIG    1       -1.692   7.730   0.366  0.00  0.00    -0.630 N 
ATOM      7  C   LIG    1       -3.079   7.706   0.850  0.00  0.00    +0.280 C 
ATOM      8  C   LIG    1       -3.686   9.080   0.474  0.00  0.00    +0.190 C 
ATOM      9  O   LIG    1       -4.209   8.974  -0.850  0.00  0.00    -0.370 OA
ATOM     10  C   LIG    1       -4.489  10.239  -1.464  0.00  0.00    +0.220 C 
ATOM     11  C   LIG    1       -3.191  11.036  -1.587  0.00  0.00    +0.160 C 
ATOM     12  N   LIG    1       -2.562  11.193  -0.284  0.00  0.00    -0.550 NA
ATOM     13  C   LIG    1       -1.254  11.850  -0.407  0.00  0.00    +0.210 C 
ATOM     14  C   LIG    1       -2.472  10.012   0.535  0.00  0.00    +0.160 C 
ATOM     15  C   LIG    1       -1.276   9.125   0.162  0.00  0.00    +0.240 C 
ATOM     16  O   LIG    1        0.219   6.780  -0.252  0.00  0.00    -0.590 OA
ENDBRANCH   2   3
BRANCH   2  17
ATOM     17  C   LIG    1       -1.452   3.040  -0.129  0.00  0.00    +0.530 C 
ATOM     18  N   LIG    1       -0.906   1.888  -0.566  0.00  0.00    -0.540 N 
ATOM     19  C   LIG    1        0.445   1.711  -0.883  0.00  0.00    +0.140 A 
ATOM     20  C   LIG    1        1.495   2.628  -0.822  0.00  0.00    -0.020 A 
ATOM     21  C   LIG    1        2.772   2.247  -1.178  0.00  0.00    +0.050 A 
ATOM     22  C   LIG    1        3.021   0.953  -1.597  0.00  0.00    -0.010 A 
ATOM     23  C   LIG    1        1.985   0.039  -1.660  0.00  0.00    +0.060 A 
ATOM     24  C   LIG    1        0.704   0.417  -1.305  0.00  0.00    -0.130 A 
ATOM     25  C   LIG    1       -0.589  -0.366  -1.280  0.00  0.00    +0.100 C 
ATOM     26  C   LIG    1       -1.641   0.640  -0.788  0.00  0.00    +0.230 C 
ATOM     27  C   LIG    1       -2.724   0.839  -1.851  0.00  0.00    +0.050 C 
ATOM     28  O   LIG    1       -2.651   3.115   0.044  0.00  0.00    -0.510 OA
ENDBRANCH   2  17
TORSDOF 2
