REMARK  Name = ZINCrH000004mDye.1
REMARK                            x       y       z     vdW  Elec       q    Type
REMARK                         _______ _______ _______ _____ _____    ______ ____
ROOT
ATOM      1  N   LIG    1        1.161   3.579   1.643  0.00  0.00    -0.530 NA
ATOM      2  C   LIG    1       -0.017   3.185   2.426  0.00  0.00    +0.170 C 
ATOM      3  C   LIG    1        0.100   3.748   3.844  0.00  0.00    +0.010 C 
ATOM      4  C   LIG    1        0.203   5.274   3.775  0.00  0.00    +0.250 C 
ATOM      5  C   LIG    1        1.409   5.658   2.914  0.00  0.00    +0.040 C 
ATOM      6  C   LIG    1        1.254   5.039   1.523  0.00  0.00    +0.180 C 
ENDROOT
BRANCH   4   7
ATOM      7  N   LIG    1        0.373   5.816   5.126  0.00  0.00    -0.740 N 
ATOM      8  H   LIG    1        1.262   5.999   5.466  0.00  0.00    +0.400 HD
ATOM      9  C   LIG    1       -0.707   6.059   5.895  0.00  0.00    +0.700 C 
ATOM     10  N   LIG    1       -0.550   6.558   7.137  0.00  0.00    -0.690 N 
ATOM     11  H   LIG    1        0.340   6.669   7.507  0.00  0.00    +0.410 HD
ATOM     12  O   LIG    1       -1.822   5.829   5.468  0.00  0.00    -0.570 OA
BRANCH  10  13
ATOM     13  C   LIG    1       -1.673   6.915   7.895  0.00  0.00    +0.160 A 
ATOM     14  C   LIG    1       -2.801   7.425   7.267  0.00  0.00    +0.060 A 
ATOM     15  C   LIG    1       -3.909   7.773   8.016  0.00  0.00    +0.010 A 
ATOM     16  C   LIG    1       -3.890   7.623   9.392  0.00  0.00    +0.080 A 
ATOM     17  C   LIG    1       -2.764   7.120  10.021  0.00  0.00    +0.010 A 
ATOM     18  F   LIG    1       -4.973   7.969  10.123  0.00  0.00    -0.140 F 
ATOM     19  C   LIG    1       -1.656   6.766   9.275  0.00  0.00    +0.020 A 
ENDBRANCH  10  13
ENDBRANCH   4   7
BRANCH   1  20
ATOM     20  C   LIG    1        1.150   2.941   0.319  0.00  0.00    +0.240 C 
BRANCH  20  24
ATOM     21  C   LIG    1        1.575  -1.288   0.770  0.00  0.00    +0.100 A 
ATOM     22  C   LIG    1        0.314  -0.714   0.761  0.00  0.00    -0.040 A 
ATOM     23  C   LIG    1        0.179   0.654   0.615  0.00  0.00    +0.050 A 
ATOM     24  C   LIG    1        1.301   1.450   0.478  0.00  0.00    -0.090 A 
ATOM     25  C   LIG    1        2.561   0.881   0.486  0.00  0.00    +0.050 A 
ATOM     26  C   LIG    1        2.702  -0.487   0.632  0.00  0.00    +0.070 A 
ATOM     27  F   LIG    1        3.933  -1.043   0.640  0.00  0.00    -0.130 F 
BRANCH  21  29
ATOM     28  C   LIG    1        0.508  -3.395   1.049  0.00  0.00    +0.250 C 
ATOM     29  O   LIG    1        1.710  -2.634   0.913  0.00  0.00    -0.310 OA
ENDBRANCH  21  29
ENDBRANCH  20  24
ENDBRANCH   1  20
TORSDOF 5
