REMARK  Name = ZINCb80000006la7.0
REMARK                            x       y       z     vdW  Elec       q    Type
REMARK                         _______ _______ _______ _____ _____    ______ ____
ROOT
ATOM      1  C   LIG    1        3.607   2.274  -0.019  0.00  0.00    +0.150 C 
ATOM      2  C   LIG    1        2.338   1.462  -0.012  0.00  0.00    +0.240 A 
ATOM      3  C   LIG    1        2.417   0.111  -0.020  0.00  0.00    -0.160 A 
ATOM      4  C   LIG    1        1.246  -0.662  -0.013  0.00  0.00    +0.310 A 
ATOM      5  C   LIG    1        0.002  -0.004   0.002  0.00  0.00    -0.380 A 
ATOM      6  C   LIG    1       -0.017   1.415   0.010  0.00  0.00    +0.550 A 
ATOM      7  O   LIG    1       -1.080   2.012   0.018  0.00  0.00    -0.500 OA
ATOM      8  N   LIG    1        1.141   2.100   0.002  0.00  0.00    -0.620 N 
ATOM      9  H   LIG    1        1.120   3.070   0.008  0.00  0.00    +0.420 HD
ENDROOT
BRANCH   5  10
ATOM     10  C   LIG    1       -1.205  -0.742   0.009  0.00  0.00    +0.490 C 
ATOM     11  O   LIG    1       -2.271  -0.162   0.022  0.00  0.00    -0.460 OA
ENDBRANCH   5  10
BRANCH   4  12
ATOM     12  O   LIG    1        1.311  -2.011  -0.022  0.00  0.00    -0.450 OA
ATOM     13  H   LIG    1        2.213  -2.361  -0.032  0.00  0.00    +0.410 HD
ENDBRANCH   4  12
TORSDOF 2
