REMARK  Name = ZINCvU0000000Grh.0
REMARK                            x       y       z     vdW  Elec       q    Type
REMARK                         _______ _______ _______ _____ _____    ______ ____
ROOT
ATOM      1  C   LIG    1        4.423   1.798   0.262  0.00  0.00    +0.040 A 
ATOM      2  N   LIG    1        4.050   2.781  -0.536  0.00  0.00    -0.230 NA
ATOM      3  N   LIG    1        5.132   3.655  -0.697  0.00  0.00    -0.310 N 
ATOM      4  C   LIG    1        6.181   3.167   0.035  0.00  0.00    +0.150 A 
ATOM      5  C   LIG    1        5.760   2.019   0.642  0.00  0.00    -0.010 A 
ENDROOT
BRANCH   1  10
ATOM      6  C   LIG    1        0.333  -0.519  -0.560  0.00  0.00    +0.050 C 
ATOM      7  C   LIG    1        0.203   0.995  -0.877  0.00  0.00    +0.050 C 
ATOM      8  C   LIG    1        1.633   1.522  -0.638  0.00  0.00    +0.270 C 
ATOM      9  N   LIG    1        2.307   0.569   0.256  0.00  0.00    -0.610 N 
ATOM     10  C   LIG    1        3.580   0.662   0.689  0.00  0.00    +0.620 C 
ATOM     11  O   LIG    1        4.034  -0.188   1.430  0.00  0.00    -0.520 OA
ATOM     12  C   LIG    1        1.358  -0.506   0.602  0.00  0.00    +0.280 C 
BRANCH   6  18
ATOM     13  C   LIG    1       -1.576  -2.123  -0.827  0.00  0.00    +0.130 A 
ATOM     14  C   LIG    1       -2.790  -2.649  -0.409  0.00  0.00    -0.080 A 
ATOM     15  C   LIG    1       -3.408  -2.144   0.718  0.00  0.00    +0.050 A 
ATOM     16  C   LIG    1       -2.819  -1.117   1.431  0.00  0.00    -0.020 A 
ATOM     17  C   LIG    1       -1.606  -0.595   1.020  0.00  0.00    +0.050 A 
ATOM     18  C   LIG    1       -0.986  -1.092  -0.110  0.00  0.00    -0.110 A 
BRANCH  13  20
ATOM     19  C   LIG    1       -1.630  -3.679  -2.623  0.00  0.00    +0.250 C 
ATOM     20  O   LIG    1       -0.965  -2.618  -1.935  0.00  0.00    -0.310 OA
ENDBRANCH  13  20
ENDBRANCH   6  18
ENDBRANCH   1  10
BRANCH   3  21
ATOM     21  C   LIG    1        5.139   4.823  -1.469  0.00  0.00    +0.130 A 
ATOM     22  C   LIG    1        4.072   5.709  -1.401  0.00  0.00    +0.030 A 
ATOM     23  C   LIG    1        4.085   6.863  -2.160  0.00  0.00    +0.040 A 
ATOM     24  C   LIG    1        5.154   7.131  -2.995  0.00  0.00    +0.020 A 
ATOM     25  C   LIG    1        6.216   6.248  -3.069  0.00  0.00    +0.040 A 
ATOM     26  C   LIG    1        6.212   5.096  -2.308  0.00  0.00    +0.020 A 
ENDBRANCH   3  21
BRANCH   4  27
ATOM     27  C   LIG    1        7.519   3.774   0.151  0.00  0.00    -0.160 A 
ATOM     28  C   LIG    1        8.645   3.117   0.501  0.00  0.00    +0.060 A 
ATOM     29  C   LIG    1        9.779   3.901   0.541  0.00  0.00    +0.010 A 
ATOM     30  C   LIG    1        9.591   5.186   0.229  0.00  0.00    -0.040 A 
ATOM     31  S   LIG    1        7.897   5.465  -0.151  0.00  0.00    +0.150 S 
ENDBRANCH   4  27
TORSDOF 5
