REMARK  Name = ZINCqH0000005igs.0
REMARK                            x       y       z     vdW  Elec       q    Type
REMARK                         _______ _______ _______ _____ _____    ______ ____
ROOT
ATOM      1  C   LIG    1        5.367   0.258   3.315  0.00  0.00    +0.280 C 
ATOM      2  N   LIG    1        5.122  -0.661   2.201  0.00  0.00    -0.620 N 
ATOM      3  C   LIG    1        4.169  -0.379   1.291  0.00  0.00    +0.500 C 
ATOM      4  O   LIG    1        3.966  -1.140   0.369  0.00  0.00    -0.490 OA
ENDROOT
BRANCH   3   5
ATOM      5  C   LIG    1        3.356   0.884   1.419  0.00  0.00    +0.100 C 
BRANCH   5   6
ATOM      6  C   LIG    1        2.353   0.963   0.267  0.00  0.00    +0.060 C 
ATOM      7  C   LIG    1        1.322  -0.139   0.384  0.00  0.00    +0.530 C 
ATOM      8  N   LIG    1        0.123   0.453   0.516  0.00  0.00    -0.670 N 
ATOM      9  H   LIG    1       -0.712  -0.032   0.610  0.00  0.00    +0.410 HD
ATOM     10  C   LIG    1        0.217   1.845   0.502  0.00  0.00    +0.150 A 
ATOM     11  C   LIG    1       -0.767   2.825   0.614  0.00  0.00    -0.010 A 
ATOM     12  C   LIG    1       -0.422   4.160   0.568  0.00  0.00    +0.050 A 
ATOM     13  C   LIG    1        0.900   4.536   0.420  0.00  0.00    -0.010 A 
ATOM     14  C   LIG    1        1.883   3.568   0.312  0.00  0.00    +0.070 A 
ATOM     15  O   LIG    1        1.538  -1.333   0.364  0.00  0.00    -0.460 OA
ATOM     16  C   LIG    1        1.542   2.235   0.353  0.00  0.00    -0.140 A 
ENDBRANCH   5   6
ENDBRANCH   3   5
BRANCH   2  17
ATOM     17  C   LIG    1        5.913  -1.889   2.077  0.00  0.00    +0.340 C 
BRANCH  17  18
ATOM     18  C   LIG    1        7.186  -1.592   1.328  0.00  0.00    -0.050 A 
ATOM     19  C   LIG    1        7.482  -0.295   0.954  0.00  0.00    +0.020 A 
ATOM     20  C   LIG    1        8.650  -0.023   0.267  0.00  0.00    +0.050 A 
ATOM     21  C   LIG    1        9.523  -1.048  -0.046  0.00  0.00    +0.020 A 
ATOM     22  C   LIG    1        9.227  -2.346   0.329  0.00  0.00    +0.070 A 
ATOM     23  C   LIG    1        8.061  -2.617   1.020  0.00  0.00    -0.180 A 
BRANCH  23  24
ATOM     24  C   LIG    1        7.742  -4.031   1.433  0.00  0.00    +0.510 C 
ATOM     25  F   LIG    1        6.496  -4.398   0.912  0.00  0.00    -0.170 F 
ATOM     26  F   LIG    1        7.707  -4.112   2.829  0.00  0.00    -0.180 F 
ATOM     27  F   LIG    1        8.726  -4.894   0.940  0.00  0.00    -0.180 F 
ENDBRANCH  23  24
ENDBRANCH  17  18
ENDBRANCH   2  17
TORSDOF 5
