REMARK  Name = ZINCtV00000tRPq2.0
REMARK                            x       y       z     vdW  Elec       q    Type
REMARK                         _______ _______ _______ _____ _____    ______ ____
ROOT
ATOM      1  C   LIG    1        0.620   1.008  -0.962  0.00  0.00    +0.310 C 
ENDROOT
BRANCH   1   2
ATOM      2  C   LIG    1       -0.569   0.475  -0.204  0.00  0.00    -0.110 A 
ATOM      3  C   LIG    1       -1.182   1.256   0.758  0.00  0.00    +0.050 A 
ATOM      4  C   LIG    1       -2.275   0.769   1.450  0.00  0.00    -0.010 A 
ATOM      5  C   LIG    1       -2.750  -0.504   1.187  0.00  0.00    +0.100 A 
ATOM      6  C   LIG    1       -2.132  -1.287   0.226  0.00  0.00    -0.010 A 
ATOM      7  F   LIG    1       -3.815  -0.982   1.866  0.00  0.00    -0.140 F 
ATOM      8  C   LIG    1       -1.042  -0.797  -0.468  0.00  0.00    +0.060 A 
ENDBRANCH   1   2
BRANCH   1  11
ATOM      9  O   LIG    1        2.556   3.276   0.967  0.00  0.00    -0.500 OA
ATOM     10  C   LIG    1        2.120   2.233   0.516  0.00  0.00    +0.610 C 
ATOM     11  N   LIG    1        1.078   2.252  -0.339  0.00  0.00    -0.540 N 
BRANCH  11  12
ATOM     12  C   LIG    1        0.435   3.458  -0.630  0.00  0.00    +0.150 A 
ATOM     13  C   LIG    1       -0.940   3.486  -0.822  0.00  0.00    -0.020 A 
ATOM     14  C   LIG    1       -1.573   4.680  -1.106  0.00  0.00    +0.030 A 
ATOM     15  C   LIG    1       -0.837   5.846  -1.210  0.00  0.00    -0.010 A 
ATOM     16  C   LIG    1        0.533   5.822  -1.024  0.00  0.00    +0.030 A 
ATOM     17  C   LIG    1        1.171   4.632  -0.735  0.00  0.00    +0.020 A 
ENDBRANCH  11  12
BRANCH  10  18
ATOM     18  C   LIG    1        2.728   0.956   0.903  0.00  0.00    -0.090 A 
ATOM     19  C   LIG    1        3.860   0.800   1.651  0.00  0.00    +0.050 A 
ATOM     20  C   LIG    1        4.072  -0.582   1.778  0.00  0.00    -0.060 A 
ATOM     21  C   LIG    1        3.078  -1.201   1.103  0.00  0.00    +0.210 A 
ATOM     22  O   LIG    1        2.270  -0.271   0.577  0.00  0.00    -0.160 OA
ENDBRANCH  10  18
ENDBRANCH   1  11
BRANCH   1  23
ATOM     23  C   LIG    1        0.218   1.282  -2.413  0.00  0.00    +0.090 C 
BRANCH  23  24
ATOM     24  C   LIG    1        1.431   1.716  -3.196  0.00  0.00    -0.090 A 
ATOM     25  C   LIG    1        1.756   3.056  -3.281  0.00  0.00    +0.020 A 
ATOM     26  C   LIG    1        2.870   3.454  -3.995  0.00  0.00    +0.000 A 
ATOM     27  C   LIG    1        3.655   2.511  -4.633  0.00  0.00    +0.000 A 
ATOM     28  C   LIG    1        3.327   1.170  -4.553  0.00  0.00    +0.000 A 
ATOM     29  C   LIG    1        2.215   0.773  -3.834  0.00  0.00    +0.000 A 
ENDBRANCH  23  24
ENDBRANCH   1  23
TORSDOF 6
