REMARK  Name = ZINCpk00000eb9SV.0
REMARK                            x       y       z     vdW  Elec       q    Type
REMARK                         _______ _______ _______ _____ _____    ______ ____
ROOT
ATOM      1  N   LIG    1       -1.974  -3.294   2.987  0.00  0.00    -0.710 N 
ATOM      2  H   LIG    1       -1.247  -3.090   3.596  0.00  0.00    +0.410 HD
ENDROOT
BRANCH   1   6
ATOM      3  C   LIG    1       -4.686  -6.152   4.064  0.00  0.00    +0.240 A 
ATOM      4  C   LIG    1       -4.871  -5.529   2.831  0.00  0.00    +0.070 A 
ATOM      5  C   LIG    1       -3.964  -4.554   2.453  0.00  0.00    +0.030 A 
ATOM      6  C   LIG    1       -2.914  -4.263   3.325  0.00  0.00    +0.340 A 
ATOM      7  N   LIG    1       -2.818  -4.908   4.478  0.00  0.00    -0.280 NA
ATOM      8  N   LIG    1       -3.663  -5.808   4.829  0.00  0.00    -0.210 NA
BRANCH   3  14
ATOM      9  C   LIG    1       -4.479  -7.658   6.734  0.00  0.00    +0.190 C 
ATOM     10  C   LIG    1       -5.524  -7.829   5.663  0.00  0.00    +0.240 A 
ATOM     11  N   LIG    1       -6.528  -8.662   5.703  0.00  0.00    -0.490 NA
ATOM     12  C   LIG    1       -7.252  -8.541   4.580  0.00  0.00    +0.170 A 
ATOM     13  C   LIG    1       -6.682  -7.593   3.813  0.00  0.00    +0.120 A 
ATOM     14  N   LIG    1       -5.580  -7.140   4.492  0.00  0.00    -0.400 N 
ENDBRANCH   3  14
ENDBRANCH   1   6
BRANCH   1  15
ATOM     15  C   LIG    1       -2.082  -2.582   1.711  0.00  0.00    +0.250 C 
ATOM     16  C   LIG    1       -0.699  -2.068   1.276  0.00  0.00    +0.060 C 
ATOM     17  C   LIG    1       -0.807  -0.532   1.189  0.00  0.00    -0.010 C 
ATOM     18  C   LIG    1       -2.318  -0.269   0.974  0.00  0.00    +0.030 C 
ATOM     19  C   LIG    1       -2.983  -1.340   1.874  0.00  0.00    +0.150 C 
BRANCH  19  20
ATOM     20  O   LIG    1       -4.309  -1.622   1.424  0.00  0.00    -0.560 OA
ATOM     21  H   LIG    1       -4.919  -0.875   1.503  0.00  0.00    +0.390 HD
ENDBRANCH  19  20
BRANCH  17  22
ATOM     22  C   LIG    1        0.002  -0.004   0.002  0.00  0.00    +0.330 C 
BRANCH  22  23
ATOM     23  N   LIG    1       -0.018   1.461   0.010  0.00  0.00    -0.370 N 
ATOM     24  C   LIG    1        1.062   2.269   0.004  0.00  0.00    +0.220 A 
ATOM     25  C   LIG    1        0.621   3.548   0.015  0.00  0.00    -0.120 A 
ATOM     26  C   LIG    1       -0.778   3.520   0.028  0.00  0.00    +0.220 A 
ATOM     27  N   LIG    1       -1.162   2.269   0.019  0.00  0.00    -0.290 NA
ENDBRANCH  22  23
ENDBRANCH  17  22
ENDBRANCH   1  15
TORSDOF 6
