REMARK  Name = ZINCpe00000gM3ub.0
REMARK                            x       y       z     vdW  Elec       q    Type
REMARK                         _______ _______ _______ _____ _____    ______ ____
ROOT
ATOM      1  C   LIG    1        3.653   4.442   8.817  0.00  0.00    +0.190 A 
ATOM      2  N   LIG    1        4.894   4.557   8.419  0.00  0.00    -0.290 NA
ATOM      3  N   LIG    1        4.944   5.283   7.354  0.00  0.00    -0.270 NA
ATOM      4  C   LIG    1        3.746   5.661   7.032  0.00  0.00    +0.150 A 
ATOM      5  C   LIG    1        3.308   6.524   5.873  0.00  0.00    +0.430 C 
ATOM      6  N   LIG    1        1.837   6.437   5.804  0.00  0.00    -0.620 N 
ATOM      7  C   LIG    1        1.078   6.516   7.061  0.00  0.00    +0.310 C 
ATOM      8  C   LIG    1        1.439   5.307   7.941  0.00  0.00    +0.300 C 
ATOM      9  C   LIG    1        1.206   6.294   4.621  0.00  0.00    +0.540 C 
ATOM     10  O   LIG    1       -0.005   6.315   4.574  0.00  0.00    -0.520 OA
ATOM     11  N   LIG    1        2.891   5.135   7.946  0.00  0.00    -0.470 N 
ENDROOT
BRANCH   9  12
ATOM     12  C   LIG    1        2.007   6.109   3.358  0.00  0.00    -0.010 C 
ATOM     13  C   LIG    1        2.375   4.622   3.149  0.00  0.00    +0.080 C 
ATOM     14  C   LIG    1        2.275   4.422   1.653  0.00  0.00    +0.520 C 
ATOM     15  N   LIG    1        1.586   5.433   1.096  0.00  0.00    -0.620 N 
ATOM     16  O   LIG    1        2.747   3.485   1.044  0.00  0.00    -0.510 OA
ATOM     17  C   LIG    1        1.150   6.402   2.109  0.00  0.00    +0.310 C 
BRANCH  15  18
ATOM     18  C   LIG    1        1.311   5.555  -0.338  0.00  0.00    +0.430 C 
BRANCH  18  19
ATOM     19  C   LIG    1        0.009   4.869  -0.660  0.00  0.00    -0.040 A 
ATOM     20  C   LIG    1       -1.208   5.442  -0.645  0.00  0.00    -0.040 A 
ATOM     21  C   LIG    1       -2.137   4.442  -1.014  0.00  0.00    -0.070 A 
ATOM     22  C   LIG    1       -1.433   3.315  -1.223  0.00  0.00    +0.170 A 
ATOM     23  O   LIG    1       -0.134   3.580  -1.010  0.00  0.00    -0.170 OA
ENDBRANCH  18  19
ENDBRANCH  15  18
ENDBRANCH   9  12
BRANCH   1  25
ATOM     24  C   LIG    1        2.852   2.237   9.618  0.00  0.00    +0.040 C 
ATOM     25  C   LIG    1        3.166   3.679  10.021  0.00  0.00    +0.140 C 
ENDBRANCH   1  25
TORSDOF 4
