REMARK  Name = ZINCpk00001AZiIS.0
REMARK                            x       y       z     vdW  Elec       q    Type
REMARK                         _______ _______ _______ _____ _____    ______ ____
ROOT
ATOM      1  C   LIG    1       -1.972   6.456   9.253  0.00  0.00    +0.550 C 
ATOM      2  N   LIG    1       -1.363   5.766   8.269  0.00  0.00    -0.550 N 
ATOM      3  C   LIG    1        0.028   5.317   8.424  0.00  0.00    +0.270 C 
ATOM      4  C   LIG    1        0.767   5.623   7.115  0.00  0.00    +0.020 C 
ATOM      5  C   LIG    1        0.132   4.809   5.987  0.00  0.00    +0.110 C 
ATOM      6  C   LIG    1       -1.360   5.008   5.969  0.00  0.00    -0.050 A 
ATOM      7  C   LIG    1       -2.067   4.722   4.798  0.00  0.00    -0.130 A 
ATOM      8  C   LIG    1       -3.450   4.899   4.756  0.00  0.00    +0.020 A 
ATOM      9  C   LIG    1       -4.122   5.346   5.875  0.00  0.00    +0.020 A 
ATOM     10  C   LIG    1       -3.424   5.631   7.034  0.00  0.00    +0.050 A 
ATOM     11  C   LIG    1       -2.044   5.464   7.083  0.00  0.00    +0.140 A 
ATOM     12  O   LIG    1       -3.142   6.770   9.140  0.00  0.00    -0.520 OA
ENDROOT
BRANCH   7  13
ATOM     13  C   LIG    1       -1.348   4.236   3.600  0.00  0.00    +0.560 C 
ATOM     14  N   LIG    1       -2.037   3.877   2.500  0.00  0.00    -0.720 N 
ATOM     15  H   LIG    1       -3.006   3.936   2.493  0.00  0.00    +0.400 HD
ATOM     16  O   LIG    1       -0.135   4.162   3.608  0.00  0.00    -0.520 OA
BRANCH  14  17
ATOM     17  C   LIG    1       -1.325   3.396   1.313  0.00  0.00    +0.270 C 
ATOM     18  C   LIG    1       -2.179   3.644   0.074  0.00  0.00    +0.030 C 
ATOM     19  C   LIG    1       -1.373   3.389  -1.196  0.00  0.00    +0.080 C 
ATOM     20  C   LIG    1       -1.096   1.891  -1.347  0.00  0.00    -0.330 C 
ATOM     21  S   LIG    1       -0.061   1.338   0.040  0.00  0.00    +2.420 S 
ATOM     22  O   LIG    1        1.160   2.062   0.014  0.00  0.00    -0.930 OA
ATOM     23  O   LIG    1       -0.027  -0.083   0.043  0.00  0.00    -0.940 OA
ATOM     24  C   LIG    1       -1.040   1.899   1.464  0.00  0.00    -0.350 C 
ENDBRANCH  14  17
ENDBRANCH   7  13
BRANCH   1  26
ATOM     25  C   LIG    1       -1.850   7.423  11.475  0.00  0.00    +0.160 C 
ATOM     26  C   LIG    1       -1.224   6.831  10.462  0.00  0.00    -0.100 C 
ENDBRANCH   1  26
TORSDOF 3
