REMARK  Name = ZINCqH00000380uS.0
REMARK                            x       y       z     vdW  Elec       q    Type
REMARK                         _______ _______ _______ _____ _____    ______ ____
ROOT
ATOM      1  C   LIG    1       -2.446  -0.105   0.251  0.00  0.00    +0.110 C 
ATOM      2  C   LIG    1       -1.107  -0.791   0.159  0.00  0.00    -0.080 A 
ATOM      3  C   LIG    1       -1.046  -2.167   0.033  0.00  0.00    +0.030 A 
ATOM      4  C   LIG    1        0.176  -2.802  -0.051  0.00  0.00    +0.040 A 
ATOM      5  C   LIG    1        1.355  -2.056  -0.011  0.00  0.00    -0.120 A 
ATOM      6  C   LIG    1        1.293  -0.668   0.111  0.00  0.00    +0.090 A 
ATOM      7  C   LIG    1        0.061  -0.040   0.201  0.00  0.00    +0.140 A 
ENDROOT
BRANCH   5   8
ATOM      8  C   LIG    1        2.666  -2.735  -0.102  0.00  0.00    +0.560 C 
ATOM      9  N   LIG    1        2.825  -3.966   0.421  0.00  0.00    -0.610 N 
ATOM     10  C   LIG    1        1.746  -4.597   1.194  0.00  0.00    +0.260 C 
ATOM     11  C   LIG    1        2.296  -5.034   2.550  0.00  0.00    -0.030 C 
ATOM     12  C   LIG    1        3.521  -5.926   2.339  0.00  0.00    +0.030 C 
ATOM     13  C   LIG    1        4.609  -5.136   1.607  0.00  0.00    -0.040 C 
ATOM     14  C   LIG    1        5.846  -6.018   1.425  0.00  0.00    +0.030 C 
ATOM     15  C   LIG    1        1.222  -5.814   3.312  0.00  0.00    +0.030 C 
ATOM     16  C   LIG    1        4.083  -4.702   0.235  0.00  0.00    +0.280 C 
ATOM     17  O   LIG    1        3.600  -2.182  -0.650  0.00  0.00    -0.530 OA
ENDBRANCH   5   8
BRANCH   7  18
ATOM     18  N   LIG    1       -0.007   1.352   0.328  0.00  0.00    -0.650 N 
ATOM     19  H   LIG    1       -0.742   1.840  -0.074  0.00  0.00    +0.420 HD
ATOM     20  C   LIG    1        0.952   2.014   1.004  0.00  0.00    +0.570 C 
ATOM     21  O   LIG    1        1.923   1.416   1.424  0.00  0.00    -0.510 OA
BRANCH  20  22
ATOM     22  C   LIG    1        0.823   3.471   1.236  0.00  0.00    +0.070 A 
ATOM     23  C   LIG    1        1.818   4.150   1.936  0.00  0.00    +0.040 A 
ATOM     24  C   LIG    1        1.683   5.514   2.145  0.00  0.00    +0.070 A 
ATOM     25  C   LIG    1        0.558   6.151   1.646  0.00  0.00    +0.000 A 
ATOM     26  C   LIG    1       -0.393   5.413   0.959  0.00  0.00    +0.270 A 
ATOM     27  N   LIG    1       -0.237   4.120   0.771  0.00  0.00    -0.460 NA
ENDBRANCH  20  22
ENDBRANCH   7  18
TORSDOF 3
