REMARK  Name = ZINCpe000000ZwTX.0
REMARK                            x       y       z     vdW  Elec       q    Type
REMARK                         _______ _______ _______ _____ _____    ______ ____
ROOT
ATOM      1  O   LIG    1        3.751   2.893   0.609  0.00  0.00    -0.380 OA
ATOM      2  C   LIG    1        4.952   2.831   0.456  0.00  0.00    +0.500 C 
ATOM      3  C   LIG    1        6.002   3.628   1.172  0.00  0.00    +0.510 C 
ATOM      4  N   LIG    1        7.180   3.213   0.660  0.00  0.00    -0.570 N 
ATOM      5  C   LIG    1        6.944   2.267  -0.263  0.00  0.00    +0.710 C 
ATOM      6  O   LIG    1        7.809   1.700  -0.900  0.00  0.00    -0.480 OA
ATOM      7  O   LIG    1        5.828   4.471   2.027  0.00  0.00    -0.390 OA
ATOM      8  N   LIG    1        5.629   2.028  -0.393  0.00  0.00    -0.580 N 
ENDROOT
BRANCH   4   9
ATOM      9  C   LIG    1        8.502   3.711   1.050  0.00  0.00    +0.260 C 
ATOM     10  C   LIG    1        8.712   3.522   2.566  0.00  0.00    +0.020 C 
ATOM     11  C   LIG    1        9.500   4.783   3.001  0.00  0.00    +0.030 C 
ATOM     12  C   LIG    1        8.860   5.900   2.139  0.00  0.00    +0.020 C 
ATOM     13  C   LIG    1        8.596   5.223   0.778  0.00  0.00    +0.020 C 
ENDBRANCH   4   9
BRANCH   8  14
ATOM     14  C   LIG    1        5.026   1.058  -1.311  0.00  0.00    +0.490 C 
BRANCH  14  15
ATOM     15  C   LIG    1        4.809  -0.248  -0.591  0.00  0.00    +0.210 A 
ATOM     16  N   LIG    1        3.785  -0.558   0.160  0.00  0.00    -0.300 NA
ATOM     17  N   LIG    1        3.912  -1.747   0.629  0.00  0.00    -0.030 NA
ATOM     18  N   LIG    1        5.011  -2.276   0.211  0.00  0.00    -0.060 NA
ATOM     19  N   LIG    1        5.635  -1.316  -0.605  0.00  0.00    -0.310 N 
BRANCH  19  20
ATOM     20  C   LIG    1        6.857  -1.440  -1.282  0.00  0.00    +0.120 A 
ATOM     21  C   LIG    1        7.950  -2.015  -0.647  0.00  0.00    +0.040 A 
ATOM     22  C   LIG    1        9.152  -2.135  -1.317  0.00  0.00    +0.040 A 
ATOM     23  C   LIG    1        9.267  -1.684  -2.619  0.00  0.00    +0.040 A 
ATOM     24  C   LIG    1        8.181  -1.111  -3.254  0.00  0.00    +0.050 A 
ATOM     25  C   LIG    1        6.977  -0.987  -2.589  0.00  0.00    +0.020 A 
ENDBRANCH  19  20
ENDBRANCH  14  15
ENDBRANCH   8  14
TORSDOF 4
