REMARK  Name = ZINCrD000000AsWG.0
REMARK                            x       y       z     vdW  Elec       q    Type
REMARK                         _______ _______ _______ _____ _____    ______ ____
ROOT
ATOM      1  O   LIG    1       -4.505  -1.318   0.016  0.00  0.00    -0.490 OA
ATOM      2  C   LIG    1       -3.386  -1.787   0.005  0.00  0.00    +0.540 C 
ATOM      3  N   LIG    1       -3.216  -3.124   0.005  0.00  0.00    -0.660 N 
ATOM      4  H   LIG    1       -2.324  -3.499  -0.070  0.00  0.00    +0.410 HD
ENDROOT
BRANCH   3   5
ATOM      5  C   LIG    1       -4.326  -3.971   0.112  0.00  0.00    +0.150 A 
ATOM      6  C   LIG    1       -5.532  -3.614  -0.470  0.00  0.00    +0.040 A 
ATOM      7  C   LIG    1       -6.625  -4.454  -0.367  0.00  0.00    +0.040 A 
ATOM      8  C   LIG    1       -6.523  -5.647   0.325  0.00  0.00    +0.010 A 
ATOM      9  C   LIG    1       -5.325  -6.009   0.913  0.00  0.00    +0.040 A 
ATOM     10  C   LIG    1       -4.222  -5.175   0.810  0.00  0.00    +0.120 A 
BRANCH  10  11
ATOM     11  N   LIG    1       -3.008  -5.540   1.405  0.00  0.00    -0.580 N 
ATOM     12  C   LIG    1       -1.959  -6.319   0.736  0.00  0.00    +0.260 C 
ATOM     13  C   LIG    1       -1.046  -6.839   1.869  0.00  0.00    +0.060 C 
ATOM     14  C   LIG    1       -1.284  -5.784   2.974  0.00  0.00    +0.070 C 
ATOM     15  C   LIG    1       -2.650  -5.216   2.660  0.00  0.00    +0.520 C 
ATOM     16  O   LIG    1       -3.326  -4.565   3.429  0.00  0.00    -0.510 OA
ENDBRANCH  10  11
ENDBRANCH   3   5
BRANCH   2  17
ATOM     17  C   LIG    1       -2.187  -0.875  -0.009  0.00  0.00    +0.080 C 
BRANCH  17  18
ATOM     18  S   LIG    1       -2.741   0.853  -0.006  0.00  0.00    -0.010 S 
BRANCH  18  19
ATOM     19  C   LIG    1       -1.227   1.754  -0.023  0.00  0.00    -0.100 A 
ATOM     20  C   LIG    1       -0.015   1.077  -0.035  0.00  0.00    +0.000 A 
ATOM     21  C   LIG    1        1.172   1.785  -0.054  0.00  0.00    +0.050 A 
ATOM     22  C   LIG    1        1.157   3.171  -0.056  0.00  0.00    +0.050 A 
ATOM     23  O   LIG    1        2.338   3.851  -0.071  0.00  0.00    -0.310 OA
ATOM     24  C   LIG    1        2.281   5.231  -0.447  0.00  0.00    +0.220 C 
ATOM     25  C   LIG    1        1.121   5.889   0.312  0.00  0.00    +0.230 C 
ATOM     26  O   LIG    1       -0.089   5.213  -0.046  0.00  0.00    -0.300 OA
ATOM     27  C   LIG    1       -0.055   3.852  -0.040  0.00  0.00    +0.070 A 
ATOM     28  C   LIG    1       -1.246   3.143  -0.020  0.00  0.00    +0.050 A 
ENDBRANCH  18  19
ENDBRANCH  17  18
ENDBRANCH   2  17
TORSDOF 5
