REMARK  Name = ZINCrD00000hQ6sv.0
REMARK                            x       y       z     vdW  Elec       q    Type
REMARK                         _______ _______ _______ _____ _____    ______ ____
ROOT
ATOM      1  N   LIG    1       -2.220  -1.575   2.719  0.00  0.00    -0.710 N 
ATOM      2  H   LIG    1       -2.038  -2.504   2.508  0.00  0.00    +0.410 HD
ATOM      3  C   LIG    1       -1.637  -0.595   2.000  0.00  0.00    +0.600 C 
ATOM      4  O   LIG    1       -1.864   0.569   2.264  0.00  0.00    -0.500 OA
ENDROOT
BRANCH   3   5
ATOM      5  C   LIG    1       -0.719  -0.937   0.888  0.00  0.00    -0.030 A 
ATOM      6  N   LIG    1       -0.373  -2.134   0.481  0.00  0.00    -0.320 NA
ATOM      7  O   LIG    1        0.393  -2.089  -0.450  0.00  0.00    +0.120 OA
ATOM      8  C   LIG    1        0.688  -0.841  -0.832  0.00  0.00    +0.190 A 
ATOM      9  C   LIG    1        0.002  -0.004   0.002  0.00  0.00    -0.110 A 
BRANCH   9  10
ATOM     10  C   LIG    1       -0.018   1.479   0.010  0.00  0.00    -0.030 A 
ATOM     11  C   LIG    1       -1.233   2.162   0.020  0.00  0.00    +0.050 A 
ATOM     12  C   LIG    1       -1.246   3.542   0.033  0.00  0.00    +0.000 A 
ATOM     13  C   LIG    1       -0.056   4.247   0.026  0.00  0.00    +0.010 A 
ATOM     14  C   LIG    1        1.153   3.575   0.010  0.00  0.00    +0.010 A 
ATOM     15  C   LIG    1        1.178   2.195   0.003  0.00  0.00    +0.020 A 
ENDBRANCH   9  10
ENDBRANCH   3   5
BRANCH   1  16
ATOM     16  C   LIG    1       -3.127  -1.236   3.818  0.00  0.00    +0.240 C 
BRANCH  16  17
ATOM     17  C   LIG    1       -4.535  -1.006   3.265  0.00  0.00    -0.010 C 
ATOM     18  C   LIG    1       -5.025  -2.279   2.572  0.00  0.00    +0.010 C 
ATOM     19  C   LIG    1       -6.433  -2.049   2.019  0.00  0.00    +0.000 C 
ATOM     20  C   LIG    1       -6.402  -0.898   1.010  0.00  0.00    +0.000 C 
ATOM     21  C   LIG    1       -5.912   0.375   1.703  0.00  0.00    +0.000 C 
ATOM     22  C   LIG    1       -4.504   0.144   2.256  0.00  0.00    +0.030 C 
ENDBRANCH  16  17
BRANCH  16  23
ATOM     23  C   LIG    1       -3.157  -2.387   4.827  0.00  0.00    +0.280 C 
BRANCH  23  26
ATOM     24  O   LIG    1       -2.507  -4.308   6.602  0.00  0.00    -0.510 OA
ATOM     25  C   LIG    1       -1.574  -3.670   6.162  0.00  0.00    +0.500 C 
ATOM     26  N   LIG    1       -1.792  -2.686   5.267  0.00  0.00    -0.730 N 
ATOM     27  H   LIG    1       -1.046  -2.176   4.915  0.00  0.00    +0.400 HD
BRANCH  25  28
ATOM     28  C   LIG    1       -0.170  -3.978   6.614  0.00  0.00    +0.170 C 
ATOM     29 CL   LIG    1       -0.205  -5.334   7.803  0.00  0.00    -0.130 Cl
ENDBRANCH  25  28
ENDBRANCH  23  26
ENDBRANCH  16  23
ENDBRANCH   1  16
TORSDOF 7
