REMARK  Name = ZINCrg00000z8RRT.0
REMARK                            x       y       z     vdW  Elec       q    Type
REMARK                         _______ _______ _______ _____ _____    ______ ____
ROOT
ATOM      1  C   LIG    1        5.354   4.157  -0.574  0.00  0.00    +0.270 C 
ATOM      2  C   LIG    1        3.936   4.178   0.036  0.00  0.00    +0.180 C 
ATOM      3  N   LIG    1        3.520   5.603  -0.033  0.00  0.00    -0.500 NA
ATOM      4  C   LIG    1        4.750   6.359   0.312  0.00  0.00    +0.190 C 
ATOM      5  C   LIG    1        5.889   5.592  -0.392  0.00  0.00    +0.090 C 
ENDROOT
BRANCH   5   6
ATOM      6  C   LIG    1        7.127   5.586   0.468  0.00  0.00    +0.210 A 
ATOM      7  N   LIG    1        7.209   5.107   1.679  0.00  0.00    -0.480 NA
ATOM      8  C   LIG    1        8.459   5.272   2.136  0.00  0.00    +0.150 A 
ATOM      9  C   LIG    1        9.179   5.876   1.171  0.00  0.00    +0.130 A 
ATOM     10  N   LIG    1        8.336   6.070   0.111  0.00  0.00    -0.460 N 
ATOM     11  C   LIG    1        8.680   6.691  -1.171  0.00  0.00    +0.330 C 
ENDBRANCH   5   6
BRANCH   1  13
ATOM     12  C   LIG    1        5.347   2.524  -2.382  0.00  0.00    +0.510 C 
ATOM     13  N   LIG    1        5.290   3.814  -1.997  0.00  0.00    -0.720 N 
ATOM     14  H   LIG    1        5.207   4.516  -2.662  0.00  0.00    +0.400 HD
ATOM     15  O   LIG    1        5.450   1.647  -1.551  0.00  0.00    -0.510 OA
BRANCH  12  16
ATOM     16  C   LIG    1        5.282   2.171  -3.846  0.00  0.00    +0.200 C 
BRANCH  16  18
ATOM     17  C   LIG    1        5.306   0.309  -5.355  0.00  0.00    +0.200 C 
ATOM     18  O   LIG    1        5.360   0.752  -3.998  0.00  0.00    -0.370 OA
ENDBRANCH  16  18
ENDBRANCH  12  16
ENDBRANCH   1  13
BRANCH   3  19
ATOM     19  C   LIG    1        2.443   5.883   0.926  0.00  0.00    +0.250 C 
BRANCH  19  20
ATOM     20  C   LIG    1        1.150   5.301   0.414  0.00  0.00    -0.230 A 
ATOM     21  C   LIG    1        0.685   4.055   0.663  0.00  0.00    +0.230 A 
ATOM     22  N   LIG    1       -0.498   3.923   0.028  0.00  0.00    -0.350 N 
ATOM     23  N   LIG    1       -0.766   5.126  -0.639  0.00  0.00    -0.300 NA
ATOM     24  C   LIG    1        0.220   5.953  -0.401  0.00  0.00    +0.240 A 
BRANCH  22  25
ATOM     25  C   LIG    1       -1.349   2.730   0.028  0.00  0.00    +0.240 C 
ATOM     26  C   LIG    1       -0.959   1.695  -1.040  0.00  0.00    +0.030 C 
ATOM     27  C   LIG    1       -0.013   1.086   0.008  0.00  0.00    +0.010 C 
ATOM     28  C   LIG    1       -0.939   1.683   1.080  0.00  0.00    +0.050 C 
ENDBRANCH  22  25
ENDBRANCH  19  20
ENDBRANCH   3  19
TORSDOF 7
