REMARK  Name = ZINCrg000009DEId.0
REMARK                            x       y       z     vdW  Elec       q    Type
REMARK                         _______ _______ _______ _____ _____    ______ ____
ROOT
ATOM      1  N   LIG    1        6.985   5.251  -0.045  0.00  0.00    -0.520 N 
ATOM      2  H   LIG    1        7.552   4.464  -0.058  0.00  0.00    +0.430 HD
ATOM      3  C   LIG    1        5.644   5.116  -0.030  0.00  0.00    +0.600 C 
ATOM      4  O   LIG    1        4.933   6.103  -0.015  0.00  0.00    -0.540 OA
ENDROOT
BRANCH   3   5
ATOM      5  C   LIG    1        5.039   3.772  -0.034  0.00  0.00    -0.280 A 
ATOM      6  C   LIG    1        3.689   3.481  -0.020  0.00  0.00    +0.340 A 
ATOM      7  N   LIG    1        3.567   2.141  -0.030  0.00  0.00    -0.300 N 
ATOM      8  N   LIG    1        4.849   1.579  -0.043  0.00  0.00    -0.280 NA
ATOM      9  C   LIG    1        5.731   2.540  -0.052  0.00  0.00    +0.290 A 
BRANCH   7  10
ATOM     10  C   LIG    1        2.360   1.428  -0.021  0.00  0.00    +0.140 A 
ATOM     11  C   LIG    1        1.150   2.109  -0.002  0.00  0.00    +0.000 A 
ATOM     12  C   LIG    1       -0.037   1.404   0.006  0.00  0.00    +0.050 A 
ATOM     13  C   LIG    1       -0.022   0.021  -0.006  0.00  0.00    +0.010 A 
ATOM     14  C   LIG    1        1.181  -0.659  -0.025  0.00  0.00    +0.040 A 
ATOM     15  C   LIG    1        2.372   0.040  -0.033  0.00  0.00    +0.030 A 
ENDBRANCH   7  10
ENDBRANCH   3   5
BRANCH   1  17
ATOM     16  C   LIG    1        8.901   6.664  -0.057  0.00  0.00    +0.520 C 
ATOM     17  N   LIG    1        7.560   6.529  -0.042  0.00  0.00    -0.520 N 
ATOM     18  H   LIG    1        6.993   7.316  -0.029  0.00  0.00    +0.430 HD
ATOM     19  O   LIG    1        9.610   5.680  -0.072  0.00  0.00    -0.530 OA
BRANCH  16  24
ATOM     20  C   LIG    1       11.935  10.719  -2.017  0.00  0.00    +0.550 C 
ATOM     21  N   LIG    1       11.118  10.104  -1.138  0.00  0.00    -0.610 N 
ATOM     22  C   LIG    1       11.670   9.309  -0.033  0.00  0.00    +0.290 C 
ATOM     23  C   LIG    1       11.045   7.911  -0.071  0.00  0.00    +0.050 C 
ATOM     24  C   LIG    1        9.520   8.038  -0.053  0.00  0.00    +0.020 C 
ATOM     25  C   LIG    1        9.056   8.809  -1.292  0.00  0.00    +0.030 C 
ATOM     26  C   LIG    1        9.659  10.217  -1.267  0.00  0.00    +0.280 C 
ATOM     27  O   LIG    1       11.468  11.295  -2.981  0.00  0.00    -0.540 OA
BRANCH  20  29
ATOM     28  C   LIG    1       14.190  11.381  -2.620  0.00  0.00    +0.140 C 
ATOM     29  C   LIG    1       13.391  10.693  -1.810  0.00  0.00    -0.090 C 
ENDBRANCH  20  29
ENDBRANCH  16  24
ENDBRANCH   1  17
TORSDOF 5
