REMARK  Name = ZINCnE0000052Rau.0
REMARK                            x       y       z     vdW  Elec       q    Type
REMARK                         _______ _______ _______ _____ _____    ______ ____
ROOT
ATOM      1  O   LIG    1        1.026   1.964   0.003  0.00  0.00    -0.550 OA
ATOM      2  C   LIG    1       -0.016   1.344   0.009  0.00  0.00    +0.460 C 
ATOM      3  N   LIG    1        0.002  -0.004   0.002  0.00  0.00    -0.680 NA
ENDROOT
BRANCH   3   4
ATOM      4  C   LIG    1        1.216  -0.683  -0.013  0.00  0.00    +0.300 A 
ATOM      5  N   LIG    1        2.392  -0.131  -0.021  0.00  0.00    -0.370 NA
ATOM      6  N   LIG    1        3.397  -0.895  -0.034  0.00  0.00    -0.220 NA
ATOM      7  C   LIG    1        3.158  -2.168  -0.039  0.00  0.00    -0.080 A 
ATOM      8  S   LIG    1        1.408  -2.385  -0.017  0.00  0.00    -0.020 S 
BRANCH   7   9
ATOM      9  C   LIG    1        4.190  -3.266  -0.054  0.00  0.00    +0.090 C 
ATOM     10  C   LIG    1        5.077  -3.150   1.187  0.00  0.00    +0.020 C 
ATOM     11  C   LIG    1        6.124  -4.265   1.171  0.00  0.00    +0.000 C 
ATOM     12  C   LIG    1        6.987  -4.136  -0.085  0.00  0.00    +0.000 C 
ATOM     13  C   LIG    1        6.101  -4.252  -1.327  0.00  0.00    +0.000 C 
ATOM     14  C   LIG    1        5.053  -3.137  -1.311  0.00  0.00    +0.020 C 
ENDBRANCH   7   9
ENDBRANCH   3   4
BRANCH   2  15
ATOM     15  C   LIG    1       -1.331   2.079   0.020  0.00  0.00    +0.150 C 
BRANCH  15  16
ATOM     16  C   LIG    1       -1.076   3.564   0.026  0.00  0.00    +0.080 A 
ATOM     17  C   LIG    1       -1.559   4.449  -0.862  0.00  0.00    +0.120 A 
ATOM     18  N   LIG    1       -1.091   5.706  -0.495  0.00  0.00    -0.430 N 
ATOM     19  C   LIG    1       -1.179   7.011  -0.923  0.00  0.00    +0.220 A 
ATOM     20  C   LIG    1       -0.535   7.946  -0.247  0.00  0.00    -0.020 A 
ATOM     21  S   LIG    1        0.278   7.099   1.081  0.00  0.00    +0.140 S 
ATOM     22  C   LIG    1       -0.328   5.503   0.613  0.00  0.00    +0.150 A 
ATOM     23  N   LIG    1       -0.324   4.227   0.917  0.00  0.00    -0.410 NA
ENDBRANCH  15  16
ENDBRANCH   2  15
TORSDOF 4
