REMARK  Name = ZINCrH000004prfl.0
REMARK                            x       y       z     vdW  Elec       q    Type
REMARK                         _______ _______ _______ _____ _____    ______ ____
ROOT
ATOM      1  C   LIG    1       -1.649   2.959   0.297  0.00  0.00    -0.150 A 
ATOM      2  C   LIG    1       -2.027   4.298   0.183  0.00  0.00    +0.100 A 
ATOM      3  C   LIG    1       -3.357   4.625   0.020  0.00  0.00    +0.000 A 
ATOM      4  C   LIG    1       -4.317   3.630  -0.020  0.00  0.00    +0.150 A 
ATOM      5  C   LIG    1       -3.951   2.300   0.099  0.00  0.00    -0.680 A 
ATOM      6  C   LIG    1       -2.623   1.960   0.256  0.00  0.00    +0.190 A 
ENDROOT
BRANCH   1   9
ATOM      7  N   LIG    1        0.714   3.568   0.498  0.00  0.00    -0.720 N 
ATOM      8  H   LIG    1        0.454   4.499   0.415  0.00  0.00    +0.400 HD
ATOM      9  C   LIG    1       -0.225   2.601   0.465  0.00  0.00    +0.560 C 
ATOM     10  O   LIG    1        0.100   1.434   0.569  0.00  0.00    -0.530 OA
BRANCH   7  12
ATOM     11  C   LIG    1        2.727   2.879  -0.708  0.00  0.00    +0.040 C 
ATOM     12  C   LIG    1        2.126   3.213   0.659  0.00  0.00    +0.280 C 
BRANCH  12  13
ATOM     13  C   LIG    1        2.870   4.374   1.266  0.00  0.00    -0.090 A 
ATOM     14  C   LIG    1        2.586   5.665   0.859  0.00  0.00    +0.000 A 
ATOM     15  C   LIG    1        3.266   6.731   1.419  0.00  0.00    +0.010 A 
ATOM     16  C   LIG    1        4.235   6.505   2.378  0.00  0.00    +0.000 A 
ATOM     17  C   LIG    1        4.522   5.215   2.781  0.00  0.00    +0.020 A 
ATOM     18  C   LIG    1        3.840   4.149   2.225  0.00  0.00    +0.020 A 
ENDBRANCH  12  13
ENDBRANCH   7  12
ENDBRANCH   1   9
BRANCH   5  19
ATOM     19  S   LIG    1       -5.182   1.041   0.047  0.00  0.00    +2.690 S 
ATOM     20  O   LIG    1       -4.561  -0.104  -0.521  0.00  0.00    -0.950 OA
ATOM     21  O   LIG    1       -6.349   1.642  -0.496  0.00  0.00    -0.950 OA
BRANCH  19  22
ATOM     22  N   LIG    1       -5.545   0.647   1.614  0.00  0.00    -0.990 NA
ATOM     23  C   LIG    1       -4.966  -0.550   2.239  0.00  0.00    +0.280 C 
ATOM     24  C   LIG    1       -6.101  -1.407   2.808  0.00  0.00    +0.020 C 
ATOM     25  C   LIG    1       -6.953  -0.556   3.752  0.00  0.00    +0.010 C 
ATOM     26  C   LIG    1       -7.571   0.608   2.974  0.00  0.00    +0.020 C 
ATOM     27  C   LIG    1       -6.449   1.491   2.408  0.00  0.00    +0.230 C 
ATOM     28  C   LIG    1       -7.050   2.579   1.516  0.00  0.00    +0.040 C 
ENDBRANCH  19  22
ENDBRANCH   5  19
TORSDOF 5
