REMARK  Name = ZINCvU0000000GHi.0
REMARK                            x       y       z     vdW  Elec       q    Type
REMARK                         _______ _______ _______ _____ _____    ______ ____
ROOT
ATOM      1  C   LIG    1       -4.848   1.084   0.105  0.00  0.00    -0.030 C 
ATOM      2  C   LIG    1       -4.812   0.281  -1.197  0.00  0.00    +0.020 C 
ATOM      3  C   LIG    1       -5.925  -0.769  -1.182  0.00  0.00    +0.010 C 
ATOM      4  C   LIG    1       -7.283  -0.067  -1.084  0.00  0.00    +0.270 C 
ATOM      5  N   LIG    1       -7.274   0.820   0.088  0.00  0.00    -0.610 N 
ATOM      6  C   LIG    1       -8.237   0.729   1.026  0.00  0.00    +0.530 C 
ATOM      7  O   LIG    1       -8.218   1.466   1.988  0.00  0.00    -0.540 OA
ATOM      8  C   LIG    1       -6.194   1.807   0.218  0.00  0.00    +0.290 C 
ENDROOT
BRANCH   6   9
ATOM      9  C   LIG    1       -9.339  -0.289   0.878  0.00  0.00    -0.030 C 
ATOM     10  C   LIG    1      -10.464   0.154  -0.071  0.00  0.00    +0.040 C 
ATOM     11  C   LIG    1      -11.448  -0.475   0.931  0.00  0.00    -0.070 C 
ATOM     12  C   LIG    1      -11.733  -1.954   0.661  0.00  0.00    +0.040 C 
ATOM     13  C   LIG    1      -10.378  -0.240   2.010  0.00  0.00    +0.060 C 
BRANCH  11  14
ATOM     14  C   LIG    1      -12.722   0.346   1.142  0.00  0.00    -0.050 C 
ATOM     15  C   LIG    1      -13.418  -0.112   2.425  0.00  0.00    +0.030 C 
ATOM     16  C   LIG    1      -13.662   0.145  -0.048  0.00  0.00    +0.020 C 
ATOM     17  C   LIG    1      -12.359   1.828   1.261  0.00  0.00    +0.020 C 
ENDBRANCH  11  14
ENDBRANCH   6   9
BRANCH   1  18
ATOM     18  C   LIG    1       -3.714   2.112   0.103  0.00  0.00    +0.270 C 
BRANCH  18  19
ATOM     19  N   LIG    1       -2.425   1.417   0.111  0.00  0.00    -0.700 N 
ATOM     20  H   LIG    1       -2.397   0.447   0.117  0.00  0.00    +0.410 HD
BRANCH  19  29
ATOM     21  C   LIG    1        1.464  -2.039   0.327  0.00  0.00    +0.030 C 
ATOM     22  C   LIG    1        1.386  -0.529   0.554  0.00  0.00    -0.010 C 
ATOM     23  C   LIG    1        2.454   0.176  -0.291  0.00  0.00    +0.040 C 
ATOM     24  C   LIG    1        2.512   1.644   0.128  0.00  0.00    +0.110 C 
ATOM     25  C   LIG    1        1.135   2.250   0.116  0.00  0.00    +0.220 A 
ATOM     26  N   LIG    1        1.026   3.576   0.106  0.00  0.00    -0.550 NA
ATOM     27  C   LIG    1       -0.153   4.166   0.102  0.00  0.00    +0.410 A 
ATOM     28  N   LIG    1       -1.274   3.472   0.108  0.00  0.00    -0.570 NA
ATOM     29  C   LIG    1       -1.246   2.144   0.111  0.00  0.00    +0.460 A 
ATOM     30 CL   LIG    1       -0.231   5.900   0.087  0.00  0.00    +0.020 Cl
ATOM     31  C   LIG    1       -0.008   1.489   0.119  0.00  0.00    -0.240 A 
ATOM     32  C   LIG    1        0.012  -0.014   0.125  0.00  0.00    +0.090 C 
ENDBRANCH  19  29
ENDBRANCH  18  19
ENDBRANCH   1  18
TORSDOF 5
