REMARK  Name = ZINCrD0000072vKs.0
REMARK                            x       y       z     vdW  Elec       q    Type
REMARK                         _______ _______ _______ _____ _____    ______ ____
ROOT
ATOM      1  C   LIG    1       -5.971   2.154  -0.305  0.00  0.00    +0.560 C 
ATOM      2  N   LIG    1       -4.796   1.537  -0.070  0.00  0.00    -0.670 N 
ATOM      3  H   LIG    1       -4.767   0.573   0.031  0.00  0.00    +0.410 HD
ATOM      4  O   LIG    1       -6.021   3.368  -0.350  0.00  0.00    -0.510 OA
ENDROOT
BRANCH   1   7
ATOM      5  C   LIG    1       -9.556   1.244  -0.941  0.00  0.00    -0.120 A 
ATOM      6  C   LIG    1       -8.417   1.994  -0.747  0.00  0.00    +0.130 A 
ATOM      7  C   LIG    1       -7.197   1.356  -0.509  0.00  0.00    -0.150 A 
ATOM      8  C   LIG    1       -7.141  -0.038  -0.458  0.00  0.00    +0.090 A 
ATOM      9  C   LIG    1       -8.289  -0.778  -0.649  0.00  0.00    -0.010 A 
ATOM     10  C   LIG    1       -9.496  -0.141  -0.890  0.00  0.00    +0.160 A 
ATOM     11  F   LIG    1      -10.617  -0.871  -1.075  0.00  0.00    -0.120 F 
BRANCH   5  12
ATOM     12  C   LIG    1      -10.873   1.930  -1.203  0.00  0.00    +0.230 C 
BRANCH  12  14
ATOM     13  C   LIG    1      -12.598   2.240  -2.873  0.00  0.00    +0.190 C 
ATOM     14  N   LIG    1      -11.220   1.796  -2.624  0.00  0.00    -0.540 NA
ATOM     15  C   LIG    1      -10.269   2.529  -3.470  0.00  0.00    +0.190 C 
ENDBRANCH  12  14
ENDBRANCH   5  12
ENDBRANCH   1   7
BRANCH   2  16
ATOM     16  C   LIG    1       -3.619   2.287   0.027  0.00  0.00    +0.140 A 
ATOM     17  C   LIG    1       -2.422   1.766  -0.449  0.00  0.00    +0.010 A 
ATOM     18  C   LIG    1       -1.256   2.503  -0.354  0.00  0.00    +0.040 A 
ATOM     19  C   LIG    1       -1.274   3.763   0.208  0.00  0.00    +0.020 A 
ATOM     20  C   LIG    1       -2.471   4.293   0.694  0.00  0.00    -0.110 A 
ATOM     21  C   LIG    1       -3.647   3.550   0.599  0.00  0.00    +0.080 A 
BRANCH  20  22
ATOM     22  C   LIG    1       -2.492   5.640   1.303  0.00  0.00    +0.570 C 
ATOM     23  N   LIG    1       -1.484   6.032   2.108  0.00  0.00    -0.620 N 
ATOM     24  C   LIG    1       -0.367   5.188   2.554  0.00  0.00    +0.240 C 
ATOM     25  C   LIG    1        0.521   6.052   3.475  0.00  0.00    +0.030 C 
ATOM     26  C   LIG    1       -0.454   7.160   3.954  0.00  0.00    +0.040 C 
ATOM     27  C   LIG    1       -1.323   7.377   2.690  0.00  0.00    +0.250 C 
ATOM     28  O   LIG    1       -3.421   6.393   1.082  0.00  0.00    -0.520 OA
ENDBRANCH  20  22
ENDBRANCH   2  16
TORSDOF 5
