REMARK  Name = ZINCvU00000005jt.0
REMARK                            x       y       z     vdW  Elec       q    Type
REMARK                         _______ _______ _______ _____ _____    ______ ____
ROOT
ATOM      1  C   LIG    1        1.259   3.414   0.008  0.00  0.00    +0.350 C 
ENDROOT
BRANCH   1   4
ATOM      2  C   LIG    1        0.002  -0.004   0.002  0.00  0.00    +0.120 A 
ATOM      3  N   LIG    1       -0.016   1.298   0.009  0.00  0.00    -0.450 NA
ATOM      4  C   LIG    1        1.146   1.911   0.001  0.00  0.00    +0.060 A 
ATOM      5  C   LIG    1        2.223   1.119  -0.013  0.00  0.00    -0.030 A 
ATOM      6  S   LIG    1        1.675  -0.556  -0.017  0.00  0.00    +0.110 S 
BRANCH   2   9
ATOM      7  C   LIG    1       -2.157  -3.080   0.005  0.00  0.00    +0.110 A 
ATOM      8  C   LIG    1       -1.040  -2.266  -0.006  0.00  0.00    -0.030 A 
ATOM      9  C   LIG    1       -1.190  -0.878   0.009  0.00  0.00    +0.000 A 
ATOM     10  C   LIG    1       -2.468  -0.318   0.024  0.00  0.00    +0.050 A 
ATOM     11  C   LIG    1       -3.579  -1.135   0.030  0.00  0.00    +0.040 A 
ATOM     12  C   LIG    1       -3.430  -2.514   0.021  0.00  0.00    +0.100 A 
BRANCH   7  14
ATOM     13  C   LIG    1       -0.680  -4.943  -0.021  0.00  0.00    +0.250 C 
ATOM     14  O   LIG    1       -2.014  -4.432  -0.004  0.00  0.00    -0.300 OA
ENDBRANCH   7  14
BRANCH  12  15
ATOM     15  O   LIG    1       -4.529  -3.315   0.027  0.00  0.00    -0.480 OA
ATOM     16  H   LIG    1       -4.855  -3.542  -0.855  0.00  0.00    +0.390 HD
ENDBRANCH  12  15
ENDBRANCH   2   9
ENDBRANCH   1   4
BRANCH   1  17
ATOM     17  O   LIG    1        2.660   3.794  -0.004  0.00  0.00    -0.340 OA
BRANCH  17  18
ATOM     18  C   LIG    1        2.936   5.115   0.000  0.00  0.00    +0.560 C 
ATOM     19  O   LIG    1        2.030   5.925   0.013  0.00  0.00    -0.470 OA
BRANCH  18  20
ATOM     20  C   LIG    1        4.329   5.573  -0.011  0.00  0.00    -0.040 A 
ATOM     21  C   LIG    1        4.731   6.874  -0.014  0.00  0.00    +0.090 A 
ATOM     22  C   LIG    1        6.142   6.865  -0.022  0.00  0.00    -0.140 A 
ATOM     23  C   LIG    1        6.536   5.521  -0.034  0.00  0.00    +0.080 A 
ATOM     24  C   LIG    1        7.897   5.194  -0.049  0.00  0.00    +0.040 A 
ATOM     25  C   LIG    1        8.859   6.149  -0.053  0.00  0.00    +0.090 A 
ATOM     26  C   LIG    1        8.528   7.518  -0.042  0.00  0.00    -0.070 A 
ATOM     27  C   LIG    1        9.523   8.509  -0.047  0.00  0.00    +0.040 A 
ATOM     28  C   LIG    1        9.166   9.824  -0.036  0.00  0.00    +0.010 A 
ATOM     29  C   LIG    1        7.827  10.202  -0.021  0.00  0.00    +0.030 A 
ATOM     30  C   LIG    1        6.836   9.264  -0.015  0.00  0.00    +0.020 A 
ATOM     31  C   LIG    1        7.167   7.906  -0.027  0.00  0.00    +0.000 A 
ATOM     32  O   LIG    1        5.415   4.771  -0.026  0.00  0.00    -0.150 OA
ENDBRANCH  18  20
ENDBRANCH  17  18
ENDBRANCH   1  17
TORSDOF 7
