REMARK  Name = ZINCqH0000000kas.0
REMARK                            x       y       z     vdW  Elec       q    Type
REMARK                         _______ _______ _______ _____ _____    ______ ____
ROOT
ATOM      1  N   LIG    1        1.090  -1.580  -1.894  0.00  0.00    -0.520 N 
ATOM      2  C   LIG    1        1.744  -1.848  -3.048  0.00  0.00    +0.560 A 
ATOM      3  C   LIG    1        2.189  -0.707  -3.858  0.00  0.00    -0.200 A 
ATOM      4  C   LIG    1        2.870  -0.880  -5.062  0.00  0.00    +0.130 A 
ATOM      5  C   LIG    1        3.264   0.214  -5.781  0.00  0.00    +0.020 A 
ATOM      6  C   LIG    1        2.994   1.499  -5.324  0.00  0.00    +0.010 A 
ATOM      7  C   LIG    1        2.323   1.699  -4.138  0.00  0.00    +0.040 A 
ATOM      8 CL   LIG    1        3.508   2.867  -6.260  0.00  0.00    -0.050 Cl
ATOM      9  C   LIG    1        1.909   0.596  -3.385  0.00  0.00    +0.180 A 
ATOM     10  N   LIG    1        1.242   0.745  -2.217  0.00  0.00    -0.540 NA
ATOM     11  O   LIG    1        1.955  -2.994  -3.402  0.00  0.00    -0.490 OA
ATOM     12  C   LIG    1        0.859  -0.290  -1.510  0.00  0.00    +0.360 A 
ENDROOT
BRANCH   1  13
ATOM     13  C   LIG    1        0.624  -2.683  -1.050  0.00  0.00    +0.340 C 
BRANCH  13  15
ATOM     14  C   LIG    1       -1.036  -4.316  -1.784  0.00  0.00    +0.070 C 
ATOM     15  C   LIG    1       -0.772  -3.075  -1.459  0.00  0.00    -0.070 C 
ENDBRANCH  13  15
ENDBRANCH   1  13
BRANCH  12  16
ATOM     16  S   LIG    1        0.002  -0.004   0.002  0.00  0.00    +0.100 S 
BRANCH  16  17
ATOM     17  C   LIG    1       -0.022   1.806   0.012  0.00  0.00    +0.130 C 
BRANCH  17  18
ATOM     18  C   LIG    1       -0.728   2.292   1.252  0.00  0.00    +0.530 C 
ATOM     19  N   LIG    1       -0.867   3.614   1.474  0.00  0.00    -0.610 N 
ATOM     20  H   LIG    1       -0.513   4.253   0.835  0.00  0.00    +0.430 HD
ATOM     21  O   LIG    1       -1.170   1.493   2.050  0.00  0.00    -0.490 OA
BRANCH  19  22
ATOM     22  C   LIG    1       -1.518   4.062   2.617  0.00  0.00    +0.240 A 
ATOM     23  N   LIG    1       -1.704   5.307   2.925  0.00  0.00    -0.510 NA
ATOM     24  C   LIG    1       -2.344   5.554   4.053  0.00  0.00    +0.090 A 
ATOM     25  C   LIG    1       -2.715   4.466   4.730  0.00  0.00    -0.130 A 
ATOM     26  C   LIG    1       -2.632   6.952   4.537  0.00  0.00    +0.160 C 
ATOM     27  S   LIG    1       -2.194   3.051   3.819  0.00  0.00    +0.250 S 
ENDBRANCH  19  22
ENDBRANCH  17  18
ENDBRANCH  16  17
ENDBRANCH  12  16
TORSDOF 6
