REMARK  Name = ZINCrg000000sROz.2
REMARK                            x       y       z     vdW  Elec       q    Type
REMARK                         _______ _______ _______ _____ _____    ______ ____
ROOT
ATOM      1  C   LIG    1        0.158  -2.389   1.225  0.00  0.00    +0.200 C 
ENDROOT
BRANCH   1   2
ATOM      2  N   LIG    1        0.883  -1.111   1.198  0.00  0.00    -0.500 NA
ATOM      3  C   LIG    1        2.326  -1.328   1.035  0.00  0.00    +0.180 C 
ATOM      4  C   LIG    1        3.061   0.008   1.157  0.00  0.00    +0.020 C 
ATOM      5  C   LIG    1        2.545   0.969   0.082  0.00  0.00    +0.010 C 
ATOM      6  C   LIG    1        1.032   1.140   0.244  0.00  0.00    +0.040 C 
ATOM      7  C   LIG    1        0.356  -0.230   0.148  0.00  0.00    +0.160 C 
BRANCH   7   8
ATOM      8  C   LIG    1       -1.132  -0.069   0.328  0.00  0.00    +0.520 C 
ATOM      9  N   LIG    1       -1.904   0.270  -0.723  0.00  0.00    -0.620 N 
ATOM     10  C   LIG    1       -1.307   0.602  -2.027  0.00  0.00    +0.250 C 
ATOM     11  C   LIG    1       -2.021  -0.228  -3.106  0.00  0.00    +0.220 C 
ATOM     12  O   LIG    1       -3.432  -0.036  -2.988  0.00  0.00    -0.380 OA
ATOM     13  C   LIG    1       -3.982  -0.486  -1.747  0.00  0.00    +0.210 C 
ATOM     14  C   LIG    1       -3.369   0.325  -0.600  0.00  0.00    +0.260 C 
ATOM     15  O   LIG    1       -1.634  -0.244   1.418  0.00  0.00    -0.520 OA
ENDBRANCH   7   8
ENDBRANCH   1   2
BRANCH   1  16
ATOM     16  C   LIG    1        0.595  -3.248   0.036  0.00  0.00    +0.190 C 
BRANCH  16  17
ATOM     17  O   LIG    1        0.176  -2.627  -1.180  0.00  0.00    -0.550 OA
ATOM     18  H   LIG    1       -0.780  -2.507  -1.252  0.00  0.00    +0.370 HD
ENDBRANCH  16  17
BRANCH  16  19
ATOM     19  C   LIG    1       -0.043  -4.634   0.147  0.00  0.00    +0.180 C 
BRANCH  19  20
ATOM     20  O   LIG    1        0.455  -5.473  -0.897  0.00  0.00    -0.300 OA
BRANCH  20  24
ATOM     21  C   LIG    1       -0.973  -9.344  -1.034  0.00  0.00    -0.070 A 
ATOM     22  C   LIG    1       -0.044  -8.906  -1.982  0.00  0.00    +0.110 A 
ATOM     23  C   LIG    1        0.430  -7.614  -1.933  0.00  0.00    -0.010 A 
ATOM     24  C   LIG    1       -0.014  -6.746  -0.942  0.00  0.00    +0.160 A 
ATOM     25  C   LIG    1       -0.933  -7.179   0.006  0.00  0.00    -0.070 A 
ATOM     26  C   LIG    1       -1.417  -8.468  -0.040  0.00  0.00    +0.110 A 
BRANCH  21  28
ATOM     27  N   LIG    1       -1.862 -11.752  -1.121  0.00  0.00    -0.420 NA
ATOM     28  C   LIG    1       -1.469 -10.687  -1.083  0.00  0.00    +0.250 C 
ENDBRANCH  21  28
ENDBRANCH  20  24
ENDBRANCH  19  20
ENDBRANCH  16  19
ENDBRANCH   1  16
TORSDOF 8
