REMARK  Name = ZINCqH0000051BOF.0
REMARK                            x       y       z     vdW  Elec       q    Type
REMARK                         _______ _______ _______ _____ _____    ______ ____
ROOT
ATOM      1  O   LIG    1       -0.234   1.499   5.949  0.00  0.00    -0.500 OA
ATOM      2  C   LIG    1       -0.663   2.472   5.357  0.00  0.00    +0.590 C 
ATOM      3  N   LIG    1       -1.846   3.010   5.715  0.00  0.00    -0.620 N 
ATOM      4  C   LIG    1       -2.455   4.093   4.927  0.00  0.00    +0.250 C 
ATOM      5  C   LIG    1       -3.908   3.712   4.622  0.00  0.00    +0.230 C 
ATOM      6  O   LIG    1       -4.569   3.365   5.841  0.00  0.00    -0.360 OA
ATOM      7  C   LIG    1       -4.014   2.227   6.505  0.00  0.00    +0.230 C 
ATOM      8  C   LIG    1       -2.569   2.529   6.903  0.00  0.00    +0.310 C 
ENDROOT
BRANCH   2   9
ATOM      9  C   LIG    1        0.105   3.058   4.254  0.00  0.00    -0.060 A 
ATOM     10  C   LIG    1        1.071   2.418   3.503  0.00  0.00    +0.060 A 
ATOM     11  C   LIG    1        1.540   3.341   2.572  0.00  0.00    -0.170 A 
ATOM     12  C   LIG    1        0.869   4.508   2.761  0.00  0.00    +0.050 A 
ATOM     13  C   LIG    1        1.100   5.755   1.941  0.00  0.00    +0.110 C 
ATOM     14  C   LIG    1        2.439   5.610   1.207  0.00  0.00    +0.030 C 
ATOM     15  C   LIG    1        2.483   4.260   0.485  0.00  0.00    +0.010 C 
ATOM     16  C   LIG    1        2.599   3.132   1.518  0.00  0.00    +0.090 C 
ATOM     17  N   LIG    1       -0.005   4.347   3.779  0.00  0.00    -0.540 N 
ATOM     18  H   LIG    1       -0.609   5.025   4.120  0.00  0.00    +0.420 HD
ENDBRANCH   2   9
BRANCH   8  19
ATOM     19  C   LIG    1       -1.915   1.274   7.421  0.00  0.00    +0.120 A 
ATOM     20  N   LIG    1       -1.215   1.217   8.491  0.00  0.00    -0.460 NA
ATOM     21  C   LIG    1       -0.689   0.026   8.835  0.00  0.00    +0.090 A 
ATOM     22  C   LIG    1        0.109  -0.319   9.945  0.00  0.00    +0.060 A 
ATOM     23  C   LIG    1        0.543  -1.599  10.111  0.00  0.00    +0.020 A 
ATOM     24  C   LIG    1        0.211  -2.586   9.194  0.00  0.00    +0.030 A 
ATOM     25  C   LIG    1       -0.567  -2.278   8.101  0.00  0.00    +0.060 A 
ATOM     26  C   LIG    1       -1.020  -0.975   7.914  0.00  0.00    -0.170 A 
ATOM     27  S   LIG    1       -2.019  -0.249   6.659  0.00  0.00    +0.130 S 
ENDBRANCH   8  19
TORSDOF 2
