REMARK  Name = ZINCpk000000Hlmv.0
REMARK                            x       y       z     vdW  Elec       q    Type
REMARK                         _______ _______ _______ _____ _____    ______ ____
ROOT
ATOM      1  N   LIG    1       -4.993  -0.558   1.540  0.00  0.00    -0.520 NA
ATOM      2  C   LIG    1       -4.298  -1.435   0.588  0.00  0.00    +0.200 C 
ATOM      3  C   LIG    1       -2.883  -1.718   1.100  0.00  0.00    +0.230 C 
ATOM      4  N   LIG    1       -2.162  -0.449   1.266  0.00  0.00    -0.470 N 
ATOM      5  C   LIG    1       -2.857   0.428   2.219  0.00  0.00    +0.220 C 
ATOM      6  C   LIG    1       -4.272   0.712   1.707  0.00  0.00    +0.200 C 
ENDROOT
BRANCH   4   7
ATOM      7  C   LIG    1       -0.854  -0.670   1.660  0.00  0.00    +0.410 A 
ATOM      8  C   LIG    1        0.022   0.404   1.880  0.00  0.00    -0.220 A 
ATOM      9  C   LIG    1       -0.082   1.859   1.795  0.00  0.00    -0.020 A 
ATOM     10  C   LIG    1        1.121   2.354   2.132  0.00  0.00    +0.230 A 
ATOM     11  N   LIG    1        1.981   1.327   2.424  0.00  0.00    -0.570 N 
ATOM     12  H   LIG    1        2.906   1.437   2.693  0.00  0.00    +0.420 HD
ATOM     13  C   LIG    1        1.342   0.126   2.280  0.00  0.00    +0.330 A 
ATOM     14  N   LIG    1        1.707  -1.145   2.434  0.00  0.00    -0.550 NA
ATOM     15  C   LIG    1        0.851  -2.121   2.217  0.00  0.00    +0.540 A 
ATOM     16  N   LIG    1       -0.396  -1.905   1.841  0.00  0.00    -0.580 NA
ENDBRANCH   4   7
BRANCH   1  18
ATOM     17  C   LIG    1       -6.411   0.052  -0.361  0.00  0.00    +0.030 C 
ATOM     18  C   LIG    1       -6.382  -0.323   1.122  0.00  0.00    +0.160 C 
BRANCH  18  19
ATOM     19  C   LIG    1       -7.191  -1.576   1.340  0.00  0.00    +0.520 C 
ATOM     20  N   LIG    1       -8.537  -1.526   1.291  0.00  0.00    -0.730 N 
ATOM     21  H   LIG    1       -8.985  -0.684   1.115  0.00  0.00    +0.400 HD
ATOM     22  O   LIG    1       -6.630  -2.629   1.560  0.00  0.00    -0.520 OA
BRANCH  20  23
ATOM     23  C   LIG    1       -9.323  -2.744   1.502  0.00  0.00    +0.230 C 
ATOM     24  C   LIG    1       -9.503  -3.495   0.167  0.00  0.00    +0.010 C 
ATOM     25  C   LIG    1      -10.943  -4.062   0.243  0.00  0.00    +0.010 C 
ATOM     26  C   LIG    1      -11.723  -2.924   0.945  0.00  0.00    +0.020 C 
ATOM     27  C   LIG    1      -10.734  -2.381   1.997  0.00  0.00    +0.020 C 
ENDBRANCH  20  23
ENDBRANCH  18  19
ENDBRANCH   1  18
TORSDOF 4
