REMARK  Name = ZINCpe000000YBbw.0
REMARK                            x       y       z     vdW  Elec       q    Type
REMARK                         _______ _______ _______ _____ _____    ______ ____
ROOT
ATOM      1  C   LIG    1        2.834  -4.519   3.330  0.00  0.00    +0.510 C 
ATOM      2  O   LIG    1        3.920  -4.750   3.825  0.00  0.00    -0.510 OA
ENDROOT
BRANCH   1   6
ATOM      3  C   LIG    1       -0.715  -5.513   5.438  0.00  0.00    +0.200 A 
ATOM      4  C   LIG    1        0.528  -5.779   6.006  0.00  0.00    +0.010 A 
ATOM      5  C   LIG    1        1.680  -5.458   5.325  0.00  0.00    +0.110 A 
ATOM      6  C   LIG    1        1.602  -4.865   4.062  0.00  0.00    -0.150 A 
ATOM      7  C   LIG    1        0.352  -4.595   3.496  0.00  0.00    +0.120 A 
ATOM      8  C   LIG    1       -0.796  -4.922   4.181  0.00  0.00    -0.020 A 
BRANCH   3  13
ATOM      9  N   LIG    1       -2.998  -6.175   8.152  0.00  0.00    -0.860 N 
ATOM     10  H   LIG    1       -3.019  -6.117   9.120  0.00  0.00    +0.420 HD
ATOM     11  H   LIG    1       -3.760  -6.533   7.671  0.00  0.00    +0.400 HD
ATOM     12  C   LIG    1       -1.909  -5.758   7.476  0.00  0.00    +0.700 C 
ATOM     13  N   LIG    1       -1.880  -5.839   6.130  0.00  0.00    -0.680 N 
ATOM     14  H   LIG    1       -2.669  -6.124   5.644  0.00  0.00    +0.410 HD
ATOM     15  O   LIG    1       -0.954  -5.310   8.079  0.00  0.00    -0.570 OA
ENDBRANCH   3  13
ENDBRANCH   1   6
BRANCH   1  16
ATOM     16  O   LIG    1        2.757  -3.947   2.112  0.00  0.00    -0.340 OA
BRANCH  16  17
ATOM     17  C   LIG    1        4.010  -3.634   1.450  0.00  0.00    +0.230 C 
BRANCH  17  18
ATOM     18  C   LIG    1        3.723  -2.996   0.089  0.00  0.00    +0.390 C 
BRANCH  18  19
ATOM     19  N   LIG    1        3.056  -1.706   0.286  0.00  0.00    -0.430 N 
ATOM     20  N   LIG    1        1.673  -1.493   0.368  0.00  0.00    -0.270 NA
ATOM     21  C   LIG    1        1.473  -0.208   0.547  0.00  0.00    +0.290 A 
ATOM     22  C   LIG    1        0.288   0.556   0.695  0.00  0.00    +0.040 A 
ATOM     23  C   LIG    1        0.380   1.897   0.869  0.00  0.00    +0.110 A 
ATOM     24  C   LIG    1        1.647   2.515   0.901  0.00  0.00    -0.020 A 
ATOM     25  C   LIG    1        2.768   1.786   0.760  0.00  0.00    +0.300 A 
ATOM     26  N   LIG    1        2.702   0.424   0.582  0.00  0.00    -0.480 N 
ATOM     27  C   LIG    1        3.662  -0.509   0.421  0.00  0.00    +0.640 A 
ATOM     28  O   LIG    1        4.863  -0.306   0.401  0.00  0.00    -0.540 OA
ENDBRANCH  18  19
ENDBRANCH  17  18
ENDBRANCH  16  17
ENDBRANCH   1  16
TORSDOF 6
