REMARK  Name = ZINCpk00000y6vnw.0
REMARK                            x       y       z     vdW  Elec       q    Type
REMARK                         _______ _______ _______ _____ _____    ______ ____
ROOT
ATOM      1  C   LIG    1       -3.428   2.838  -0.051  0.00  0.00    +0.290 C 
ATOM      2  N   LIG    1       -3.097   4.265  -0.046  0.00  0.00    -0.600 N 
ATOM      3  C   LIG    1       -1.815   4.659   0.088  0.00  0.00    +0.570 C 
ATOM      4  O   LIG    1       -1.549   5.843   0.174  0.00  0.00    -0.520 OA
ENDROOT
BRANCH   3   5
ATOM      5  C   LIG    1       -0.735   3.655   0.132  0.00  0.00    -0.170 A 
ATOM      6  C   LIG    1        0.398   3.810  -0.681  0.00  0.00    +0.170 A 
ATOM      7  C   LIG    1        1.411   2.877  -0.646  0.00  0.00    +0.000 A 
ATOM      8  C   LIG    1        1.312   1.776   0.197  0.00  0.00    +0.090 A 
ATOM      9  N   LIG    1        2.130   0.698   0.457  0.00  0.00    -0.600 N 
ATOM     10  H   LIG    1        2.992   0.519   0.050  0.00  0.00    +0.430 HD
ATOM     11  C   LIG    1        1.505  -0.071   1.392  0.00  0.00    +0.490 A 
ATOM     12  N   LIG    1        0.365   0.462   1.720  0.00  0.00    -0.480 NA
ATOM     13  C   LIG    1        0.180   1.611   1.017  0.00  0.00    +0.030 A 
ATOM     14  F   LIG    1        0.497   4.879  -1.502  0.00  0.00    -0.120 F 
ATOM     15  C   LIG    1       -0.840   2.558   0.983  0.00  0.00    +0.150 A 
ENDBRANCH   3   5
BRANCH   2  16
ATOM     16  C   LIG    1       -4.160   5.264  -0.186  0.00  0.00    +0.320 C 
BRANCH  16  17
ATOM     17  C   LIG    1       -4.370   5.580  -1.668  0.00  0.00    +0.160 C 
ATOM     18  O   LIG    1       -4.925   4.436  -2.352  0.00  0.00    -0.360 OA
ATOM     19  C   LIG    1       -5.532   4.968  -3.551  0.00  0.00    +0.210 C 
ATOM     20  C   LIG    1       -6.209   6.283  -3.103  0.00  0.00    +0.020 C 
ATOM     21  C   LIG    1       -5.426   6.695  -1.835  0.00  0.00    +0.100 C 
BRANCH  21  22
ATOM     22  C   LIG    1       -6.341   6.740  -0.638  0.00  0.00    +0.190 A 
ATOM     23  N   LIG    1       -6.212   7.514   0.405  0.00  0.00    -0.280 NA
ATOM     24  N   LIG    1       -7.169   7.288   1.233  0.00  0.00    -0.290 NA
ATOM     25  C   LIG    1       -7.953   6.359   0.755  0.00  0.00    +0.380 A 
ATOM     26  N   LIG    1       -7.452   5.989  -0.448  0.00  0.00    -0.580 N 
ATOM     27  H   LIG    1       -7.814   5.320  -1.050  0.00  0.00    +0.430 HD
ENDBRANCH  21  22
ENDBRANCH  16  17
ENDBRANCH   2  16
TORSDOF 4
