REMARK  Name = ZINCpk00000y6vnw.1
REMARK                            x       y       z     vdW  Elec       q    Type
REMARK                         _______ _______ _______ _____ _____    ______ ____
ROOT
ATOM      1  C   LIG    1        1.512   5.479  -0.086  0.00  0.00    +0.300 C 
ATOM      2  N   LIG    1        2.968   5.646  -0.099  0.00  0.00    -0.600 N 
ATOM      3  C   LIG    1        3.770   4.571   0.032  0.00  0.00    +0.560 C 
ATOM      4  O   LIG    1        4.975   4.717   0.101  0.00  0.00    -0.520 OA
ENDROOT
BRANCH   3   5
ATOM      5  C   LIG    1        3.186   3.217   0.090  0.00  0.00    -0.170 A 
ATOM      6  C   LIG    1        3.698   2.198  -0.728  0.00  0.00    +0.170 A 
ATOM      7  C   LIG    1        3.159   0.932  -0.678  0.00  0.00    -0.010 A 
ATOM      8  C   LIG    1        2.103   0.659   0.182  0.00  0.00    +0.090 A 
ATOM      9  N   LIG    1        1.364  -0.471   0.458  0.00  0.00    -0.600 N 
ATOM     10  H   LIG    1        1.477  -1.344   0.052  0.00  0.00    +0.430 HD
ATOM     11  C   LIG    1        0.445  -0.135   1.405  0.00  0.00    +0.490 A 
ATOM     12  N   LIG    1        0.571   1.118   1.727  0.00  0.00    -0.480 NA
ATOM     13  C   LIG    1        1.581   1.674   1.007  0.00  0.00    +0.030 A 
ATOM     14  F   LIG    1        4.725   2.460  -1.567  0.00  0.00    -0.120 F 
ATOM     15  C   LIG    1        2.129   2.954   0.956  0.00  0.00    +0.150 A 
ENDBRANCH   3   5
BRANCH   2  16
ATOM     16  C   LIG    1        3.551   6.981  -0.254  0.00  0.00    +0.310 C 
BRANCH  16  17
ATOM     17  C   LIG    1        3.760   7.277  -1.740  0.00  0.00    +0.160 C 
ATOM     18  O   LIG    1        2.488   7.451  -2.402  0.00  0.00    -0.360 OA
ATOM     19  C   LIG    1        2.785   8.189  -3.608  0.00  0.00    +0.210 C 
ATOM     20  C   LIG    1        3.833   9.241  -3.180  0.00  0.00    +0.020 C 
ATOM     21  C   LIG    1        4.489   8.627  -1.923  0.00  0.00    +0.080 C 
BRANCH  21  22
ATOM     22  C   LIG    1        4.269   9.511  -0.723  0.00  0.00    +0.240 A 
ATOM     23  N   LIG    1        5.208   9.985   0.054  0.00  0.00    -0.310 NA
ATOM     24  N   LIG    1        4.569  10.755   1.040  0.00  0.00    -0.480 N 
ATOM     25  H   LIG    1        4.993  11.238   1.766  0.00  0.00    +0.440 HD
ATOM     26  C   LIG    1        3.252  10.688   0.777  0.00  0.00    +0.480 A 
ATOM     27  N   LIG    1        3.087   9.944  -0.286  0.00  0.00    -0.530 NA
ENDBRANCH  21  22
ENDBRANCH  16  17
ENDBRANCH   2  16
TORSDOF 4
