REMARK  Name = ZINCvU000000043E.0
REMARK                            x       y       z     vdW  Elec       q    Type
REMARK                         _______ _______ _______ _____ _____    ______ ____
ROOT
ATOM      1  C   LIG    1        3.743  -0.964   0.178  0.00  0.00    +0.250 C 
ENDROOT
BRANCH   1   2
ATOM      2  C   LIG    1        4.427  -0.592   1.468  0.00  0.00    -0.130 A 
ATOM      3  C   LIG    1        4.116  -1.264   2.635  0.00  0.00    +0.040 A 
ATOM      4  C   LIG    1        4.746  -0.925   3.817  0.00  0.00    +0.010 A 
ATOM      5  C   LIG    1        5.683   0.091   3.834  0.00  0.00    +0.030 A 
ATOM      6  C   LIG    1        5.991   0.767   2.668  0.00  0.00    +0.010 A 
ATOM      7  C   LIG    1        5.363   0.425   1.485  0.00  0.00    +0.030 A 
ENDBRANCH   1   2
BRANCH   1   8
ATOM      8  C   LIG    1        2.426  -0.239   0.080  0.00  0.00    +0.530 C 
ATOM      9  N   LIG    1        2.402   1.105  -0.015  0.00  0.00    -0.660 N 
ATOM     10  H   LIG    1        3.233   1.601  -0.088  0.00  0.00    +0.420 HD
ATOM     11  O   LIG    1        1.387  -0.864   0.087  0.00  0.00    -0.480 OA
BRANCH   9  12
ATOM     12  C   LIG    1        1.179   1.786  -0.007  0.00  0.00    +0.150 A 
ATOM     13  C   LIG    1        1.080   3.030   0.602  0.00  0.00    +0.080 A 
ATOM     14  C   LIG    1       -0.130   3.697   0.612  0.00  0.00    +0.070 A 
ATOM     15  C   LIG    1       -1.238   3.133   0.006  0.00  0.00    -0.000 A 
ATOM     16  C   LIG    1       -1.141   1.893  -0.602  0.00  0.00    -0.020 A 
ATOM     17 CL   LIG    1       -2.755   3.978   0.014  0.00  0.00    -0.000 Cl
ATOM     18  C   LIG    1        0.064   1.219  -0.610  0.00  0.00    +0.130 A 
BRANCH  16  19
ATOM     19  N   LIG    1       -2.330   1.290  -1.244  0.00  0.00    +0.020 N 
ATOM     20  O   LIG    1       -3.394   1.884  -1.237  0.00  0.00    -0.130 OA
ATOM     21  O   LIG    1       -2.246   0.199  -1.779  0.00  0.00    -0.150 OA
ENDBRANCH  16  19
ENDBRANCH   9  12
ENDBRANCH   1   8
BRANCH   1  22
ATOM     22  O   LIG    1        3.510  -2.397   0.150  0.00  0.00    -0.310 OA
BRANCH  22  24
ATOM     23  O   LIG    1        5.495  -2.651  -0.811  0.00  0.00    -0.470 OA
ATOM     24  C   LIG    1        4.481  -3.165  -0.382  0.00  0.00    +0.520 C 
BRANCH  24  25
ATOM     25  C   LIG    1        4.313  -4.628  -0.444  0.00  0.00    -0.180 A 
ATOM     26  C   LIG    1        3.713  -5.221  -1.561  0.00  0.00    +0.170 A 
ATOM     27  C   LIG    1        3.565  -6.595  -1.613  0.00  0.00    +0.000 A 
ATOM     28  C   LIG    1        3.997  -7.381  -0.560  0.00  0.00    +0.130 A 
ATOM     29  C   LIG    1        4.585  -6.803   0.550  0.00  0.00    +0.000 A 
ATOM     30  F   LIG    1        3.286  -4.455  -2.588  0.00  0.00    -0.120 F 
ATOM     31  C   LIG    1        4.746  -5.432   0.617  0.00  0.00    +0.170 A 
ATOM     32  F   LIG    1        5.322  -4.869   1.702  0.00  0.00    -0.120 F 
ENDBRANCH  24  25
ENDBRANCH  22  24
ENDBRANCH   1  22
TORSDOF 7
