REMARK  Name = ZINCkj00000GeSoD.0
REMARK                            x       y       z     vdW  Elec       q    Type
REMARK                         _______ _______ _______ _____ _____    ______ ____
ROOT
ATOM      1  N   LIG    1        0.740   4.304  -1.117  0.00  0.00    -0.500 N 
ATOM      2  H   LIG    1       -0.202   3.950  -1.196  0.00  0.00    +0.430 HD
ATOM      3  H   LIG    1        1.319   3.881  -1.827  0.00  0.00    +0.430 HD
ENDROOT
BRANCH   1   4
ATOM      4  C   LIG    1        0.732   5.762  -1.296  0.00  0.00    +0.280 C 
BRANCH   4   5
ATOM      5  C   LIG    1        0.271   6.098  -2.716  0.00  0.00    +0.080 C 
ATOM      6  C   LIG    1        1.330   5.638  -3.739  0.00  0.00    +0.040 C 
ATOM      7  C   LIG    1        1.315   6.742  -4.825  0.00  0.00    +0.030 C 
ATOM      8  C   LIG    1        1.119   8.035  -3.995  0.00  0.00    +0.020 C 
ATOM      9  C   LIG    1        0.136   7.622  -2.879  0.00  0.00    +0.010 C 
BRANCH   5  11
ATOM     10  C   LIG    1       -2.049   5.896  -2.051  0.00  0.00    +0.200 C 
ATOM     11  N   LIG    1       -1.016   5.447  -2.995  0.00  0.00    -0.550 NA
ATOM     12  C   LIG    1       -1.434   5.680  -4.383  0.00  0.00    +0.220 C 
ENDBRANCH   5  11
ENDBRANCH   4   5
ENDBRANCH   1   4
BRANCH   1  13
ATOM     13  C   LIG    1        1.276   3.977   0.211  0.00  0.00    +0.280 C 
BRANCH  13  14
ATOM     14  C   LIG    1        1.284   2.458   0.398  0.00  0.00    -0.040 C 
ATOM     15  C   LIG    1       -0.158   1.938   0.402  0.00  0.00    +0.270 C 
ATOM     16  N   LIG    1       -0.124   0.466   0.512  0.00  0.00    -0.730 N 
ATOM     17  H   LIG    1       -0.698  -0.103  -0.025  0.00  0.00    +0.430 HD
ATOM     18  C   LIG    1        0.783  -0.060   1.436  0.00  0.00    +0.340 A 
ATOM     19  C   LIG    1        0.884  -1.317   1.920  0.00  0.00    -0.160 A 
ATOM     20  C   LIG    1        1.955  -1.338   2.823  0.00  0.00    +0.270 A 
ATOM     21  N   LIG    1        2.475  -0.136   2.876  0.00  0.00    -0.290 NA
ATOM     22  N   LIG    1        1.758   0.690   2.011  0.00  0.00    -0.410 N 
ATOM     23  C   LIG    1        1.967   2.112   1.726  0.00  0.00    +0.350 C 
ENDBRANCH  13  14
ENDBRANCH   1  13
TORSDOF 5
