REMARK  Name = ZINCpe00000gMdm3.0
REMARK                            x       y       z     vdW  Elec       q    Type
REMARK                         _______ _______ _______ _____ _____    ______ ____
ROOT
ATOM      1  C   LIG    1       -5.277   0.313  -0.186  0.00  0.00    +0.040 C 
ATOM      2  C   LIG    1       -5.155  -0.703  -1.323  0.00  0.00    +0.090 C 
ENDROOT
BRANCH   1   3
ATOM      3  C   LIG    1       -6.618   0.997  -0.265  0.00  0.00    +0.490 C 
ATOM      4  O   LIG    1       -6.723   2.056  -0.836  0.00  0.00    -0.480 OA
BRANCH   3   5
ATOM      5  O   LIG    1       -7.695   0.429   0.299  0.00  0.00    -0.330 OA
BRANCH   5   6
ATOM      6  C   LIG    1       -8.954   1.143   0.183  0.00  0.00    +0.270 C 
BRANCH   6  13
ATOM      7  C   LIG    1      -14.596  -0.157   2.196  0.00  0.00    +0.300 C 
ATOM      8  N   LIG    1      -13.538   0.605   1.527  0.00  0.00    -0.740 N 
ATOM      9  H   LIG    1      -13.746   1.450   1.100  0.00  0.00    +0.400 HD
ATOM     10  C   LIG    1      -12.276   0.132   1.507  0.00  0.00    +0.690 C 
ATOM     11  N   LIG    1      -11.303   0.833   0.892  0.00  0.00    -0.690 N 
ATOM     12  H   LIG    1      -11.511   1.678   0.464  0.00  0.00    +0.410 HD
ATOM     13  C   LIG    1      -10.042   0.359   0.871  0.00  0.00    +0.520 C 
ATOM     14  O   LIG    1       -9.782  -0.697   1.406  0.00  0.00    -0.440 OA
ATOM     15  O   LIG    1      -12.016  -0.928   2.043  0.00  0.00    -0.530 OA
ENDBRANCH   6  13
ENDBRANCH   5   6
ENDBRANCH   3   5
ENDBRANCH   1   3
BRANCH   1  16
ATOM     16  S   LIG    1       -3.958   1.550  -0.335  0.00  0.00    -0.090 S 
BRANCH  16  17
ATOM     17  C   LIG    1       -2.453   0.575  -0.066  0.00  0.00    +0.090 C 
BRANCH  17  18
ATOM     18  C   LIG    1       -1.248   1.475  -0.160  0.00  0.00    +0.530 C 
ATOM     19  N   LIG    1       -0.011   0.966   0.007  0.00  0.00    -0.670 N 
ATOM     20  H   LIG    1        0.109   0.009   0.111  0.00  0.00    +0.410 HD
ATOM     21  O   LIG    1       -1.391   2.658  -0.386  0.00  0.00    -0.490 OA
BRANCH  19  22
ATOM     22  C   LIG    1        1.100   1.817   0.026  0.00  0.00    +0.130 A 
ATOM     23  C   LIG    1        2.318   1.382  -0.478  0.00  0.00    +0.030 A 
ATOM     24  C   LIG    1        3.412   2.225  -0.463  0.00  0.00    +0.010 A 
ATOM     25  C   LIG    1        3.297   3.501   0.065  0.00  0.00    +0.090 A 
ATOM     26  C   LIG    1        2.085   3.935   0.573  0.00  0.00    +0.010 A 
ATOM     27  F   LIG    1        4.370   4.322   0.084  0.00  0.00    -0.140 F 
ATOM     28  C   LIG    1        0.987   3.096   0.555  0.00  0.00    +0.060 A 
ENDBRANCH  19  22
ENDBRANCH  17  18
ENDBRANCH  16  17
ENDBRANCH   1  16
TORSDOF 8
