REMARK  Name = ZINCqH0000006jzj.0
REMARK                            x       y       z     vdW  Elec       q    Type
REMARK                         _______ _______ _______ _____ _____    ______ ____
ROOT
ATOM      1  N   LIG    1       -0.025   1.433   2.455  0.00  0.00    -0.530 N 
ATOM      2  C   LIG    1        0.200   0.107   2.608  0.00  0.00    +0.550 A 
ATOM      3  C   LIG    1        0.919  -0.327   3.813  0.00  0.00    -0.200 A 
ATOM      4  C   LIG    1        1.203  -1.669   4.056  0.00  0.00    +0.100 A 
ATOM      5  C   LIG    1        1.876  -2.024   5.205  0.00  0.00    -0.010 A 
ATOM      6  C   LIG    1        2.273  -1.057   6.119  0.00  0.00    +0.060 A 
ATOM      7  C   LIG    1        2.004   0.275   5.899  0.00  0.00    +0.030 A 
ATOM      8  C   LIG    1        1.322   0.661   4.742  0.00  0.00    +0.160 A 
ATOM      9  N   LIG    1        1.038   1.960   4.487  0.00  0.00    -0.530 NA
ATOM     10  O   LIG    1       -0.177  -0.696   1.775  0.00  0.00    -0.460 OA
ATOM     11  C   LIG    1        0.399   2.321   3.402  0.00  0.00    +0.370 A 
ENDROOT
BRANCH   1  12
ATOM     12  C   LIG    1       -0.733   1.918   1.269  0.00  0.00    +0.240 C 
ATOM     13  C   LIG    1       -2.055   1.162   1.119  0.00  0.00    +0.070 C 
BRANCH  12  14
ATOM     14  C   LIG    1        0.131   1.685   0.028  0.00  0.00    +0.170 C 
BRANCH  14  16
ATOM     15  C   LIG    1        1.067  -0.047  -1.339  0.00  0.00    +0.200 C 
ATOM     16  O   LIG    1        0.273   0.281  -0.197  0.00  0.00    -0.350 OA
ENDBRANCH  14  16
ENDBRANCH  12  14
ENDBRANCH   1  12
BRANCH  11  17
ATOM     17  S   LIG    1        0.071   4.035   3.152  0.00  0.00    -0.010 S 
BRANCH  17  18
ATOM     18  C   LIG    1        0.822   4.720   4.650  0.00  0.00    +0.170 C 
BRANCH  18  19
ATOM     19  C   LIG    1        0.658   6.218   4.654  0.00  0.00    -0.090 A 
ATOM     20  C   LIG    1        1.631   7.020   4.084  0.00  0.00    +0.070 A 
ATOM     21  C   LIG    1        1.486   8.396   4.079  0.00  0.00    +0.020 A 
ATOM     22  C   LIG    1        0.375   8.978   4.651  0.00  0.00    +0.080 A 
ATOM     23  C   LIG    1       -0.609   8.175   5.233  0.00  0.00    -0.020 A 
ATOM     24  C   LIG    1       -0.459   6.787   5.230  0.00  0.00    +0.090 A 
BRANCH  23  25
ATOM     25  C   LIG    1       -1.765   8.773   5.829  0.00  0.00    +0.250 C 
ATOM     26  N   LIG    1       -2.683   9.246   6.303  0.00  0.00    -0.410 NA
ENDBRANCH  23  25
ENDBRANCH  18  19
ENDBRANCH  17  18
ENDBRANCH  11  17
TORSDOF 7
