REMARK  Name = ZINCrH00000atJ8E.0
REMARK                            x       y       z     vdW  Elec       q    Type
REMARK                         _______ _______ _______ _____ _____    ______ ____
ROOT
ATOM      1  C   LIG    1        1.552   0.945   5.618  0.00  0.00    +0.530 C 
ATOM      2  N   LIG    1        1.317   1.689   4.519  0.00  0.00    -0.610 N 
ATOM      3  C   LIG    1        2.109   1.490   3.297  0.00  0.00    +0.280 C 
ATOM      4  C   LIG    1        1.151   1.211   2.132  0.00  0.00    +0.270 C 
ATOM      5  N   LIG    1        0.098   2.235   2.134  0.00  0.00    -0.610 N 
ATOM      6  C   LIG    1       -0.691   2.438   3.358  0.00  0.00    +0.290 C 
ATOM      7  C   LIG    1       -0.138   2.979   1.035  0.00  0.00    +0.540 C 
ATOM      8  O   LIG    1       -1.010   3.822   1.049  0.00  0.00    -0.510 OA
ATOM      9  C   LIG    1        0.263   2.713   4.521  0.00  0.00    +0.210 C 
ATOM     10  C   LIG    1       -0.506   2.656   5.842  0.00  0.00    +0.060 C 
ATOM     11  O   LIG    1        0.972   1.193   6.654  0.00  0.00    -0.520 OA
ENDROOT
BRANCH   1  13
ATOM     12  C   LIG    1        1.976  -1.310   4.677  0.00  0.00    +0.070 C 
ATOM     13  C   LIG    1        2.538  -0.194   5.560  0.00  0.00    -0.040 C 
BRANCH  13  14
ATOM     14  C   LIG    1        2.778  -0.732   6.972  0.00  0.00    +0.250 C 
ATOM     15  F   LIG    1        3.776  -1.712   6.933  0.00  0.00    -0.210 F 
ENDBRANCH  13  14
ENDBRANCH   1  13
BRANCH   7  16
ATOM     16  C   LIG    1        0.683   2.765  -0.210  0.00  0.00    +0.090 C 
BRANCH  16  17
ATOM     17  S   LIG    1        0.130   3.910  -1.504  0.00  0.00    -0.030 S 
BRANCH  17  18
ATOM     18  C   LIG    1        1.186   3.518  -2.858  0.00  0.00    -0.110 A 
ATOM     19  C   LIG    1        2.151   2.526  -2.725  0.00  0.00    -0.010 A 
ATOM     20  C   LIG    1        2.972   2.216  -3.791  0.00  0.00    +0.030 A 
ATOM     21  C   LIG    1        2.845   2.901  -4.986  0.00  0.00    -0.070 A 
ATOM     22  C   LIG    1        1.891   3.894  -5.120  0.00  0.00    +0.040 A 
ATOM     23  C   LIG    1        1.061   4.204  -4.061  0.00  0.00    +0.040 A 
BRANCH  21  24
ATOM     24  C   LIG    1        3.748   2.566  -6.145  0.00  0.00    -0.030 C 
ATOM     25  C   LIG    1        2.902   2.108  -7.335  0.00  0.00    +0.040 C 
ATOM     26  C   LIG    1        4.704   1.443  -5.737  0.00  0.00    +0.030 C 
ATOM     27  C   LIG    1        4.554   3.805  -6.539  0.00  0.00    +0.040 C 
ENDBRANCH  21  24
ENDBRANCH  17  18
ENDBRANCH  16  17
ENDBRANCH   7  16
TORSDOF 6
