REMARK  Name = ZINCtV00001bB3Rf.0
REMARK                            x       y       z     vdW  Elec       q    Type
REMARK                         _______ _______ _______ _____ _____    ______ ____
ROOT
ATOM      1  C   LIG    1       -1.019   2.145   0.191  0.00  0.00    +0.130 A 
ATOM      2  C   LIG    1        0.264   1.617   0.225  0.00  0.00    +0.020 A 
ATOM      3  C   LIG    1        1.362   2.412  -0.031  0.00  0.00    +0.070 A 
ATOM      4  C   LIG    1        1.203   3.761  -0.322  0.00  0.00    +0.040 A 
ATOM      5  O   LIG    1        2.073   4.754  -0.606  0.00  0.00    -0.180 OA
ATOM      6  C   LIG    1        1.427   5.912  -0.819  0.00  0.00    +0.040 A 
ATOM      7  C   LIG    1        0.102   5.722  -0.683  0.00  0.00    -0.180 A 
ATOM      8  C   LIG    1       -0.943   6.793  -0.846  0.00  0.00    +0.090 C 
ATOM      9  C   LIG    1       -0.250   8.161  -0.779  0.00  0.00    +0.020 C 
ATOM     10  C   LIG    1        0.956   8.163  -1.724  0.00  0.00    +0.030 C 
ATOM     11  C   LIG    1        2.049   7.247  -1.162  0.00  0.00    +0.140 C 
ATOM     12  C   LIG    1       -0.088   4.314  -0.355  0.00  0.00    -0.080 A 
ATOM     13  C   LIG    1       -1.208   3.501  -0.094  0.00  0.00    -0.030 A 
ENDROOT
BRANCH   1  14
ATOM     14  O   LIG    1       -2.090   1.346   0.440  0.00  0.00    -0.470 OA
ATOM     15  H   LIG    1       -2.343   1.308   1.372  0.00  0.00    +0.390 HD
ENDBRANCH   1  14
BRANCH  13  16
ATOM     16  C   LIG    1       -2.563   4.071  -0.127  0.00  0.00    +0.210 C 
ATOM     17  N   LIG    1       -3.593   3.314   0.115  0.00  0.00    -0.200 NA
BRANCH  17  18
ATOM     18  N   LIG    1       -4.876   3.874   0.173  0.00  0.00    -0.420 N 
BRANCH  18  19
ATOM     19  C   LIG    1       -5.993   3.047   0.311  0.00  0.00    +0.210 A 
ATOM     20  C   LIG    1       -7.241   3.601   0.571  0.00  0.00    -0.050 A 
ATOM     21  C   LIG    1       -8.344   2.781   0.703  0.00  0.00    +0.040 A 
ATOM     22  C   LIG    1       -8.206   1.409   0.587  0.00  0.00    -0.040 A 
ATOM     23  C   LIG    1       -6.965   0.855   0.334  0.00  0.00    +0.040 A 
ATOM     24  C   LIG    1       -5.858   1.669   0.196  0.00  0.00    -0.010 A 
ENDBRANCH  18  19
BRANCH  18  25
ATOM     25  C   LIG    1       -5.037   5.259   0.092  0.00  0.00    +0.110 A 
ATOM     26  C   LIG    1       -5.847   5.809  -0.894  0.00  0.00    +0.010 A 
ATOM     27  C   LIG    1       -6.008   7.179  -0.968  0.00  0.00    +0.030 A 
ATOM     28  C   LIG    1       -5.357   8.003  -0.068  0.00  0.00    +0.010 A 
ATOM     29  C   LIG    1       -4.546   7.459   0.911  0.00  0.00    +0.030 A 
ATOM     30  C   LIG    1       -4.384   6.090   0.995  0.00  0.00    -0.010 A 
ENDBRANCH  18  25
ENDBRANCH  17  18
ENDBRANCH  13  16
TORSDOF 5
