REMARK  Name = ZINCvU00000004i7.0
REMARK                            x       y       z     vdW  Elec       q    Type
REMARK                         _______ _______ _______ _____ _____    ______ ____
ROOT
ATOM      1  C   LIG    1       -0.019   1.537   0.011  0.00  0.00    +0.270 C 
ATOM      2  C   LIG    1        0.002  -0.004   0.002  0.00  0.00    +0.100 C 
ATOM      3  C   LIG    1        1.474  -0.348  -0.014  0.00  0.00    +0.140 C 
ATOM      4  N   LIG    1        2.170   0.736  -0.015  0.00  0.00    -0.200 NA
ATOM      5  N   LIG    1        1.407   1.902  -0.001  0.00  0.00    -0.850 N 
ENDROOT
BRANCH   3   6
ATOM      6  C   LIG    1        2.029  -1.715  -0.027  0.00  0.00    -0.020 A 
ATOM      7  C   LIG    1        1.173  -2.819  -0.019  0.00  0.00    +0.060 A 
ATOM      8  C   LIG    1        1.698  -4.094  -0.037  0.00  0.00    +0.050 A 
ATOM      9  C   LIG    1        3.070  -4.282  -0.052  0.00  0.00    -0.080 A 
ATOM     10  C   LIG    1        3.924  -3.191  -0.053  0.00  0.00    +0.050 A 
ATOM     11 BR   LIG    1        3.781  -6.034  -0.068  0.00  0.00    -0.040 Br
ATOM     12  C   LIG    1        3.412  -1.911  -0.041  0.00  0.00    +0.060 A 
ENDBRANCH   3   6
BRANCH   1  16
ATOM     13  C   LIG    1       -1.978   3.035  -3.483  0.00  0.00    +0.110 A 
ATOM     14  C   LIG    1       -0.661   2.613  -3.552  0.00  0.00    -0.030 A 
ATOM     15  C   LIG    1       -0.028   2.134  -2.419  0.00  0.00    +0.020 A 
ATOM     16  C   LIG    1       -0.711   2.065  -1.220  0.00  0.00    -0.100 A 
ATOM     17  C   LIG    1       -2.027   2.485  -1.144  0.00  0.00    -0.010 A 
ATOM     18  C   LIG    1       -2.665   2.970  -2.274  0.00  0.00    +0.110 A 
BRANCH  13  20
ATOM     19  C   LIG    1       -1.834   3.549  -5.801  0.00  0.00    +0.240 C 
ATOM     20  O   LIG    1       -2.600   3.512  -4.595  0.00  0.00    -0.300 OA
ENDBRANCH  13  20
BRANCH  18  21
ATOM     21  O   LIG    1       -3.958   3.384  -2.201  0.00  0.00    -0.300 OA
ATOM     22  C   LIG    1       -4.599   3.289  -0.928  0.00  0.00    +0.240 C 
ENDBRANCH  18  21
ENDBRANCH   1  16
BRANCH   5  23
ATOM     23  S   LIG    1        2.007   3.445   0.001  0.00  0.00    +2.710 S 
ATOM     24  O   LIG    1        0.943   4.290  -0.418  0.00  0.00    -0.920 OA
ATOM     25  O   LIG    1        3.262   3.389  -0.663  0.00  0.00    -0.930 OA
BRANCH  23  26
ATOM     26  C   LIG    1        2.348   3.870   1.677  0.00  0.00    -0.680 A 
ATOM     27  C   LIG    1        1.373   4.473   2.449  0.00  0.00    +0.120 A 
ATOM     28  C   LIG    1        1.640   4.803   3.765  0.00  0.00    +0.000 A 
ATOM     29  C   LIG    1        2.884   4.537   4.306  0.00  0.00    +0.070 A 
ATOM     30  C   LIG    1        3.861   3.938   3.531  0.00  0.00    +0.000 A 
ATOM     31  C   LIG    1        3.593   3.605   2.217  0.00  0.00    +0.130 A 
ENDBRANCH  23  26
ENDBRANCH   5  23
TORSDOF 6
