REMARK  Name = ZINCpk00000xIj2q.0
REMARK                            x       y       z     vdW  Elec       q    Type
REMARK                         _______ _______ _______ _____ _____    ______ ____
ROOT
ATOM      1  N   LIG    1       -2.492   5.627  -1.435  0.00  0.00    -1.050 N 
ATOM      2  H   LIG    1       -2.591   5.754  -0.479  0.00  0.00    +0.420 HD
ENDROOT
BRANCH   1   3
ATOM      3  C   LIG    1       -1.278   5.928  -2.057  0.00  0.00    +0.140 A 
ATOM      4  C   LIG    1       -1.266   6.472  -3.335  0.00  0.00    +0.060 A 
ATOM      5  C   LIG    1       -0.064   6.768  -3.947  0.00  0.00    +0.030 A 
ATOM      6  C   LIG    1        1.127   6.523  -3.289  0.00  0.00    +0.000 A 
ATOM      7  C   LIG    1        1.119   5.987  -2.014  0.00  0.00    +0.010 A 
ATOM      8  C   LIG    1       -0.079   5.684  -1.399  0.00  0.00    -0.090 A 
BRANCH   8   9
ATOM      9  C   LIG    1       -0.087   5.094  -0.012  0.00  0.00    +0.130 C 
BRANCH   9  10
ATOM     10  C   LIG    1       -0.174   3.592  -0.105  0.00  0.00    -0.070 A 
ATOM     11  C   LIG    1        0.981   2.835  -0.170  0.00  0.00    +0.010 A 
ATOM     12  C   LIG    1        0.900   1.458  -0.255  0.00  0.00    +0.010 A 
ATOM     13  C   LIG    1       -0.335   0.837  -0.273  0.00  0.00    +0.000 A 
ATOM     14  C   LIG    1       -1.490   1.595  -0.214  0.00  0.00    -0.020 A 
ATOM     15  C   LIG    1       -1.409   2.972  -0.125  0.00  0.00    -0.010 A 
ENDBRANCH   9  10
ENDBRANCH   8   9
ENDBRANCH   1   3
BRANCH   1  16
ATOM     16  S   LIG    1       -3.761   5.054  -2.331  0.00  0.00    +2.720 S 
ATOM     17  O   LIG    1       -3.846   5.882  -3.483  0.00  0.00    -0.920 OA
ATOM     18  O   LIG    1       -4.841   4.870  -1.425  0.00  0.00    -0.950 OA
BRANCH  16  24
ATOM     19  O   LIG    1       -2.302  -0.133  -4.192  0.00  0.00    -0.520 OA
ATOM     20  C   LIG    1       -2.607   0.978  -3.801  0.00  0.00    +0.700 A 
ATOM     21  N   LIG    1       -3.565   1.112  -2.866  0.00  0.00    -0.630 N 
ATOM     22  H   LIG    1       -4.005   0.324  -2.512  0.00  0.00    +0.440 HD
ATOM     23  C   LIG    1       -3.926   2.351  -2.411  0.00  0.00    +0.510 A 
ATOM     24  C   LIG    1       -3.313   3.449  -2.904  0.00  0.00    -0.850 A 
ATOM     25  C   LIG    1       -2.311   3.294  -3.891  0.00  0.00    +0.590 A 
ATOM     26  O   LIG    1       -1.748   4.269  -4.354  0.00  0.00    -0.470 OA
ATOM     27  N   LIG    1       -1.980   2.055  -4.309  0.00  0.00    -0.650 N 
ATOM     28  H   LIG    1       -1.291   1.940  -4.982  0.00  0.00    +0.440 HD
ENDBRANCH  16  24
ENDBRANCH   1  16
TORSDOF 5
