REMARK  Name = ZINCnE000001QDOC.0
REMARK                            x       y       z     vdW  Elec       q    Type
REMARK                         _______ _______ _______ _____ _____    ______ ____
ROOT
ATOM      1  N   LIG    1        2.125  -0.091  -1.209  0.00  0.00    -0.740 N 
ATOM      2  H   LIG    1        2.459   0.413  -0.451  0.00  0.00    +0.390 HD
ATOM      3  C   LIG    1        2.955  -0.418  -2.220  0.00  0.00    +0.650 C 
ATOM      4  O   LIG    1        2.536  -1.052  -3.173  0.00  0.00    -0.610 OA
ENDROOT
BRANCH   3   5
ATOM      5  N   LIG    1        4.236  -0.048  -2.176  0.00  0.00    -0.720 NA
ATOM      6  C   LIG    1        5.060  -0.372  -3.179  0.00  0.00    +0.350 A 
ATOM      7  C   LIG    1        6.414   0.019  -3.145  0.00  0.00    -0.060 A 
ATOM      8  C   LIG    1        7.210  -0.345  -4.196  0.00  0.00    +0.020 A 
ATOM      9  C   LIG    1        6.637  -1.074  -5.249  0.00  0.00    -0.050 A 
ATOM     10  N   LIG    1        5.374  -1.401  -5.221  0.00  0.00    -0.220 NA
ATOM     11  N   LIG    1        4.601  -1.079  -4.247  0.00  0.00    -0.320 NA
BRANCH   9  12
ATOM     12  C   LIG    1        7.489  -1.485  -6.422  0.00  0.00    +0.000 C 
ATOM     13  C   LIG    1        8.637  -2.370  -5.934  0.00  0.00    +0.020 C 
ATOM     14  C   LIG    1        8.059  -0.237  -7.100  0.00  0.00    +0.020 C 
ATOM     15  C   LIG    1        6.634  -2.264  -7.425  0.00  0.00    +0.040 C 
ENDBRANCH   9  12
ENDBRANCH   3   5
BRANCH   1  16
ATOM     16  C   LIG    1        0.718  -0.497  -1.257  0.00  0.00    +0.270 C 
BRANCH  16  17
ATOM     17  C   LIG    1        0.002  -0.004   0.002  0.00  0.00    +0.080 C 
ATOM     18  C   LIG    1       -0.019   1.526   0.010  0.00  0.00    +0.060 C 
BRANCH  17  23
ATOM     19  C   LIG    1       -3.881  -2.532   1.779  0.00  0.00    +0.130 C 
ATOM     20  C   LIG    1       -3.170  -1.650   0.785  0.00  0.00    +0.070 A 
ATOM     21  C   LIG    1       -3.762  -1.177  -0.316  0.00  0.00    -0.110 A 
ATOM     22  S   LIG    1       -2.584  -0.201  -1.189  0.00  0.00    +0.130 S 
ATOM     23  C   LIG    1       -1.412  -0.526   0.013  0.00  0.00    +0.070 A 
ATOM     24  N   LIG    1       -1.911  -1.287   0.927  0.00  0.00    -0.470 NA
ENDBRANCH  17  23
ENDBRANCH  16  17
ENDBRANCH   1  16
TORSDOF 5
