REMARK  Name = ZINCtV00001bB3xt.0
REMARK                            x       y       z     vdW  Elec       q    Type
REMARK                         _______ _______ _______ _____ _____    ______ ____
ROOT
ATOM      1  C   LIG    1        2.874   0.944  -1.829  0.00  0.00    -0.670 C 
ATOM      2  C   LIG    1        3.805   1.675  -2.411  0.00  0.00    +0.320 C 
ENDROOT
BRANCH   2   3
ATOM      3  N   LIG    1        3.895   1.711  -3.801  0.00  0.00    -0.470 N 
ATOM      4  C   LIG    1        3.928   0.595  -4.621  0.00  0.00    +0.130 A 
ATOM      5  C   LIG    1        4.018   1.028  -5.952  0.00  0.00    -0.100 A 
ATOM      6  C   LIG    1        4.048   2.502  -5.913  0.00  0.00    -0.090 A 
ATOM      7  C   LIG    1        4.132   3.485  -6.896  0.00  0.00    +0.070 A 
ATOM      8  C   LIG    1        4.138   4.815  -6.536  0.00  0.00    -0.010 A 
ATOM      9  C   LIG    1        4.060   5.177  -5.200  0.00  0.00    +0.050 A 
ATOM     10  C   LIG    1        3.976   4.215  -4.217  0.00  0.00    -0.020 A 
ATOM     11  C   LIG    1        4.064   0.097  -6.987  0.00  0.00    +0.070 A 
ATOM     12  C   LIG    1        4.030  -1.250  -6.698  0.00  0.00    -0.010 A 
ATOM     13  C   LIG    1        3.937  -1.680  -5.383  0.00  0.00    +0.060 A 
ATOM     14  C   LIG    1        3.887  -0.769  -4.350  0.00  0.00    -0.010 A 
ATOM     15  C   LIG    1        3.969   2.867  -4.561  0.00  0.00    +0.130 A 
ENDBRANCH   2   3
BRANCH   1  17
ATOM     16  O   LIG    1        2.940  -0.494   0.452  0.00  0.00    -1.010 OA
ATOM     17  P   LIG    1        2.758   0.898  -0.019  0.00  0.00    +2.690 P 
BRANCH  17  18
ATOM     18  C   LIG    1        4.049   1.952   0.697  0.00  0.00    -0.760 A 
ATOM     19  C   LIG    1        3.913   3.327   0.670  0.00  0.00    +0.050 A 
ATOM     20  C   LIG    1        4.894   4.130   1.220  0.00  0.00    -0.010 A 
ATOM     21  C   LIG    1        6.017   3.558   1.788  0.00  0.00    +0.050 A 
ATOM     22  C   LIG    1        6.157   2.183   1.810  0.00  0.00    -0.010 A 
ATOM     23  C   LIG    1        5.172   1.380   1.265  0.00  0.00    +0.120 A 
ENDBRANCH  17  18
BRANCH  17  24
ATOM     24  C   LIG    1        1.128   1.503   0.498  0.00  0.00    -0.750 A 
ATOM     25  C   LIG    1        0.583   2.621  -0.105  0.00  0.00    +0.050 A 
ATOM     26  C   LIG    1       -0.657   3.085   0.292  0.00  0.00    -0.010 A 
ATOM     27  C   LIG    1       -1.356   2.425   1.286  0.00  0.00    +0.050 A 
ATOM     28  C   LIG    1       -0.811   1.308   1.889  0.00  0.00    -0.010 A 
ATOM     29  C   LIG    1        0.431   0.846   1.495  0.00  0.00    +0.120 A 
ENDBRANCH  17  24
ENDBRANCH   1  17
TORSDOF 4
