REMARK  Name = ZINCqH0000002GEA.0
REMARK                            x       y       z     vdW  Elec       q    Type
REMARK                         _______ _______ _______ _____ _____    ______ ____
ROOT
ATOM      1  N   LIG    1        0.774  -1.097   6.685  0.00  0.00    -0.710 N 
ATOM      2  H   LIG    1        0.023  -1.462   6.192  0.00  0.00    +0.410 HD
ATOM      3  C   LIG    1        1.125  -1.631   7.872  0.00  0.00    +0.600 C 
ATOM      4  O   LIG    1        2.066  -1.173   8.489  0.00  0.00    -0.520 OA
ENDROOT
BRANCH   3   5
ATOM      5  C   LIG    1        0.363  -2.778   8.423  0.00  0.00    -0.020 A 
ATOM      6  N   LIG    1       -0.667  -3.374   7.874  0.00  0.00    -0.330 NA
ATOM      7  O   LIG    1       -1.079  -4.280   8.560  0.00  0.00    +0.130 OA
ATOM      8  C   LIG    1       -0.361  -4.416   9.689  0.00  0.00    +0.020 A 
ATOM      9  C   LIG    1        0.608  -3.452   9.648  0.00  0.00    +0.030 A 
BRANCH   8  10
ATOM     10  C   LIG    1       -0.573  -5.413  10.760  0.00  0.00    -0.080 A 
ATOM     11  C   LIG    1       -1.609  -6.350  10.665  0.00  0.00    +0.100 A 
ATOM     12  C   LIG    1       -1.765  -7.263  11.693  0.00  0.00    -0.020 A 
ATOM     13  C   LIG    1       -0.901  -7.221  12.772  0.00  0.00    +0.270 A 
ATOM     14  N   LIG    1        0.067  -6.326  12.835  0.00  0.00    -0.480 NA
ATOM     15  C   LIG    1        0.259  -5.441  11.880  0.00  0.00    +0.300 A 
ENDBRANCH   8  10
ENDBRANCH   3   5
BRANCH   1  16
ATOM     16  C   LIG    1        1.526   0.036   6.140  0.00  0.00    +0.330 C 
BRANCH  16  20
ATOM     17  C   LIG    1       -0.149   1.182   2.380  0.00  0.00    +0.150 A 
ATOM     18  C   LIG    1        0.994   0.397   2.421  0.00  0.00    -0.090 A 
ATOM     19  C   LIG    1        1.534   0.028   3.638  0.00  0.00    +0.080 A 
ATOM     20  C   LIG    1        0.936   0.440   4.814  0.00  0.00    -0.160 A 
ATOM     21  C   LIG    1       -0.203   1.223   4.776  0.00  0.00    -0.020 A 
ATOM     22  C   LIG    1       -0.853   1.671   6.060  0.00  0.00    +0.100 C 
ATOM     23  C   LIG    1       -0.744   1.599   3.562  0.00  0.00    -0.030 A 
BRANCH  17  24
ATOM     24  O   LIG    1       -0.682   1.547   1.184  0.00  0.00    -0.310 OA
BRANCH  24  25
ATOM     25  C   LIG    1       -0.013   1.086   0.008  0.00  0.00    +0.180 C 
BRANCH  25  27
ATOM     26  C   LIG    1       -0.037   1.099  -2.490  0.00  0.00    +0.040 C 
ATOM     27  C   LIG    1       -0.753   1.593  -1.232  0.00  0.00    +0.020 C 
ENDBRANCH  25  27
ENDBRANCH  24  25
ENDBRANCH  17  24
ENDBRANCH  16  20
ENDBRANCH   1  16
TORSDOF 7
