REMARK  Name = ZINCrH000004jo8c.1
REMARK                            x       y       z     vdW  Elec       q    Type
REMARK                         _______ _______ _______ _____ _____    ______ ____
ROOT
ATOM      1  N   LIG    1       -2.216   8.462  -0.369  0.00  0.00    -0.510 N 
ATOM      2  C   LIG    1       -1.030   7.817  -0.384  0.00  0.00    +0.550 A 
ATOM      3  C   LIG    1       -1.032   6.344  -0.282  0.00  0.00    -0.160 A 
ATOM      4  C   LIG    1        0.151   5.610  -0.290  0.00  0.00    +0.140 A 
ATOM      5  C   LIG    1        0.104   4.237  -0.188  0.00  0.00    +0.040 A 
ATOM      6  C   LIG    1       -1.125   3.579  -0.086  0.00  0.00    -0.060 A 
ATOM      7  C   LIG    1       -2.313   4.307  -0.078  0.00  0.00    +0.070 A 
ATOM      8  C   LIG    1       -2.272   5.688  -0.175  0.00  0.00    +0.170 A 
ATOM      9  N   LIG    1       -3.432   6.450  -0.170  0.00  0.00    -0.580 N 
ATOM     10  H   LIG    1       -4.294   6.011  -0.097  0.00  0.00    +0.450 HD
ATOM     11  O   LIG    1        0.014   8.433  -0.478  0.00  0.00    -0.470 OA
ATOM     12  C   LIG    1       -3.373   7.789  -0.265  0.00  0.00    +0.530 A 
ATOM     13  S   LIG    1       -4.838   8.676  -0.253  0.00  0.00    -0.540 S 
ENDROOT
BRANCH   6  14
ATOM     14  C   LIG    1       -1.164   2.103   0.018  0.00  0.00    +0.550 C 
ATOM     15  N   LIG    1       -0.017   1.396   0.010  0.00  0.00    -0.660 N 
ATOM     16  H   LIG    1        0.837   1.857  -0.001  0.00  0.00    +0.410 HD
ATOM     17  O   LIG    1       -2.231   1.529   0.111  0.00  0.00    -0.500 OA
BRANCH  15  18
ATOM     18  C   LIG    1       -0.057  -0.004   0.011  0.00  0.00    +0.100 A 
ATOM     19  C   LIG    1        0.906  -0.727  -0.691  0.00  0.00    +0.020 A 
ATOM     20  C   LIG    1        0.881  -2.103  -0.700  0.00  0.00    +0.020 A 
ATOM     21  C   LIG    1       -0.112  -2.785  -0.005  0.00  0.00    +0.090 A 
ATOM     22  N   LIG    1       -0.395  -4.123   0.171  0.00  0.00    -0.590 N 
ATOM     23  H   LIG    1        0.116  -4.856  -0.208  0.00  0.00    +0.410 HD
ATOM     24  C   LIG    1       -1.504  -4.264   0.959  0.00  0.00    +0.080 A 
ATOM     25  C   LIG    1       -1.969  -3.056   1.315  0.00  0.00    -0.050 A 
ATOM     26  C   LIG    1       -2.114  -5.580   1.368  0.00  0.00    +0.140 C 
ATOM     27  C   LIG    1       -1.086  -2.059   0.705  0.00  0.00    -0.090 A 
ATOM     28  C   LIG    1       -1.049  -0.664   0.712  0.00  0.00    +0.070 A 
ENDBRANCH  15  18
ENDBRANCH   6  14
BRANCH   1  30
ATOM     29  C   LIG    1       -2.321  10.334  -1.939  0.00  0.00    +0.060 C 
ATOM     30  C   LIG    1       -2.241   9.923  -0.467  0.00  0.00    +0.320 C 
ENDBRANCH   1  30
TORSDOF 3
