REMARK  Name = ZINCtj00000nxSVs.1
REMARK                            x       y       z     vdW  Elec       q    Type
REMARK                         _______ _______ _______ _____ _____    ______ ____
ROOT
ATOM      1  O   LIG    1       -2.913   3.825  -5.585  0.00  0.00    -0.570 OA
ATOM      2  C   LIG    1       -2.773   4.857  -4.957  0.00  0.00    +0.710 C 
ATOM      3  N   LIG    1       -2.789   6.043  -5.596  0.00  0.00    -0.620 N 
ATOM      4  C   LIG    1       -2.507   7.293  -4.875  0.00  0.00    +0.280 C 
ATOM      5  C   LIG    1       -1.424   8.062  -5.649  0.00  0.00    +0.190 C 
ATOM      6  N   LIG    1       -1.855   8.234  -7.043  0.00  0.00    -0.490 N 
ATOM      7  C   LIG    1       -1.995   6.938  -7.721  0.00  0.00    +0.190 C 
ATOM      8  C   LIG    1       -3.095   6.122  -7.033  0.00  0.00    +0.320 C 
ATOM      9  N   LIG    1       -2.601   4.814  -3.621  0.00  0.00    -0.770 N 
ATOM     10  H   LIG    1       -2.566   5.638  -3.110  0.00  0.00    +0.390 HD
ENDROOT
BRANCH   6  11
ATOM     11  C   LIG    1       -0.977   9.071  -7.739  0.00  0.00    +0.040 A 
ATOM     12  C   LIG    1        0.341   8.685  -7.939  0.00  0.00    +0.010 A 
ATOM     13  C   LIG    1        1.204   9.511  -8.633  0.00  0.00    +0.010 A 
ATOM     14  C   LIG    1        0.760  10.727  -9.118  0.00  0.00    +0.060 A 
ATOM     15  C   LIG    1       -0.551  11.119  -8.916  0.00  0.00    -0.010 A 
ATOM     16  C   LIG    1       -1.422  10.295  -8.229  0.00  0.00    +0.130 A 
ATOM     17  F   LIG    1       -2.703  10.677  -8.032  0.00  0.00    -0.130 F 
ENDBRANCH   6  11
BRANCH   9  18
ATOM     18  C   LIG    1       -2.468   3.523  -2.940  0.00  0.00    +0.340 C 
BRANCH  18  19
ATOM     19  C   LIG    1       -2.165   3.757  -1.459  0.00  0.00    +0.180 C 
BRANCH  19  20
ATOM     20  N   LIG    1       -3.233   4.571  -0.863  0.00  0.00    -0.380 N 
ATOM     21  C   LIG    1       -2.797   5.065   0.450  0.00  0.00    +0.230 C 
ATOM     22  C   LIG    1       -3.912   5.913   1.069  0.00  0.00    +0.270 C 
ATOM     23  O   LIG    1       -5.102   5.126   1.171  0.00  0.00    -0.350 OA
ATOM     24  C   LIG    1       -5.553   4.601  -0.081  0.00  0.00    +0.270 C 
ATOM     25  C   LIG    1       -4.441   3.751  -0.701  0.00  0.00    +0.240 C 
ATOM     26  H   LIG    1       -3.436   5.354  -1.467  0.00  0.00    +0.420 HD
ENDBRANCH  19  20
BRANCH  19  27
ATOM     27  C   LIG    1       -2.087   2.411  -0.736  0.00  0.00    -0.030 C 
ATOM     28  C   LIG    1       -1.080   1.465  -1.436  0.00  0.00    +0.040 C 
ATOM     29  C   LIG    1       -0.335   0.780  -0.275  0.00  0.00    +0.210 C 
ATOM     30  O   LIG    1       -0.909   1.264   0.951  0.00  0.00    -0.360 OA
ATOM     31  C   LIG    1       -1.455   2.573   0.670  0.00  0.00    +0.210 C 
ENDBRANCH  19  27
ENDBRANCH  18  19
ENDBRANCH   9  18
TORSDOF 5
