REMARK  Name = ZINCqH0000050hRI.0
REMARK                            x       y       z     vdW  Elec       q    Type
REMARK                         _______ _______ _______ _____ _____    ______ ____
ROOT
ATOM      1  C   LIG    1        1.843   7.154   0.021  0.00  0.00    +0.600 C 
ATOM      2  N   LIG    1        0.644   7.769   0.036  0.00  0.00    -0.720 N 
ATOM      3  H   LIG    1       -0.171   7.243   0.042  0.00  0.00    +0.400 HD
ATOM      4  O   LIG    1        2.865   7.814   0.014  0.00  0.00    -0.520 OA
ENDROOT
BRANCH   1   8
ATOM      5  C   LIG    1        1.649   3.216   0.003  0.00  0.00    +0.170 A 
ATOM      6  N   LIG    1        2.884   3.652  -0.001  0.00  0.00    -0.460 NA
ATOM      7  C   LIG    1        3.061   4.944  -0.002  0.00  0.00    +0.170 A 
ATOM      8  C   LIG    1        1.916   5.692   0.013  0.00  0.00    -0.310 A 
ATOM      9  C   LIG    1        4.432   5.569  -0.013  0.00  0.00    +0.180 C 
ATOM     10  S   LIG    1        0.543   4.586   0.021  0.00  0.00    +0.150 S 
BRANCH   5  15
ATOM     11  C   LIG    1       -1.211  -0.898   0.008  0.00  0.00    +0.180 C 
ATOM     12  C   LIG    1        0.002  -0.004   0.002  0.00  0.00    +0.030 A 
ATOM     13  C   LIG    1        1.286  -0.420  -0.013  0.00  0.00    -0.060 A 
ATOM     14  C   LIG    1        2.093   0.731  -0.014  0.00  0.00    +0.050 A 
ATOM     15  C   LIG    1        1.249   1.802  -0.000  0.00  0.00    +0.010 A 
ATOM     16  O   LIG    1       -0.016   1.337   0.009  0.00  0.00    -0.170 OA
ENDBRANCH   5  15
ENDBRANCH   1   8
BRANCH   2  17
ATOM     17  C   LIG    1        0.571   9.232   0.044  0.00  0.00    +0.260 C 
BRANCH  17  18
ATOM     18  C   LIG    1       -0.895   9.670   0.061  0.00  0.00    +0.260 C 
BRANCH  18  19
ATOM     19  C   LIG    1       -0.970  11.175   0.069  0.00  0.00    -0.100 A 
ATOM     20  C   LIG    1       -1.097  11.853   1.266  0.00  0.00    +0.060 A 
ATOM     21  C   LIG    1       -1.166  13.234   1.276  0.00  0.00    +0.030 A 
ATOM     22  C   LIG    1       -1.108  13.938   0.086  0.00  0.00    +0.070 A 
ATOM     23  C   LIG    1       -0.981  13.257  -1.115  0.00  0.00    +0.070 A 
ATOM     24  F   LIG    1       -0.924  13.943  -2.278  0.00  0.00    -0.120 F 
ATOM     25  F   LIG    1       -1.175  15.287   0.095  0.00  0.00    -0.120 F 
ATOM     26  C   LIG    1       -0.907  11.876  -1.121  0.00  0.00    +0.030 A 
ENDBRANCH  18  19
BRANCH  18  27
ATOM     27  O   LIG    1       -1.556   9.166  -1.102  0.00  0.00    -0.550 OA
ATOM     28  H   LIG    1       -1.176   9.475  -1.935  0.00  0.00    +0.380 HD
ENDBRANCH  18  27
ENDBRANCH  17  18
ENDBRANCH   2  17
TORSDOF 6
