REMARK  Name = ZINCpe00000VVGV1.0
REMARK                            x       y       z     vdW  Elec       q    Type
REMARK                         _______ _______ _______ _____ _____    ______ ____
ROOT
ATOM      1  N   LIG    1       -3.584  -1.574   0.041  0.00  0.00    -0.530 NA
ATOM      2  C   LIG    1       -2.336  -2.322  -0.158  0.00  0.00    +0.190 C 
ATOM      3  C   LIG    1       -1.276  -1.812   0.824  0.00  0.00    +0.270 C 
ATOM      4  N   LIG    1       -1.159  -0.354   0.668  0.00  0.00    -0.630 N 
ATOM      5  C   LIG    1       -2.387   0.453   0.725  0.00  0.00    +0.320 C 
ATOM      6  C   LIG    1        0.043   0.228   0.484  0.00  0.00    +0.710 C 
ATOM      7  N   LIG    1        1.145  -0.534   0.339  0.00  0.00    -0.730 N 
ATOM      8  H   LIG    1        1.086  -1.497   0.441  0.00  0.00    +0.410 HD
ATOM      9  O   LIG    1        0.133   1.440   0.449  0.00  0.00    -0.590 OA
ATOM     10  C   LIG    1       -3.404  -0.148  -0.259  0.00  0.00    +0.160 C 
ENDROOT
BRANCH   7  11
ATOM     11  C   LIG    1        2.434   0.092   0.035  0.00  0.00    +0.260 C 
ATOM     12  C   LIG    1        2.556   0.298  -1.477  0.00  0.00    +0.060 C 
BRANCH  11  13
ATOM     13  C   LIG    1        3.551  -0.799   0.512  0.00  0.00    +0.530 C 
ATOM     14  N   LIG    1        4.752  -0.269   0.818  0.00  0.00    -0.610 N 
ATOM     15  C   LIG    1        5.082   1.164   0.816  0.00  0.00    +0.230 C 
ATOM     16  C   LIG    1        6.570   1.293   1.205  0.00  0.00    +0.040 C 
ATOM     17  C   LIG    1        7.143  -0.103   0.845  0.00  0.00    +0.040 C 
ATOM     18  C   LIG    1        5.954  -1.030   1.205  0.00  0.00    +0.250 C 
ATOM     19  O   LIG    1        3.370  -1.993   0.622  0.00  0.00    -0.540 OA
ENDBRANCH  11  13
ENDBRANCH   7  11
BRANCH   1  20
ATOM     20  C   LIG    1       -4.675  -2.147  -0.759  0.00  0.00    +0.310 C 
BRANCH  20  25
ATOM     21  C   LIG    1       -8.107   1.493  -1.698  0.00  0.00    +0.160 C 
ATOM     22  C   LIG    1       -7.345   0.333  -1.110  0.00  0.00    +0.020 A 
ATOM     23  N   LIG    1       -7.678  -0.369  -0.066  0.00  0.00    -0.360 NA
ATOM     24  O   LIG    1       -6.867  -1.236   0.164  0.00  0.00    +0.110 OA
ATOM     25  C   LIG    1       -5.863  -1.221  -0.724  0.00  0.00    -0.020 A 
ATOM     26  C   LIG    1       -6.125  -0.205  -1.581  0.00  0.00    -0.060 A 
ENDBRANCH  20  25
ENDBRANCH   1  20
TORSDOF 4
