REMARK  Name = ZINCrH000004omlQ.0
REMARK                            x       y       z     vdW  Elec       q    Type
REMARK                         _______ _______ _______ _____ _____    ______ ____
ROOT
ATOM      1  C   LIG    1        1.026   1.807   5.751  0.00  0.00    -0.150 A 
ATOM      2  C   LIG    1        2.068   0.879   5.719  0.00  0.00    +0.100 A 
ATOM      3  C   LIG    1        2.100  -0.083   4.731  0.00  0.00    +0.000 A 
ATOM      4  C   LIG    1        1.100  -0.133   3.777  0.00  0.00    +0.150 A 
ATOM      5  C   LIG    1        0.067   0.787   3.800  0.00  0.00    -0.680 A 
ATOM      6  C   LIG    1        0.022   1.754   4.782  0.00  0.00    +0.190 A 
ENDROOT
BRANCH   1   9
ATOM      7  N   LIG    1        1.954   2.889   7.742  0.00  0.00    -0.720 N 
ATOM      8  H   LIG    1        2.679   2.246   7.721  0.00  0.00    +0.400 HD
ATOM      9  C   LIG    1        0.984   2.841   6.807  0.00  0.00    +0.560 C 
ATOM     10  O   LIG    1        0.075   3.647   6.833  0.00  0.00    -0.530 OA
BRANCH   7  12
ATOM     11  C   LIG    1        2.554   5.202   8.267  0.00  0.00    +0.040 C 
ATOM     12  C   LIG    1        1.913   3.914   8.788  0.00  0.00    +0.280 C 
BRANCH  12  13
ATOM     13  C   LIG    1        2.671   3.429   9.996  0.00  0.00    -0.090 A 
ATOM     14  C   LIG    1        3.852   2.728   9.836  0.00  0.00    +0.000 A 
ATOM     15  C   LIG    1        4.550   2.287  10.944  0.00  0.00    +0.010 A 
ATOM     16  C   LIG    1        4.063   2.538  12.213  0.00  0.00    +0.000 A 
ATOM     17  C   LIG    1        2.879   3.234  12.373  0.00  0.00    +0.020 A 
ATOM     18  C   LIG    1        2.183   3.679  11.265  0.00  0.00    +0.020 A 
ENDBRANCH  12  13
ENDBRANCH   7  12
ENDBRANCH   1   9
BRANCH   5  19
ATOM     19  S   LIG    1       -1.199   0.718   2.575  0.00  0.00    +2.690 S 
ATOM     20  O   LIG    1       -1.212  -0.616   2.087  0.00  0.00    -0.950 OA
ATOM     21  O   LIG    1       -2.339   1.350   3.141  0.00  0.00    -0.940 OA
BRANCH  19  22
ATOM     22  N   LIG    1       -0.712   1.673   1.313  0.00  0.00    -0.990 NA
ATOM     23  C   LIG    1       -0.045   1.085   0.143  0.00  0.00    +0.280 C 
ATOM     24  C   LIG    1       -0.793   1.517  -1.122  0.00  0.00    +0.020 C 
ATOM     25  C   LIG    1       -0.892   3.043  -1.156  0.00  0.00    +0.010 C 
ATOM     26  C   LIG    1       -1.680   3.533   0.061  0.00  0.00    +0.020 C 
ATOM     27  C   LIG    1       -0.943   3.124   1.340  0.00  0.00    +0.230 C 
ATOM     28  C   LIG    1       -1.790   3.490   2.560  0.00  0.00    +0.040 C 
ENDBRANCH  19  22
ENDBRANCH   5  19
TORSDOF 5
