REMARK  Name = ZINCAx0000000aUS.0
REMARK                            x       y       z     vdW  Elec       q    Type
REMARK                         _______ _______ _______ _____ _____    ______ ____
ROOT
ATOM      1  C   LIG    1        1.963   0.006   0.034  0.00  0.00    +0.110 C 
ATOM      2  C   LIG    1        0.866   0.544   0.953  0.00  0.00    +0.170 C 
ATOM      3  N   LIG    1        1.224   0.333   2.367  0.00  0.00    -0.720 N 
ATOM      4  H   LIG    1        1.373  -0.519   2.805  0.00  0.00    +0.440 HD
ATOM      5  C   LIG    1        1.302   1.552   2.930  0.00  0.00    +0.710 C 
ATOM      6  N   LIG    1        1.040   2.535   2.061  0.00  0.00    -0.560 N 
ATOM      7  O   LIG    1        1.580   1.740   4.098  0.00  0.00    -0.530 OA
ATOM      8  C   LIG    1        0.762   2.052   0.834  0.00  0.00    +0.540 C 
ATOM      9  O   LIG    1        0.486   2.690  -0.160  0.00  0.00    -0.460 OA
ENDROOT
BRANCH   2  10
ATOM     10  C   LIG    1       -0.456  -0.108   0.638  0.00  0.00    -0.090 A 
ATOM     11  C   LIG    1       -0.801  -1.263   1.270  0.00  0.00    +0.050 A 
ATOM     12  C   LIG    1       -2.033  -1.874   0.979  0.00  0.00    -0.050 A 
ATOM     13  C   LIG    1       -2.424  -3.066   1.612  0.00  0.00    +0.030 A 
ATOM     14  C   LIG    1       -3.624  -3.629   1.304  0.00  0.00    +0.020 A 
ATOM     15  C   LIG    1       -4.474  -3.041   0.369  0.00  0.00    +0.020 A 
ATOM     16  C   LIG    1       -4.128  -1.886  -0.263  0.00  0.00    +0.020 A 
ATOM     17  C   LIG    1       -2.897  -1.276   0.028  0.00  0.00    -0.050 A 
ATOM     18  C   LIG    1       -2.506  -0.084  -0.605  0.00  0.00    +0.030 A 
ATOM     19  C   LIG    1       -1.308   0.483  -0.293  0.00  0.00    +0.030 A 
ENDBRANCH   2  10
BRANCH   6  20
ATOM     20  C   LIG    1        1.052   3.960   2.401  0.00  0.00    +0.350 C 
BRANCH  20  21
ATOM     21  C   LIG    1        2.434   4.517   2.178  0.00  0.00    +0.500 C 
ATOM     22  N   LIG    1        2.685   5.818   2.427  0.00  0.00    -0.700 N 
ATOM     23  H   LIG    1        1.975   6.395   2.749  0.00  0.00    +0.410 HD
ATOM     24  O   LIG    1        3.322   3.795   1.776  0.00  0.00    -0.530 OA
BRANCH  22  25
ATOM     25  C   LIG    1        4.029   6.360   2.211  0.00  0.00    +0.320 C 
BRANCH  25  26
ATOM     26  C   LIG    1        4.042   7.825   2.561  0.00  0.00    -0.090 A 
ATOM     27  C   LIG    1        3.935   8.775   1.563  0.00  0.00    +0.030 A 
ATOM     28  C   LIG    1        3.946  10.120   1.884  0.00  0.00    +0.000 A 
ATOM     29  C   LIG    1        4.064  10.514   3.203  0.00  0.00    +0.010 A 
ATOM     30  C   LIG    1        4.171   9.564   4.202  0.00  0.00    +0.000 A 
ATOM     31  C   LIG    1        4.154   8.220   3.881  0.00  0.00    -0.060 A 
BRANCH  31  32
ATOM     32  C   LIG    1        4.264   7.184   4.971  0.00  0.00    +0.230 C 
BRANCH  32  33
ATOM     33  N   LIG    1        2.928   6.661   5.285  0.00  0.00    -0.530 NA
ATOM     34  C   LIG    1        2.114   7.674   5.973  0.00  0.00    +0.140 C 
ATOM     35  C   LIG    1        0.714   7.109   6.228  0.00  0.00    +0.220 C 
ATOM     36  O   LIG    1        0.824   5.900   6.983  0.00  0.00    -0.380 OA
ATOM     37  C   LIG    1        1.610   4.891   6.343  0.00  0.00    +0.230 C 
ATOM     38  C   LIG    1        3.019   5.433   6.088  0.00  0.00    +0.150 C 
ENDBRANCH  32  33
ENDBRANCH  31  32
ENDBRANCH  25  26
ENDBRANCH  22  25
ENDBRANCH  20  21
ENDBRANCH   6  20
TORSDOF 7
