REMARK  Name = ZINCrg000000td0S.0
REMARK                            x       y       z     vdW  Elec       q    Type
REMARK                         _______ _______ _______ _____ _____    ______ ____
ROOT
ATOM      1  O   LIG    1       -2.626  -4.312   1.133  0.00  0.00    -0.510 OA
ATOM      2  C   LIG    1       -1.896  -3.365   1.336  0.00  0.00    +0.510 C 
ATOM      3  N   LIG    1       -2.361  -2.110   1.181  0.00  0.00    -0.610 N 
ENDROOT
BRANCH   3   4
ATOM      4  C   LIG    1       -1.479  -0.966   1.426  0.00  0.00    +0.280 C 
BRANCH   4   5
ATOM      5  C   LIG    1       -1.688  -0.458   2.854  0.00  0.00    +0.260 C 
BRANCH   5   6
ATOM      6  C   LIG    1       -0.790   0.726   3.103  0.00  0.00    -0.020 A 
ATOM      7  C   LIG    1       -1.163   2.018   3.061  0.00  0.00    -0.040 A 
ATOM      8  C   LIG    1       -0.012   2.786   3.353  0.00  0.00    -0.070 A 
ATOM      9  C   LIG    1        0.995   1.917   3.556  0.00  0.00    +0.180 A 
ATOM     10  O   LIG    1        0.518   0.671   3.403  0.00  0.00    -0.160 OA
ENDBRANCH   5   6
BRANCH   5  11
ATOM     11  O   LIG    1       -1.371  -1.499   3.781  0.00  0.00    -0.550 OA
ATOM     12  H   LIG    1       -1.969  -2.258   3.739  0.00  0.00    +0.380 HD
ENDBRANCH   5  11
ENDBRANCH   4   5
ENDBRANCH   3   4
BRANCH   3  13
ATOM     13  C   LIG    1       -3.749  -1.889   0.767  0.00  0.00    +0.340 C 
BRANCH  13  14
ATOM     14  C   LIG    1       -3.816  -1.797  -0.736  0.00  0.00    -0.110 A 
ATOM     15  C   LIG    1       -3.634  -0.579  -1.363  0.00  0.00    +0.010 A 
ATOM     16  C   LIG    1       -3.691  -0.495  -2.741  0.00  0.00    +0.000 A 
ATOM     17  C   LIG    1       -3.941  -1.628  -3.493  0.00  0.00    +0.010 A 
ATOM     18  C   LIG    1       -4.128  -2.846  -2.865  0.00  0.00    +0.000 A 
ATOM     19  C   LIG    1       -4.066  -2.930  -1.487  0.00  0.00    +0.040 A 
ENDBRANCH  13  14
ENDBRANCH   3  13
BRANCH   2  20
ATOM     20  C   LIG    1       -0.468  -3.592   1.762  0.00  0.00    +0.230 C 
BRANCH  20  21
ATOM     21  N   LIG    1       -0.209  -5.035   1.858  0.00  0.00    -0.540 NA
ATOM     22  C   LIG    1       -1.028  -5.646   2.908  0.00  0.00    +0.230 C 
ATOM     23  C   LIG    1       -1.069  -7.166   2.718  0.00  0.00    -0.310 C 
ATOM     24  S   LIG    1        0.618  -7.820   2.892  0.00  0.00    +2.410 S 
ATOM     25  C   LIG    1        1.521  -6.768   1.716  0.00  0.00    -0.320 C 
ATOM     26  O   LIG    1        1.085  -7.541   4.205  0.00  0.00    -0.940 OA
ATOM     27  O   LIG    1        0.639  -9.158   2.416  0.00  0.00    -0.940 OA
ATOM     28  C   LIG    1        1.220  -5.301   2.038  0.00  0.00    +0.230 C 
ENDBRANCH  20  21
ENDBRANCH   2  20
TORSDOF 8
