REMARK  Name = ZINCrH00000No4A1.0
REMARK                            x       y       z     vdW  Elec       q    Type
REMARK                         _______ _______ _______ _____ _____    ______ ____
ROOT
ATOM      1  N   LIG    1       -5.229  -9.805   0.007  0.00  0.00    -0.530 N 
ATOM      2  H   LIG    1       -6.149  -9.496   0.021  0.00  0.00    +0.430 HD
ATOM      3  C   LIG    1       -4.219  -8.913   0.003  0.00  0.00    +0.510 C 
ATOM      4  O   LIG    1       -3.069  -9.299  -0.015  0.00  0.00    -0.530 OA
ENDROOT
BRANCH   1   5
ATOM      5  N   LIG    1       -4.952 -11.178  -0.009  0.00  0.00    -0.510 N 
ATOM      6  H   LIG    1       -4.036 -11.487  -0.097  0.00  0.00    +0.440 HD
BRANCH   5  12
ATOM      7  C   LIG    1       -6.758 -13.690   2.436  0.00  0.00    +0.030 C 
ATOM      8  C   LIG    1       -6.735 -14.253   1.014  0.00  0.00    -0.050 C 
ATOM      9  C   LIG    1       -8.091 -14.008   0.343  0.00  0.00    +0.030 C 
ATOM     10  C   LIG    1       -8.323 -12.524   0.228  0.00  0.00    +0.410 C 
ATOM     11  C   LIG    1       -7.245 -11.641   0.113  0.00  0.00    -0.270 C 
ATOM     12  C   LIG    1       -5.968 -12.080   0.099  0.00  0.00    +0.260 C 
ATOM     13  O   LIG    1       -9.459 -12.090   0.236  0.00  0.00    -0.500 OA
ATOM     14  C   LIG    1       -6.449 -15.755   1.059  0.00  0.00    +0.040 C 
ATOM     15  C   LIG    1       -5.646 -13.547   0.195  0.00  0.00    +0.100 C 
ENDBRANCH   5  12
ENDBRANCH   1   5
BRANCH   3  16
ATOM     16  C   LIG    1       -4.517  -7.436   0.019  0.00  0.00    +0.070 C 
BRANCH  16  17
ATOM     17  C   LIG    1       -3.205  -6.650   0.010  0.00  0.00    +0.040 C 
BRANCH  17  18
ATOM     18  C   LIG    1       -3.508  -5.151   0.027  0.00  0.00    +0.020 C 
BRANCH  18  19
ATOM     19  C   LIG    1       -2.195  -4.365   0.018  0.00  0.00    +0.010 C 
BRANCH  19  20
ATOM     20  C   LIG    1       -2.498  -2.865   0.035  0.00  0.00    +0.260 C 
BRANCH  20  21
ATOM     21  N   LIG    1       -1.241  -2.113   0.027  0.00  0.00    -0.730 N 
ATOM     22  H   LIG    1       -0.394  -2.584   0.012  0.00  0.00    +0.400 HD
ATOM     23  C   LIG    1       -1.262  -0.765   0.039  0.00  0.00    +0.560 C 
ATOM     24  O   LIG    1       -2.324  -0.174   0.057  0.00  0.00    -0.530 OA
BRANCH  23  25
ATOM     25  C   LIG    1        0.006  -0.006   0.030  0.00  0.00    -0.140 A 
ATOM     26  C   LIG    1       -0.012   1.390   0.043  0.00  0.00    +0.080 A 
ATOM     27  C   LIG    1        1.175   2.092   0.035  0.00  0.00    +0.000 A 
ATOM     28  C   LIG    1        2.382   1.416   0.015  0.00  0.00    +0.040 A 
ATOM     29  C   LIG    1        2.408   0.033   0.002  0.00  0.00    +0.000 A 
ATOM     30  C   LIG    1        1.227  -0.682   0.010  0.00  0.00    +0.040 A 
ENDBRANCH  23  25
ENDBRANCH  20  21
ENDBRANCH  19  20
ENDBRANCH  18  19
ENDBRANCH  17  18
ENDBRANCH  16  17
ENDBRANCH   3  16
TORSDOF 9
