REMARK  Name = ZINCqH0000038Hyi.0
REMARK                            x       y       z     vdW  Elec       q    Type
REMARK                         _______ _______ _______ _____ _____    ______ ____
ROOT
ATOM      1  C   LIG    1        2.412   5.583  -0.085  0.00  0.00    +0.140 A 
ATOM      2  C   LIG    1        1.202   6.268  -0.068  0.00  0.00    +0.070 A 
ATOM      3  C   LIG    1        1.182   7.647  -0.146  0.00  0.00    +0.050 A 
ATOM      4  C   LIG    1        2.363   8.355  -0.253  0.00  0.00    +0.000 A 
ATOM      5  C   LIG    1        3.584   7.676  -0.277  0.00  0.00    -0.110 A 
ATOM      6 CL   LIG    1        2.331  10.088  -0.359  0.00  0.00    -0.020 Cl
ATOM      7  C   LIG    1        3.604   6.284  -0.192  0.00  0.00    +0.040 A 
ENDROOT
BRANCH   1   9
ATOM      8  C   LIG    1        1.494   3.547   0.733  0.00  0.00    +0.580 C 
ATOM      9  N   LIG    1        2.427   4.187   0.001  0.00  0.00    -0.650 N 
ATOM     10  H   LIG    1        3.109   3.680  -0.467  0.00  0.00    +0.430 HD
ATOM     11  O   LIG    1        0.700   4.184   1.396  0.00  0.00    -0.500 OA
BRANCH   8  17
ATOM     12  C   LIG    1        3.253  -0.724  -0.829  0.00  0.00    +0.180 C 
ATOM     13  C   LIG    1        2.255   0.040   0.003  0.00  0.00    +0.320 A 
ATOM     14  N   LIG    1        1.360  -0.628   0.704  0.00  0.00    -0.500 NA
ATOM     15  C   LIG    1        0.467   0.002   1.447  0.00  0.00    +0.340 A 
ATOM     16  C   LIG    1        0.477   1.389   1.485  0.00  0.00    -0.010 A 
ATOM     17  C   LIG    1        1.438   2.064   0.730  0.00  0.00    +0.130 A 
ATOM     18  N   LIG    1        2.302   1.355   0.008  0.00  0.00    -0.500 NA
ENDBRANCH   8  17
ENDBRANCH   1   9
BRANCH   5  19
ATOM     19  C   LIG    1        4.850   8.430  -0.392  0.00  0.00    +0.560 C 
ATOM     20  N   LIG    1        6.026   7.772  -0.414  0.00  0.00    -0.720 N 
ATOM     21  H   LIG    1        6.042   6.804  -0.356  0.00  0.00    +0.400 HD
ATOM     22  O   LIG    1        4.830   9.643  -0.466  0.00  0.00    -0.510 OA
BRANCH  20  23
ATOM     23  C   LIG    1        7.281   8.519  -0.528  0.00  0.00    +0.240 C 
ATOM     24  C   LIG    1        7.576   8.799  -2.003  0.00  0.00    +0.000 C 
ATOM     25  C   LIG    1        8.887   9.579  -2.123  0.00  0.00    +0.020 C 
ATOM     26  C   LIG    1       10.027   8.755  -1.522  0.00  0.00    +0.000 C 
ATOM     27  C   LIG    1        9.732   8.476  -0.047  0.00  0.00    +0.020 C 
ATOM     28  C   LIG    1        8.422   7.695   0.072  0.00  0.00    +0.010 C 
ENDBRANCH  20  23
ENDBRANCH   5  19
TORSDOF 4
