REMARK  Name = ZINCrH000004qVkj.0
REMARK                            x       y       z     vdW  Elec       q    Type
REMARK                         _______ _______ _______ _____ _____    ______ ____
ROOT
ATOM      1  N   LIG    1       -2.431   1.024   0.019  0.00  0.00    -0.670 N 
ATOM      2  H   LIG    1       -3.279   1.488   0.103  0.00  0.00    +0.410 HD
ATOM      3  C   LIG    1       -2.406  -0.319  -0.090  0.00  0.00    +0.520 C 
ATOM      4  O   LIG    1       -1.345  -0.907  -0.098  0.00  0.00    -0.510 OA
ENDROOT
BRANCH   1  10
ATOM      5  C   LIG    1        4.521   3.111  -1.474  0.00  0.00    +0.140 C 
ATOM      6  C   LIG    1        3.099   2.890  -1.028  0.00  0.00    +0.080 A 
ATOM      7  C   LIG    1        2.322   1.864  -1.411  0.00  0.00    -0.050 A 
ATOM      8  C   LIG    1        1.027   2.035  -0.748  0.00  0.00    -0.090 A 
ATOM      9  C   LIG    1       -0.165   1.310  -0.748  0.00  0.00    +0.060 A 
ATOM     10  C   LIG    1       -1.233   1.750   0.012  0.00  0.00    +0.110 A 
ATOM     11  C   LIG    1       -1.123   2.917   0.766  0.00  0.00    +0.010 A 
ATOM     12  C   LIG    1        0.049   3.639   0.774  0.00  0.00    +0.020 A 
ATOM     13  C   LIG    1        1.136   3.209   0.020  0.00  0.00    +0.090 A 
ATOM     14  N   LIG    1        2.408   3.704  -0.173  0.00  0.00    -0.590 N 
ATOM     15  H   LIG    1        2.761   4.510   0.236  0.00  0.00    +0.410 HD
ENDBRANCH   1  10
BRANCH   3  16
ATOM     16  C   LIG    1       -3.696  -1.091  -0.202  0.00  0.00    +0.100 C 
BRANCH  16  17
ATOM     17  C   LIG    1       -3.388  -2.585  -0.312  0.00  0.00    -0.290 C 
BRANCH  17  18
ATOM     18  S   LIG    1       -4.940  -3.514  -0.447  0.00  0.00    +2.500 S 
ATOM     19  O   LIG    1       -5.574  -3.249  -1.691  0.00  0.00    -0.930 OA
ATOM     20  O   LIG    1       -5.666  -3.451   0.773  0.00  0.00    -0.930 OA
BRANCH  18  21
ATOM     21  C   LIG    1       -4.436  -5.198  -0.566  0.00  0.00    -0.660 A 
ATOM     22  C   LIG    1       -4.283  -5.957   0.579  0.00  0.00    +0.120 A 
ATOM     23  C   LIG    1       -3.888  -7.277   0.483  0.00  0.00    +0.000 A 
ATOM     24  C   LIG    1       -3.644  -7.843  -0.757  0.00  0.00    -0.040 A 
ATOM     25  C   LIG    1       -3.208  -9.245  -1.126  0.00  0.00    +0.080 C 
ATOM     26  C   LIG    1       -2.690  -9.137  -2.576  0.00  0.00    +0.040 C 
ATOM     27  C   LIG    1       -3.474  -7.924  -3.119  0.00  0.00    +0.080 C 
ATOM     28  C   LIG    1       -3.797  -7.084  -1.902  0.00  0.00    -0.120 A 
ATOM     29  C   LIG    1       -4.199  -5.763  -1.804  0.00  0.00    +0.130 A 
ENDBRANCH  18  21
ENDBRANCH  17  18
ENDBRANCH  16  17
ENDBRANCH   3  16
TORSDOF 5
