REMARK  Name = ZINCrg00000Ba3do.0
REMARK                            x       y       z     vdW  Elec       q    Type
REMARK                         _______ _______ _______ _____ _____    ______ ____
ROOT
ATOM      1  C   LIG    1       -6.977   4.240  -0.035  0.00  0.00    +0.540 C 
ATOM      2  N   LIG    1       -6.143   3.413  -0.696  0.00  0.00    -0.620 N 
ATOM      3  C   LIG    1       -6.197   1.934  -0.778  0.00  0.00    +0.280 C 
ATOM      4  C   LIG    1       -5.864   1.625  -2.261  0.00  0.00    +0.030 C 
ATOM      5  C   LIG    1       -4.976   2.807  -2.706  0.00  0.00    +0.030 C 
ATOM      6  C   LIG    1       -5.023   1.386   0.046  0.00  0.00    -0.030 C 
ATOM      7  C   LIG    1       -4.590   2.122   1.306  0.00  0.00    +0.030 C 
ATOM      8  C   LIG    1       -3.733   2.203   0.032  0.00  0.00    +0.120 C 
ATOM      9  C   LIG    1       -3.709   3.566  -0.661  0.00  0.00    +0.100 C 
ATOM     10  C   LIG    1       -4.959   3.771  -1.510  0.00  0.00    +0.230 C 
ATOM     11  O   LIG    1       -7.910   3.785   0.593  0.00  0.00    -0.530 OA
ENDROOT
BRANCH   8  12
ATOM     12  N   LIG    1       -2.466   1.467   0.022  0.00  0.00    -0.690 N 
ATOM     13  H   LIG    1       -2.469   0.497   0.017  0.00  0.00    +0.400 HD
ATOM     14  C   LIG    1       -1.297   2.138   0.020  0.00  0.00    +0.560 C 
ATOM     15  O   LIG    1       -1.294   3.353   0.026  0.00  0.00    -0.500 OA
BRANCH  14  16
ATOM     16  C   LIG    1       -0.017   1.394   0.010  0.00  0.00    -0.090 A 
ATOM     17  C   LIG    1        0.002  -0.004   0.002  0.00  0.00    +0.020 A 
ATOM     18  C   LIG    1        1.219  -0.658  -0.013  0.00  0.00    +0.270 A 
ATOM     19  N   LIG    1        2.351   0.018  -0.020  0.00  0.00    -0.450 NA
ATOM     20  C   LIG    1        2.380   1.335  -0.013  0.00  0.00    +0.280 A 
ATOM     21  C   LIG    1        1.208   2.071   0.002  0.00  0.00    -0.040 A 
ATOM     22 CL   LIG    1        1.257   3.806   0.010  0.00  0.00    -0.010 Cl
ENDBRANCH  14  16
ENDBRANCH   8  12
BRANCH   1  23
ATOM     23  C   LIG    1       -6.751   5.729  -0.075  0.00  0.00    +0.050 C 
BRANCH  23  24
ATOM     24  C   LIG    1       -7.830   6.431   0.751  0.00  0.00    +0.310 C 
BRANCH  24  29
ATOM     25  N   LIG    1       -8.243  10.037   1.337  0.00  0.00    -0.870 N 
ATOM     26  H   LIG    1       -8.843  10.632   1.813  0.00  0.00    +0.420 HD
ATOM     27  H   LIG    1       -7.497  10.401   0.836  0.00  0.00    +0.400 HD
ATOM     28  C   LIG    1       -8.445   8.705   1.373  0.00  0.00    +0.700 C 
ATOM     29  N   LIG    1       -7.611   7.879   0.712  0.00  0.00    -0.750 N 
ATOM     30  H   LIG    1       -6.865   8.243   0.210  0.00  0.00    +0.400 HD
ATOM     31  O   LIG    1       -9.380   8.249   2.003  0.00  0.00    -0.590 OA
ENDBRANCH  24  29
ENDBRANCH  23  24
ENDBRANCH   1  23
TORSDOF 5
