REMARK  Name = ZINCpe000000Wj7W.0
REMARK                            x       y       z     vdW  Elec       q    Type
REMARK                         _______ _______ _______ _____ _____    ______ ____
ROOT
ATOM      1  N   LIG    1        0.503   4.059  -1.041  0.00  0.00    -0.490 N 
ATOM      2  C   LIG    1        1.284   3.537   0.089  0.00  0.00    +0.190 C 
ATOM      3  C   LIG    1        1.347   2.010   0.000  0.00  0.00    +0.190 C 
ATOM      4  N   LIG    1       -0.018   1.465   0.010  0.00  0.00    -0.530 NA
ATOM      5  C   LIG    1       -0.799   1.987  -1.120  0.00  0.00    +0.180 C 
ATOM      6  C   LIG    1       -0.862   3.514  -1.031  0.00  0.00    +0.190 C 
ENDROOT
BRANCH   1  13
ATOM      7  C   LIG    1        1.002   6.171  -2.114  0.00  0.00    +0.180 A 
ATOM      8  C   LIG    1        0.976   7.555  -2.104  0.00  0.00    -0.110 A 
ATOM      9  C   LIG    1        0.446   8.231  -1.017  0.00  0.00    +0.140 A 
ATOM     10  C   LIG    1       -0.063   7.524   0.059  0.00  0.00    -0.040 A 
ATOM     11  C   LIG    1       -0.045   6.141   0.052  0.00  0.00    +0.060 A 
ATOM     12  F   LIG    1        0.426   9.581  -1.007  0.00  0.00    -0.130 F 
ATOM     13  C   LIG    1        0.484   5.460  -1.033  0.00  0.00    +0.040 A 
BRANCH   7  15
ATOM     14  C   LIG    1        2.039   6.301  -4.250  0.00  0.00    +0.240 C 
ATOM     15  O   LIG    1        1.526   5.506  -3.178  0.00  0.00    -0.290 OA
ENDBRANCH   7  15
ENDBRANCH   1  13
BRANCH   4  16
ATOM     16  C   LIG    1        0.002  -0.004   0.002  0.00  0.00    +0.160 C 
BRANCH  16  17
ATOM     17  C   LIG    1       -1.409  -0.535   0.263  0.00  0.00    +0.330 C 
BRANCH  17  18
ATOM     18  N   LIG    1       -1.389  -2.000   0.255  0.00  0.00    -0.580 N 
ATOM     19  C   LIG    1       -1.587  -2.748  -0.836  0.00  0.00    +0.700 C 
ATOM     20  N   LIG    1       -1.515  -4.066  -0.576  0.00  0.00    -0.720 N 
ATOM     21  H   LIG    1       -1.624  -4.789  -1.212  0.00  0.00    +0.440 HD
ATOM     22  C   LIG    1       -1.244  -4.196   0.867  0.00  0.00    +0.220 C 
ATOM     23  C   LIG    1        0.090  -4.907   1.102  0.00  0.00    +0.090 C 
ATOM     24  O   LIG    1       -1.805  -2.288  -1.940  0.00  0.00    -0.540 OA
ATOM     25  C   LIG    1       -1.175  -2.760   1.347  0.00  0.00    +0.520 C 
ATOM     26  O   LIG    1       -0.970  -2.375   2.478  0.00  0.00    -0.460 OA
ENDBRANCH  17  18
ENDBRANCH  16  17
ENDBRANCH   4  16
TORSDOF 5
