REMARK  Name = ZINCb70000006kEC.0
REMARK                            x       y       z     vdW  Elec       q    Type
REMARK                         _______ _______ _______ _____ _____    ______ ____
ROOT
ATOM      1  C   LIG    1       -1.296   1.794   0.018  0.00  0.00    +0.560 C 
ATOM      2  N   LIG    1       -2.453   1.109  -0.082  0.00  0.00    -0.610 N 
ATOM      3  C   LIG    1       -2.454  -0.360  -0.092  0.00  0.00    +0.280 C 
ATOM      4  C   LIG    1       -3.216  -0.845  -1.329  0.00  0.00    +0.050 C 
ATOM      5  C   LIG    1       -4.611  -0.215  -1.343  0.00  0.00    +0.040 C 
ATOM      6  C   LIG    1       -4.484   1.308  -1.419  0.00  0.00    +0.160 C 
ATOM      7  C   LIG    1       -3.736   1.817  -0.177  0.00  0.00    +0.300 C 
ATOM      8  O   LIG    1       -1.314   3.006   0.117  0.00  0.00    -0.530 OA
ENDROOT
BRANCH   6   9
ATOM      9  N   LIG    1       -5.823   1.910  -1.465  0.00  0.00    -0.630 N 
ATOM     10  H   LIG    1       -6.316   1.572  -2.278  0.00  0.00    +0.440 HD
ATOM     11  H   LIG    1       -5.739   2.914  -1.516  0.00  0.00    +0.440 HD
ATOM     12  H   LIG    1       -6.335   1.656  -0.633  0.00  0.00    +0.430 HD
ENDBRANCH   6   9
BRANCH   1  14
ATOM     13  C   LIG    1        1.130   1.757  -0.001  0.00  0.00    +0.180 C 
ATOM     14  C   LIG    1       -0.013   1.076   0.007  0.00  0.00    -0.110 C 
ENDBRANCH   1  14
TORSDOF 2
