REMARK  Name = ZINCb70000006kEc.1
REMARK                            x       y       z     vdW  Elec       q    Type
REMARK                         _______ _______ _______ _____ _____    ______ ____
ROOT
ATOM      1  C   LIG    1       -0.705   1.938   1.219  0.00  0.00    +0.360 C 
ENDROOT
BRANCH   1   2
ATOM      2  C   LIG    1       -0.726   3.445   1.227  0.00  0.00    -0.010 A 
ATOM      3  C   LIG    1       -1.826   4.125   0.735  0.00  0.00    +0.270 A 
ATOM      4  N   LIG    1       -1.844   5.446   0.742  0.00  0.00    -0.430 NA
ATOM      5  C   LIG    1       -0.812   6.118   1.220  0.00  0.00    +0.290 A 
ATOM      6  C   LIG    1        0.289   5.439   1.712  0.00  0.00    +0.250 A 
ATOM      7  N   LIG    1        0.305   4.117   1.710  0.00  0.00    -0.420 NA
ENDBRANCH   1   2
BRANCH   1   8
ATOM      8  N   LIG    1       -0.018   1.465   0.010  0.00  0.00    -0.510 N 
ATOM      9  H   LIG    1       -0.506   1.799  -0.807  0.00  0.00    +0.430 HD
ATOM     10  H   LIG    1        0.929   1.814   0.003  0.00  0.00    +0.430 HD
BRANCH   8  11
ATOM     11  C   LIG    1        0.002  -0.004   0.002  0.00  0.00    +0.430 C 
BRANCH  11  13
ATOM     12  C   LIG    1        1.241  -0.857  -2.175  0.00  0.00    +0.190 C 
ATOM     13  C   LIG    1        0.691  -0.479  -1.209  0.00  0.00    -0.310 C 
ENDBRANCH  11  13
ENDBRANCH   8  11
ENDBRANCH   1   8
TORSDOF 4
