REMARK  Name = ZINCpk00000KfKJs.0
REMARK                            x       y       z     vdW  Elec       q    Type
REMARK                         _______ _______ _______ _____ _____    ______ ____
ROOT
ATOM      1  C   LIG    1       -2.883   0.534   5.037  0.00  0.00    +0.530 C 
ATOM      2  N   LIG    1       -4.000  -0.142   5.370  0.00  0.00    -0.730 N 
ATOM      3  H   LIG    1       -4.190  -0.998   4.956  0.00  0.00    +0.400 HD
ATOM      4  O   LIG    1       -2.646   1.605   5.555  0.00  0.00    -0.490 OA
ENDROOT
BRANCH   1   5
ATOM      5  C   LIG    1       -1.929  -0.040   4.022  0.00  0.00    +0.110 C 
BRANCH   5   6
ATOM      6  C   LIG    1       -0.770   0.905   3.832  0.00  0.00    +0.360 C 
ATOM      7  O   LIG    1       -0.407   1.607   4.744  0.00  0.00    -0.360 OA
BRANCH   6   8
ATOM      8  C   LIG    1       -0.064   0.973   2.502  0.00  0.00    +0.140 C 
BRANCH   8  10
ATOM      9  C   LIG    1       -0.235   1.793   0.148  0.00  0.00    +0.030 C 
ATOM     10  C   LIG    1       -0.878   1.836   1.536  0.00  0.00    +0.020 C 
ENDBRANCH   8  10
BRANCH   8  11
ATOM     11  O   LIG    1        1.232   1.548   2.679  0.00  0.00    -0.360 OA
ATOM     12  C   LIG    1        2.260   0.910   1.919  0.00  0.00    +0.200 C 
ENDBRANCH   8  11
ENDBRANCH   6   8
ENDBRANCH   5   6
BRANCH   5  13
ATOM     13  C   LIG    1       -1.429  -1.339   4.499  0.00  0.00    +0.200 C 
ATOM     14  N   LIG    1       -1.043  -2.343   4.868  0.00  0.00    -0.370 NA
ENDBRANCH   5  13
ENDBRANCH   1   5
BRANCH   2  15
ATOM     15  C   LIG    1       -4.928   0.416   6.356  0.00  0.00    +0.280 C 
BRANCH  15  16
ATOM     16  C   LIG    1       -6.105  -0.542   6.550  0.00  0.00    +0.070 C 
BRANCH  16  17
ATOM     17  C   LIG    1       -7.059   0.032   7.565  0.00  0.00    -0.080 A 
ATOM     18  C   LIG    1       -6.902  -0.266   8.905  0.00  0.00    +0.020 A 
ATOM     19  C   LIG    1       -7.772   0.263   9.841  0.00  0.00    -0.030 A 
ATOM     20  C   LIG    1       -8.811   1.084   9.434  0.00  0.00    +0.100 A 
ATOM     21  C   LIG    1       -8.973   1.379   8.084  0.00  0.00    +0.100 A 
ATOM     22  C   LIG    1       -8.094   0.851   7.152  0.00  0.00    -0.030 A 
BRANCH  21  23
ATOM     23  O   LIG    1       -9.991   2.186   7.680  0.00  0.00    -0.310 OA
ATOM     24  C   LIG    1      -10.095   2.446   6.279  0.00  0.00    +0.240 C 
ENDBRANCH  21  23
BRANCH  20  25
ATOM     25  O   LIG    1       -9.671   1.600  10.353  0.00  0.00    -0.310 OA
ATOM     26  C   LIG    1       -9.444   1.254  11.720  0.00  0.00    +0.250 C 
ENDBRANCH  20  25
ENDBRANCH  16  17
ENDBRANCH  15  16
ENDBRANCH   2  15
TORSDOF 11
