REMARK  Name = ZINCpe000000UnZc.0
REMARK                            x       y       z     vdW  Elec       q    Type
REMARK                         _______ _______ _______ _____ _____    ______ ____
ROOT
ATOM      1  C   LIG    1       -1.238   2.188   0.020  0.00  0.00    +0.360 C 
ENDROOT
BRANCH   1   5
ATOM      2  N   LIG    1       -3.436   2.599   3.605  0.00  0.00    -0.520 NA
ATOM      3  C   LIG    1       -2.986   3.824   2.928  0.00  0.00    +0.200 C 
ATOM      4  C   LIG    1       -2.665   3.507   1.466  0.00  0.00    +0.200 C 
ATOM      5  N   LIG    1       -1.629   2.467   1.409  0.00  0.00    -0.540 NA
ATOM      6  C   LIG    1       -2.078   1.242   2.085  0.00  0.00    +0.190 C 
ATOM      7  C   LIG    1       -2.399   1.559   3.548  0.00  0.00    +0.190 C 
BRANCH   2   8
ATOM      8  C   LIG    1       -3.826   2.878   4.993  0.00  0.00    +0.220 C 
BRANCH   8  11
ATOM      9  C   LIG    1       -5.615   0.513   7.415  0.00  0.00    +0.290 C 
ATOM     10  N   LIG    1       -4.953   1.691   6.848  0.00  0.00    -0.630 N 
ATOM     11  C   LIG    1       -4.506   1.667   5.577  0.00  0.00    +0.510 C 
ATOM     12  O   LIG    1       -4.652   0.669   4.902  0.00  0.00    -0.520 OA
ATOM     13  C   LIG    1       -4.778   2.896   7.663  0.00  0.00    +0.280 C 
ENDBRANCH   8  11
ENDBRANCH   2   8
ENDBRANCH   1   5
BRANCH   1  14
ATOM     14  C   LIG    1       -0.016   1.307   0.009  0.00  0.00    +0.190 A 
ATOM     15  N   LIG    1        0.002  -0.004   0.002  0.00  0.00    -0.470 NA
ATOM     16  C   LIG    1        1.302  -0.348  -0.012  0.00  0.00    +0.180 A 
ATOM     17  N   LIG    1        1.996   0.750  -0.013  0.00  0.00    -0.380 NA
ATOM     18  O   LIG    1        1.258   1.713  -0.001  0.00  0.00    +0.090 OA
BRANCH  16  19
ATOM     19  C   LIG    1        1.853  -1.751  -0.025  0.00  0.00    +0.220 C 
BRANCH  19  20
ATOM     20  C   LIG    1        2.023  -2.210  -1.451  0.00  0.00    -0.090 A 
ATOM     21  C   LIG    1        0.989  -2.864  -2.094  0.00  0.00    +0.030 A 
ATOM     22  C   LIG    1        1.144  -3.281  -3.403  0.00  0.00    +0.000 A 
ATOM     23  C   LIG    1        2.336  -3.054  -4.065  0.00  0.00    +0.000 A 
ATOM     24  C   LIG    1        3.372  -2.405  -3.419  0.00  0.00    +0.000 A 
ATOM     25  C   LIG    1        3.216  -1.983  -2.112  0.00  0.00    +0.010 A 
ENDBRANCH  19  20
ENDBRANCH  16  19
ENDBRANCH   1  14
TORSDOF 6
