REMARK  Name = ZINCvU0000000I1Y.0
REMARK                            x       y       z     vdW  Elec       q    Type
REMARK                         _______ _______ _______ _____ _____    ______ ____
ROOT
ATOM      1  C   LIG    1      -11.858   1.832   0.760  0.00  0.00    +0.010 C 
ATOM      2  C   LIG    1      -12.792   0.661   0.448  0.00  0.00    +0.080 C 
ENDROOT
BRANCH   1   3
ATOM      3  C   LIG    1      -12.569   2.818   1.651  0.00  0.00    +0.540 C 
ATOM      4  N   LIG    1      -13.441   3.699   1.121  0.00  0.00    -0.720 N 
ATOM      5  H   LIG    1      -13.610   3.698   0.165  0.00  0.00    +0.400 HD
ATOM      6  O   LIG    1      -12.357   2.819   2.845  0.00  0.00    -0.510 OA
BRANCH   4   7
ATOM      7  C   LIG    1      -14.132   4.657   1.986  0.00  0.00    +0.330 C 
BRANCH   7   8
ATOM      8  C   LIG    1      -15.043   5.521   1.153  0.00  0.00    -0.110 A 
ATOM      9  C   LIG    1      -14.571   6.705   0.617  0.00  0.00    +0.040 A 
ATOM     10  C   LIG    1      -15.402   7.498  -0.153  0.00  0.00    -0.030 A 
ATOM     11  C   LIG    1      -16.713   7.113  -0.380  0.00  0.00    +0.110 A 
ATOM     12  C   LIG    1      -17.189   5.924   0.164  0.00  0.00    +0.100 A 
ATOM     13  C   LIG    1      -16.351   5.131   0.930  0.00  0.00    -0.010 A 
BRANCH  12  14
ATOM     14  O   LIG    1      -18.476   5.541  -0.056  0.00  0.00    -0.310 OA
ATOM     15  C   LIG    1      -18.896   4.309   0.533  0.00  0.00    +0.250 C 
ENDBRANCH  12  14
BRANCH  11  16
ATOM     16  O   LIG    1      -17.532   7.896  -1.131  0.00  0.00    -0.310 OA
ATOM     17  C   LIG    1      -16.975   9.102  -1.657  0.00  0.00    +0.240 C 
ENDBRANCH  11  16
ENDBRANCH   7   8
ENDBRANCH   4   7
ENDBRANCH   1   3
BRANCH   1  18
ATOM     18  S   LIG    1      -10.376   1.215   1.604  0.00  0.00    -0.160 S 
BRANCH  18  19
ATOM     19  C   LIG    1       -9.587   0.180   0.340  0.00  0.00    +0.170 C 
BRANCH  19  22
ATOM     20  C   LIG    1       -6.128  -0.412   1.308  0.00  0.00    +0.120 A 
ATOM     21  N   LIG    1       -7.161   0.193   0.795  0.00  0.00    -0.450 NA
ATOM     22  C   LIG    1       -8.320  -0.415   0.896  0.00  0.00    +0.080 A 
ATOM     23  C   LIG    1       -8.307  -1.594   1.528  0.00  0.00    -0.050 A 
ATOM     24  S   LIG    1       -6.650  -1.935   2.023  0.00  0.00    +0.100 S 
BRANCH  20  28
ATOM     25  C   LIG    1       -2.143   1.058   1.278  0.00  0.00    -0.060 A 
ATOM     26  C   LIG    1       -3.155   1.800   0.696  0.00  0.00    +0.010 A 
ATOM     27  C   LIG    1       -4.451   1.325   0.698  0.00  0.00    +0.080 A 
ATOM     28  C   LIG    1       -4.740   0.099   1.297  0.00  0.00    -0.040 A 
ATOM     29  C   LIG    1       -3.716  -0.642   1.887  0.00  0.00    +0.040 A 
ATOM     30  C   LIG    1       -2.424  -0.159   1.874  0.00  0.00    +0.010 A 
BRANCH  25  32
ATOM     31  C   LIG    1       -0.013   1.086   0.008  0.00  0.00    +0.030 C 
ATOM     32  C   LIG    1       -0.729   1.579   1.267  0.00  0.00    +0.060 C 
ENDBRANCH  25  32
ENDBRANCH  20  28
ENDBRANCH  19  22
ENDBRANCH  18  19
ENDBRANCH   1  18
TORSDOF 10
