REMARK  Name = ZINCpe000000YJaU.0
REMARK                            x       y       z     vdW  Elec       q    Type
REMARK                         _______ _______ _______ _____ _____    ______ ____
ROOT
ATOM      1  C   LIG    1       -0.480   3.835   2.199  0.00  0.00    +0.560 C 
ATOM      2  N   LIG    1       -0.894   3.042   1.191  0.00  0.00    -0.610 N 
ATOM      3  C   LIG    1       -0.763   1.580   1.278  0.00  0.00    +0.280 C 
ATOM      4  C   LIG    1       -0.069   1.077   0.008  0.00  0.00    +0.230 C 
ATOM      5  N   LIG    1       -0.796   1.566  -1.171  0.00  0.00    -0.460 N 
ATOM      6  C   LIG    1       -0.766   3.033  -1.244  0.00  0.00    +0.210 C 
ATOM      7  C   LIG    1       -1.490   3.617  -0.026  0.00  0.00    +0.320 C 
ATOM      8  O   LIG    1       -0.499   5.044   2.068  0.00  0.00    -0.500 OA
ENDROOT
BRANCH   1  13
ATOM      9  C   LIG    1       -0.350   1.764   5.328  0.00  0.00    -0.670 A 
ATOM     10  C   LIG    1        0.892   2.111   5.830  0.00  0.00    +0.170 A 
ATOM     11  C   LIG    1        1.689   3.018   5.155  0.00  0.00    +0.040 A 
ATOM     12  C   LIG    1        1.250   3.583   3.974  0.00  0.00    +0.000 A 
ATOM     13  C   LIG    1       -0.003   3.236   3.462  0.00  0.00    -0.120 A 
ATOM     14 BR   LIG    1        2.341   4.823   3.053  0.00  0.00    -0.010 Br
ATOM     15  C   LIG    1       -0.803   2.324   4.152  0.00  0.00    +0.180 A 
BRANCH   9  16
ATOM     16  S   LIG    1       -1.357   0.608   6.196  0.00  0.00    +2.700 S 
ATOM     17  O   LIG    1       -0.476  -0.173   6.992  0.00  0.00    -0.950 OA
ATOM     18  O   LIG    1       -2.241   0.046   5.237  0.00  0.00    -0.950 OA
BRANCH  16  19
ATOM     19  N   LIG    1       -2.297   1.472   7.250  0.00  0.00    -1.250 NA
ATOM     20  H   LIG    1       -2.928   1.012   7.827  0.00  0.00    +0.420 HD
ATOM     21  H   LIG    1       -2.218   2.438   7.291  0.00  0.00    +0.420 HD
ENDBRANCH  16  19
ENDBRANCH   9  16
ENDBRANCH   1  13
BRANCH   5  22
ATOM     22  C   LIG    1       -0.296   1.002  -2.331  0.00  0.00    +0.490 A 
ATOM     23  N   LIG    1        0.714   0.148  -2.252  0.00  0.00    -0.550 NA
ATOM     24  C   LIG    1        1.212  -0.414  -3.342  0.00  0.00    +0.340 A 
ATOM     25  C   LIG    1        0.671  -0.091  -4.576  0.00  0.00    -0.110 A 
ATOM     26  C   LIG    1       -0.382   0.810  -4.623  0.00  0.00    +0.350 A 
ATOM     27  N   LIG    1       -0.836   1.331  -3.496  0.00  0.00    -0.530 NA
ENDBRANCH   5  22
TORSDOF 4
