REMARK  Name = ZINCpk00000ebaaf.0
REMARK                            x       y       z     vdW  Elec       q    Type
REMARK                         _______ _______ _______ _____ _____    ______ ____
ROOT
ATOM      1  C   LIG    1       -3.357   3.374  -9.313  0.00  0.00    +0.180 C 
ATOM      2  C   LIG    1       -2.580   2.841  -8.136  0.00  0.00    +0.410 A 
ATOM      3  N   LIG    1       -2.998   3.129  -6.941  0.00  0.00    -0.530 NA
ATOM      4  C   LIG    1       -2.352   2.686  -5.835  0.00  0.00    +0.190 A 
ATOM      5  C   LIG    1       -2.806   2.998  -4.550  0.00  0.00    +0.030 A 
ATOM      6  C   LIG    1       -2.135   2.532  -3.458  0.00  0.00    +0.100 A 
ATOM      7  C   LIG    1       -0.982   1.748  -3.605  0.00  0.00    -0.160 A 
ATOM      8  C   LIG    1       -0.512   1.423  -4.876  0.00  0.00    +0.180 A 
ATOM      9  C   LIG    1       -1.193   1.890  -5.992  0.00  0.00    -0.210 A 
ATOM     10  C   LIG    1       -0.747   1.582  -7.360  0.00  0.00    +0.550 A 
ATOM     11  O   LIG    1        0.242   0.903  -7.566  0.00  0.00    -0.500 OA
ATOM     12  N   LIG    1       -1.480   2.085  -8.382  0.00  0.00    -0.540 N 
ATOM     13  C   LIG    1       -1.081   1.810  -9.764  0.00  0.00    +0.330 C 
ENDROOT
BRANCH   7  14
ATOM     14  C   LIG    1       -0.268   1.258  -2.409  0.00  0.00    +0.570 C 
ATOM     15  N   LIG    1       -0.721   1.571  -1.179  0.00  0.00    -0.730 N 
ATOM     16  H   LIG    1       -1.516   2.118  -1.079  0.00  0.00    +0.400 HD
ATOM     17  O   LIG    1        0.729   0.574  -2.534  0.00  0.00    -0.520 OA
BRANCH  15  18
ATOM     18  C   LIG    1       -0.013   1.086   0.008  0.00  0.00    +0.270 C 
BRANCH  18  19
ATOM     19  C   LIG    1       -0.729   1.579   1.267  0.00  0.00    +0.300 C 
BRANCH  19  20
ATOM     20  N   LIG    1       -0.020   1.094   2.454  0.00  0.00    -0.460 N 
ATOM     21  C   LIG    1       -0.313  -0.018   3.163  0.00  0.00    +0.400 A 
ATOM     22  N   LIG    1        0.539  -0.123   4.146  0.00  0.00    -0.490 NA
ATOM     23  C   LIG    1        1.391   0.913   4.106  0.00  0.00    +0.000 A 
ATOM     24  C   LIG    1        2.522   1.167   5.068  0.00  0.00    +0.140 C 
ATOM     25  C   LIG    1        1.058   1.685   3.054  0.00  0.00    -0.030 A 
ATOM     26  C   LIG    1        1.741   2.958   2.623  0.00  0.00    +0.130 C 
ENDBRANCH  19  20
ENDBRANCH  18  19
ENDBRANCH  15  18
ENDBRANCH   7  14
TORSDOF 4
