REMARK  Name = ZINCqH0000037UTE.0
REMARK                            x       y       z     vdW  Elec       q    Type
REMARK                         _______ _______ _______ _____ _____    ______ ____
ROOT
ATOM      1  C   LIG    1        4.473  -0.094  -2.473  0.00  0.00    +0.130 A 
ATOM      2  C   LIG    1        3.732   1.078  -2.389  0.00  0.00    +0.020 A 
ATOM      3  C   LIG    1        3.965   2.106  -3.282  0.00  0.00    +0.050 A 
ATOM      4  C   LIG    1        4.927   1.964  -4.266  0.00  0.00    -0.110 A 
ATOM      5  C   LIG    1        5.663   0.797  -4.355  0.00  0.00    +0.050 A 
ATOM      6  C   LIG    1        5.439  -0.232  -3.462  0.00  0.00    +0.030 A 
ENDROOT
BRANCH   1   7
ATOM      7  N   LIG    1        4.244  -1.133  -1.569  0.00  0.00    -1.060 N 
ATOM      8  H   LIG    1        3.447  -1.680  -1.650  0.00  0.00    +0.430 HD
BRANCH   7   9
ATOM      9  S   LIG    1        5.332  -1.432  -0.357  0.00  0.00    +2.690 S 
ATOM     10  O   LIG    1        4.785  -2.486   0.423  0.00  0.00    -0.950 OA
ATOM     11  O   LIG    1        6.610  -1.504  -0.974  0.00  0.00    -0.940 OA
BRANCH   9  15
ATOM     12  C   LIG    1        7.385   3.153   1.086  0.00  0.00    +0.110 C 
ATOM     13  C   LIG    1        6.341   2.087   1.299  0.00  0.00    -0.070 A 
ATOM     14  C   LIG    1        6.319   0.970   0.486  0.00  0.00    +0.140 A 
ATOM     15  C   LIG    1        5.361  -0.008   0.681  0.00  0.00    -0.660 A 
ATOM     16  C   LIG    1        4.426   0.131   1.690  0.00  0.00    +0.130 A 
ATOM     17  C   LIG    1        4.448   1.248   2.503  0.00  0.00    +0.040 A 
ATOM     18  C   LIG    1        5.405   2.227   2.308  0.00  0.00    -0.040 A 
ATOM     19 BR   LIG    1        5.431   3.759   3.416  0.00  0.00    -0.030 Br
ENDBRANCH   9  15
ENDBRANCH   7   9
ENDBRANCH   1   7
BRANCH   4  20
ATOM     20  C   LIG    1        5.174   3.086  -5.242  0.00  0.00    +0.350 C 
BRANCH  20  21
ATOM     21  N   LIG    1        4.306   2.917  -6.410  0.00  0.00    -0.570 N 
ATOM     22  C   LIG    1        3.106   3.471  -6.411  0.00  0.00    +0.530 C 
ATOM     23  C   LIG    1        2.318   3.218  -7.678  0.00  0.00    +0.180 C 
ATOM     24  S   LIG    1        3.460   2.204  -8.676  0.00  0.00    -0.120 S 
ATOM     25  O   LIG    1        2.676   4.122  -5.483  0.00  0.00    -0.460 OA
ATOM     26  C   LIG    1        4.745   2.211  -7.454  0.00  0.00    +0.550 C 
ATOM     27  O   LIG    1        5.829   1.669  -7.550  0.00  0.00    -0.430 OA
ENDBRANCH  20  21
ENDBRANCH   4  20
TORSDOF 5
