REMARK  Name = ZINCrH000004tOyw.0
REMARK                            x       y       z     vdW  Elec       q    Type
REMARK                         _______ _______ _______ _____ _____    ______ ____
ROOT
ATOM      1  N   LIG    1       -0.076   5.371   1.389  0.00  0.00    -0.720 N 
ATOM      2  H   LIG    1       -0.965   5.758   1.343  0.00  0.00    +0.420 HD
ENDROOT
BRANCH   1   3
ATOM      3  C   LIG    1        0.989   6.122   1.901  0.00  0.00    +0.260 A 
ATOM      4  C   LIG    1        2.258   5.569   1.972  0.00  0.00    -0.060 A 
ATOM      5  C   LIG    1        3.310   6.315   2.474  0.00  0.00    +0.020 A 
ATOM      6  C   LIG    1        3.096   7.609   2.916  0.00  0.00    -0.030 A 
ATOM      7  C   LIG    1        1.832   8.165   2.852  0.00  0.00    +0.050 A 
ATOM      8 CL   LIG    1        4.900   5.623   2.557  0.00  0.00    -0.070 Cl
ATOM      9  C   LIG    1        0.774   7.427   2.345  0.00  0.00    +0.020 A 
BRANCH   9  10
ATOM     10  N   LIG    1       -0.507   7.989   2.280  0.00  0.00    -0.490 N 
ATOM     11  C   LIG    1       -0.531   9.142   1.369  0.00  0.00    +0.160 C 
ATOM     12  C   LIG    1       -1.958   9.688   1.281  0.00  0.00    +0.220 C 
ATOM     13  O   LIG    1       -2.416  10.026   2.594  0.00  0.00    -0.380 OA
ATOM     14  C   LIG    1       -2.407   8.926   3.507  0.00  0.00    +0.220 C 
ATOM     15  C   LIG    1       -0.984   8.372   3.617  0.00  0.00    +0.160 C 
ENDBRANCH   9  10
ENDBRANCH   1   3
BRANCH   1  16
ATOM     16  C   LIG    1        0.151   4.001   0.922  0.00  0.00    +0.300 C 
BRANCH  16  18
ATOM     17  O   LIG    1       -2.139   4.112   0.363  0.00  0.00    -0.500 OA
ATOM     18  C   LIG    1       -1.146   3.418   0.423  0.00  0.00    +0.510 C 
ATOM     19  N   LIG    1       -1.203   2.126   0.044  0.00  0.00    -0.550 N 
ATOM     20  C   LIG    1        0.038   1.358  -0.010  0.00  0.00    +0.300 C 
ATOM     21  C   LIG    1        0.166   0.730  -1.405  0.00  0.00    +0.100 C 
ATOM     22  S   LIG    1       -1.174  -0.482  -1.595  0.00  0.00    -0.100 S 
ATOM     23  C   LIG    1       -2.585   0.414  -1.030  0.00  0.00    -0.120 A 
ATOM     24  C   LIG    1       -3.853  -0.066  -1.339  0.00  0.00    +0.050 A 
ATOM     25  C   LIG    1       -4.977   0.604  -0.899  0.00  0.00    +0.010 A 
ATOM     26  C   LIG    1       -4.843   1.758  -0.148  0.00  0.00    +0.030 A 
ATOM     27  C   LIG    1       -3.588   2.243   0.159  0.00  0.00    +0.040 A 
ATOM     28  C   LIG    1       -2.446   1.578  -0.281  0.00  0.00    +0.150 A 
ENDBRANCH  16  18
ENDBRANCH   1  16
TORSDOF 4
