REMARK  Name = ZINCvU0000000Cou.0
REMARK                            x       y       z     vdW  Elec       q    Type
REMARK                         _______ _______ _______ _____ _____    ______ ____
ROOT
ATOM      1  O   LIG    1       -4.503  -1.317   0.018  0.00  0.00    -0.490 OA
ATOM      2  C   LIG    1       -3.385  -1.787   0.016  0.00  0.00    +0.540 C 
ATOM      3  N   LIG    1       -3.216  -3.124   0.005  0.00  0.00    -0.660 N 
ATOM      4  H   LIG    1       -2.325  -3.499  -0.078  0.00  0.00    +0.420 HD
ENDROOT
BRANCH   3   5
ATOM      5  C   LIG    1       -4.326  -3.972   0.112  0.00  0.00    +0.130 A 
ATOM      6  C   LIG    1       -5.486  -3.523   0.725  0.00  0.00    +0.120 A 
ATOM      7  C   LIG    1       -6.582  -4.360   0.827  0.00  0.00    -0.190 A 
ATOM      8  C   LIG    1       -6.521  -5.648   0.327  0.00  0.00    +0.100 A 
ATOM      9  C   LIG    1       -5.366  -6.103  -0.282  0.00  0.00    -0.040 A 
ATOM     10  C   LIG    1       -4.266  -5.270  -0.391  0.00  0.00    +0.130 A 
BRANCH   7  11
ATOM     11  C   LIG    1       -7.844  -3.870   1.488  0.00  0.00    +0.510 C 
ATOM     12  F   LIG    1       -8.334  -2.759   0.793  0.00  0.00    -0.170 F 
ATOM     13  F   LIG    1       -7.566  -3.506   2.811  0.00  0.00    -0.170 F 
ATOM     14  F   LIG    1       -8.803  -4.888   1.476  0.00  0.00    -0.180 F 
ENDBRANCH   7  11
BRANCH  10  15
ATOM     15  O   LIG    1       -3.129  -5.717  -0.989  0.00  0.00    -0.300 OA
BRANCH  15  16
ATOM     16  C   LIG    1       -3.139  -7.058  -1.482  0.00  0.00    +0.250 C 
BRANCH  16  17
ATOM     17  C   LIG    1       -1.784  -7.379  -2.115  0.00  0.00    +0.470 C 
ATOM     18  F   LIG    1       -1.542  -6.495  -3.172  0.00  0.00    -0.170 F 
ATOM     19  F   LIG    1       -1.794  -8.692  -2.598  0.00  0.00    -0.170 F 
ATOM     20  F   LIG    1       -0.776  -7.243  -1.154  0.00  0.00    -0.170 F 
ENDBRANCH  16  17
ENDBRANCH  15  16
ENDBRANCH  10  15
ENDBRANCH   3   5
BRANCH   2  21
ATOM     21  C   LIG    1       -2.185  -0.876   0.026  0.00  0.00    +0.100 C 
BRANCH  21  22
ATOM     22  S   LIG    1       -2.738   0.852   0.040  0.00  0.00    -0.010 S 
BRANCH  22  23
ATOM     23  C   LIG    1       -1.223   1.753   0.050  0.00  0.00    -0.100 A 
ATOM     24  C   LIG    1       -0.011   1.075   0.047  0.00  0.00    +0.000 A 
ATOM     25  C   LIG    1        1.176   1.781   0.051  0.00  0.00    +0.050 A 
ATOM     26  C   LIG    1        1.162   3.168   0.062  0.00  0.00    +0.050 A 
ATOM     27  O   LIG    1        2.343   3.846   0.069  0.00  0.00    -0.310 OA
ATOM     28  C   LIG    1        2.293   5.230  -0.295  0.00  0.00    +0.220 C 
ATOM     29  C   LIG    1        1.123   5.882   0.456  0.00  0.00    +0.230 C 
ATOM     30  O   LIG    1       -0.083   5.210   0.076  0.00  0.00    -0.300 OA
ATOM     31  C   LIG    1       -0.049   3.850   0.069  0.00  0.00    +0.070 A 
ATOM     32  C   LIG    1       -1.241   3.141   0.067  0.00  0.00    +0.050 A 
ENDBRANCH  22  23
ENDBRANCH  21  22
ENDBRANCH   2  21
TORSDOF 8
