REMARK  Name = ZINCrD000000BZWg.0
REMARK                            x       y       z     vdW  Elec       q    Type
REMARK                         _______ _______ _______ _____ _____    ______ ____
ROOT
ATOM      1  C   LIG    1        1.249   0.560   8.404  0.00  0.00    +0.010 C 
ATOM      2  C   LIG    1        0.428  -0.379   7.517  0.00  0.00    +0.050 C 
ATOM      3  C   LIG    1        1.369  -1.130   6.568  0.00  0.00    +0.300 C 
ATOM      4  N   LIG    1        2.174  -0.149   5.827  0.00  0.00    -1.000 NA
ATOM      5  C   LIG    1        2.936   0.855   6.582  0.00  0.00    +0.300 C 
ATOM      6  C   LIG    1        1.974   1.586   7.531  0.00  0.00    +0.030 C 
ENDROOT
BRANCH   1   8
ATOM      7  O   LIG    1       -0.862   1.054   9.337  0.00  0.00    -0.510 OA
ATOM      8  C   LIG    1        0.331   1.274   9.362  0.00  0.00    +0.520 C 
ATOM      9  N   LIG    1        0.835   2.158  10.246  0.00  0.00    -0.670 N 
ATOM     10  H   LIG    1        1.794   2.284  10.312  0.00  0.00    +0.410 HD
BRANCH   9  11
ATOM     11  C   LIG    1       -0.026   2.893  11.070  0.00  0.00    +0.130 A 
ATOM     12  C   LIG    1        0.290   4.200  11.416  0.00  0.00    +0.020 A 
ATOM     13  C   LIG    1       -0.563   4.926  12.224  0.00  0.00    +0.010 A 
ATOM     14  C   LIG    1       -1.728   4.347  12.698  0.00  0.00    +0.090 A 
ATOM     15  C   LIG    1       -2.043   3.042  12.358  0.00  0.00    +0.010 A 
ATOM     16  F   LIG    1       -2.559   5.056  13.493  0.00  0.00    -0.140 F 
ATOM     17  C   LIG    1       -1.195   2.315  11.546  0.00  0.00    +0.060 A 
ENDBRANCH   9  11
ENDBRANCH   1   8
BRANCH   4  18
ATOM     18  S   LIG    1        2.227  -0.179   4.172  0.00  0.00    +2.600 S 
ATOM     19  O   LIG    1        3.478   0.413   3.851  0.00  0.00    -0.950 OA
ATOM     20  O   LIG    1        1.950  -1.532   3.837  0.00  0.00    -0.950 OA
BRANCH  18  21
ATOM     21  C   LIG    1        0.862   0.897   3.655  0.00  0.00    -0.330 C 
BRANCH  21  22
ATOM     22  C   LIG    1        0.806   0.952   2.127  0.00  0.00    -0.070 C 
ATOM     23  C   LIG    1        0.557  -0.407   1.405  0.00  0.00    +0.010 C 
ATOM     24  C   LIG    1        0.042  -0.015   0.001  0.00  0.00    +0.020 C 
ATOM     25  C   LIG    1        0.029   1.544   0.007  0.00  0.00    -0.010 C 
ATOM     26  C   LIG    1        1.535   1.947   0.002  0.00  0.00    +0.020 C 
ATOM     27  C   LIG    1       -0.341   1.825   1.506  0.00  0.00    +0.040 C 
ATOM     28  C   LIG    1        2.062   1.546   1.420  0.00  0.00    +0.010 C 
ENDBRANCH  21  22
ENDBRANCH  18  21
ENDBRANCH   4  18
TORSDOF 5
