REMARK  Name = ZINCvU00000005ls.0
REMARK                            x       y       z     vdW  Elec       q    Type
REMARK                         _______ _______ _______ _____ _____    ______ ____
ROOT
ATOM      1  C   LIG    1        1.186   1.791  -0.019  0.00  0.00    -0.120 A 
ATOM      2  C   LIG    1       -0.012   1.074  -0.018  0.00  0.00    +0.080 A 
ATOM      3  C   LIG    1       -1.216   1.749  -0.020  0.00  0.00    +0.030 A 
ATOM      4  C   LIG    1       -1.237   3.132  -0.010  0.00  0.00    -0.070 A 
ATOM      5  C   LIG    1       -0.053   3.848  -0.010  0.00  0.00    +0.030 A 
ATOM      6  C   LIG    1        1.157   3.186  -0.015  0.00  0.00    +0.040 A 
ENDROOT
BRANCH   1   9
ATOM      7  N   LIG    1        3.634   1.769  -0.024  0.00  0.00    -0.660 N 
ATOM      8  H   LIG    1        3.618   2.737  -0.086  0.00  0.00    +0.410 HD
ATOM      9  C   LIG    1        2.479   1.075  -0.024  0.00  0.00    +0.560 C 
ATOM     10  O   LIG    1        2.500  -0.141  -0.028  0.00  0.00    -0.520 OA
BRANCH   7  14
ATOM     11  C   LIG    1        7.280  -0.245   0.245  0.00  0.00    +0.160 A 
ATOM     12  C   LIG    1        6.221  -0.813  -0.448  0.00  0.00    -0.090 A 
ATOM     13  C   LIG    1        5.012  -0.148  -0.533  0.00  0.00    +0.110 A 
ATOM     14  C   LIG    1        4.859   1.093   0.066  0.00  0.00    +0.080 A 
ATOM     15  C   LIG    1        5.922   1.664   0.763  0.00  0.00    +0.150 A 
ATOM     16  C   LIG    1        7.130   0.993   0.850  0.00  0.00    -0.090 A 
BRANCH  11  18
ATOM     17  C   LIG    1        8.550  -2.176  -0.316  0.00  0.00    +0.250 C 
ATOM     18  O   LIG    1        8.466  -0.904   0.331  0.00  0.00    -0.320 OA
ENDBRANCH  11  18
BRANCH  15  19
ATOM     19  O   LIG    1        5.772   2.878   1.357  0.00  0.00    -0.310 OA
ATOM     20  C   LIG    1        6.904   3.403   2.054  0.00  0.00    +0.250 C 
ENDBRANCH  15  19
ENDBRANCH   7  14
ENDBRANCH   1   9
BRANCH   4  21
ATOM     21  C   LIG    1       -2.555   3.862  -0.006  0.00  0.00    +0.250 C 
BRANCH  21  22
ATOM     22  O   LIG    1       -2.974   4.097  -1.351  0.00  0.00    -0.310 OA
BRANCH  22  23
ATOM     23  C   LIG    1       -4.153   4.750  -1.526  0.00  0.00    +0.120 A 
ATOM     24  C   LIG    1       -4.894   5.152  -0.424  0.00  0.00    -0.080 A 
ATOM     25  C   LIG    1       -6.090   5.821  -0.603  0.00  0.00    +0.050 A 
ATOM     26  C   LIG    1       -6.553   6.080  -1.880  0.00  0.00    -0.110 A 
ATOM     27  C   LIG    1       -5.819   5.676  -2.980  0.00  0.00    +0.050 A 
ATOM     28  C   LIG    1       -4.621   5.011  -2.805  0.00  0.00    -0.020 A 
BRANCH  26  29
ATOM     29  C   LIG    1       -7.861   6.804  -2.073  0.00  0.00    -0.030 C 
ATOM     30  C   LIG    1       -7.616   8.099  -2.851  0.00  0.00    +0.040 C 
ATOM     31  C   LIG    1       -8.466   7.137  -0.707  0.00  0.00    +0.030 C 
ATOM     32  C   LIG    1       -8.827   5.913  -2.855  0.00  0.00    +0.040 C 
ENDBRANCH  26  29
ENDBRANCH  22  23
ENDBRANCH  21  22
ENDBRANCH   4  21
TORSDOF 8
