REMARK  Name = ZINCrH00000No51R.0
REMARK                            x       y       z     vdW  Elec       q    Type
REMARK                         _______ _______ _______ _____ _____    ______ ____
ROOT
ATOM      1  N   LIG    1       -3.604   1.002   1.666  0.00  0.00    -0.480 N 
ENDROOT
BRANCH   1   2
ATOM      2  C   LIG    1       -4.794   1.662   1.936  0.00  0.00    +0.330 A 
ATOM      3  N   LIG    1       -5.941   1.217   1.434  0.00  0.00    -0.520 NA
ATOM      4  C   LIG    1       -7.075   1.838   1.693  0.00  0.00    +0.490 A 
ATOM      5  N   LIG    1       -7.120   2.920   2.443  0.00  0.00    -0.500 NA
ATOM      6  C   LIG    1       -6.017   3.429   2.976  0.00  0.00    +0.300 A 
ATOM      7  C   LIG    1       -4.805   2.808   2.737  0.00  0.00    +0.030 A 
ATOM      8  F   LIG    1       -3.661   3.297   3.263  0.00  0.00    -0.100 F 
ENDBRANCH   1   2
BRANCH   1   9
ATOM      9  C   LIG    1       -3.687  -0.412   2.053  0.00  0.00    +0.260 C 
BRANCH   9  10
ATOM     10  C   LIG    1       -3.175  -0.580   3.485  0.00  0.00    -0.120 C 
ATOM     11  C   LIG    1       -2.746   0.683   4.235  0.00  0.00    +0.050 C 
ATOM     12  C   LIG    1       -1.692  -0.310   3.742  0.00  0.00    +0.030 C 
BRANCH  10  13
ATOM     13  C   LIG    1       -3.842  -1.692   4.298  0.00  0.00    +0.150 C 
ATOM     14  C   LIG    1       -3.580  -3.103   3.743  0.00  0.00    +0.000 C 
ATOM     15  C   LIG    1       -5.049  -3.419   4.075  0.00  0.00    +0.000 C 
ATOM     16  C   LIG    1       -5.322  -1.911   3.944  0.00  0.00    +0.000 C 
BRANCH  13  17
ATOM     17  O   LIG    1       -3.600  -1.575   5.701  0.00  0.00    -0.540 OA
ATOM     18  H   LIG    1       -4.014  -2.271   6.231  0.00  0.00    +0.380 HD
ENDBRANCH  13  17
ENDBRANCH  10  13
ENDBRANCH   9  10
ENDBRANCH   1   9
BRANCH   1  19
ATOM     19  C   LIG    1       -3.235   1.140   0.251  0.00  0.00    +0.260 C 
BRANCH  19  20
ATOM     20  C   LIG    1       -2.655   2.511   0.015  0.00  0.00    -0.120 A 
ATOM     21  C   LIG    1       -3.467   3.529  -0.464  0.00  0.00    +0.020 A 
ATOM     22  C   LIG    1       -2.955   4.788  -0.693  0.00  0.00    -0.010 A 
ATOM     23  C   LIG    1       -1.613   5.045  -0.436  0.00  0.00    +0.100 A 
ATOM     24  N   LIG    1       -0.822   6.165  -0.557  0.00  0.00    -0.600 N 
ATOM     25  H   LIG    1       -1.126   7.030  -0.874  0.00  0.00    +0.420 HD
ATOM     26  C   LIG    1        0.457   5.877  -0.163  0.00  0.00    +0.220 A 
ATOM     27  C   LIG    1        0.540   4.593   0.218  0.00  0.00    -0.050 A 
ATOM     28  C   LIG    1       -0.795   4.010   0.054  0.00  0.00    -0.110 A 
ATOM     29  C   LIG    1       -1.334   2.743   0.279  0.00  0.00    +0.080 A 
ENDBRANCH  19  20
ENDBRANCH   1  19
TORSDOF 7
