REMARK  Name = ZINCqH0000038KLY.0
REMARK                            x       y       z     vdW  Elec       q    Type
REMARK                         _______ _______ _______ _____ _____    ______ ____
ROOT
ATOM      1  N   LIG    1        8.679   1.239  -3.170  0.00  0.00    -0.670 N 
ATOM      2  H   LIG    1        9.329   1.264  -2.450  0.00  0.00    +0.410 HD
ATOM      3  C   LIG    1        7.378   1.481  -2.911  0.00  0.00    +0.510 C 
ATOM      4  O   LIG    1        6.579   1.534  -3.821  0.00  0.00    -0.520 OA
ENDROOT
BRANCH   1  12
ATOM      5  C   LIG    1        7.458   2.639  -8.540  0.00  0.00    +0.180 C 
ATOM      6  C   LIG    1        8.544   1.655  -8.187  0.00  0.00    +0.110 A 
ATOM      7  N   LIG    1        9.312   1.024  -9.029  0.00  0.00    -0.240 NA
ATOM      8  N   LIG    1       10.202   0.195  -8.339  0.00  0.00    -0.400 N 
ATOM      9  C   LIG    1        9.977   0.314  -6.992  0.00  0.00    +0.300 A 
ATOM     10  N   LIG    1       10.532  -0.241  -5.923  0.00  0.00    -0.490 NA
ATOM     11  C   LIG    1       10.131   0.051  -4.705  0.00  0.00    +0.330 A 
ATOM     12  C   LIG    1        9.091   0.951  -4.478  0.00  0.00    +0.040 A 
ATOM     13  C   LIG    1        8.474   1.562  -5.557  0.00  0.00    +0.170 A 
ATOM     14  C   LIG    1       11.214  -0.665  -8.957  0.00  0.00    +0.360 C 
ATOM     15  C   LIG    1        8.924   1.238  -6.842  0.00  0.00    -0.210 A 
ENDBRANCH   1  12
BRANCH   3  16
ATOM     16  C   LIG    1        6.918   1.687  -1.491  0.00  0.00    +0.060 C 
BRANCH  16  17
ATOM     17  C   LIG    1        5.410   1.942  -1.476  0.00  0.00    +0.040 C 
BRANCH  17  18
ATOM     18  C   LIG    1        4.942   2.151  -0.034  0.00  0.00    +0.100 C 
BRANCH  18  19
ATOM     19  C   LIG    1        3.457   2.403  -0.019  0.00  0.00    -0.170 A 
ATOM     20  C   LIG    1        2.849   3.600  -0.012  0.00  0.00    +0.220 A 
ATOM     21  N   LIG    1        1.491   3.434   0.002  0.00  0.00    -0.600 N 
ATOM     22  H   LIG    1        0.842   4.155   0.009  0.00  0.00    +0.420 HD
ATOM     23  C   LIG    1        1.183   2.092   0.004  0.00  0.00    +0.090 A 
ATOM     24  C   LIG    1       -0.014   1.384   0.017  0.00  0.00    -0.010 A 
ATOM     25  C   LIG    1        0.006   0.006   0.017  0.00  0.00    +0.020 A 
ATOM     26  C   LIG    1        1.210  -0.684   0.004  0.00  0.00    -0.030 A 
ATOM     27  C   LIG    1        2.398  -0.009  -0.008  0.00  0.00    +0.050 A 
ATOM     28  C   LIG    1        2.401   1.387  -0.008  0.00  0.00    -0.100 A 
ENDBRANCH  18  19
ENDBRANCH  17  18
ENDBRANCH  16  17
ENDBRANCH   3  16
TORSDOF 5
