REMARK  Name = ZINCvU00000006Nz.0
REMARK                            x       y       z     vdW  Elec       q    Type
REMARK                         _______ _______ _______ _____ _____    ______ ____
ROOT
ATOM      1  O   LIG    1        3.548   2.002   0.084  0.00  0.00    -0.520 OA
ATOM      2  C   LIG    1        3.539   3.215   0.090  0.00  0.00    +0.520 C 
ATOM      3  N   LIG    1        2.371   3.880   0.001  0.00  0.00    -0.670 N 
ATOM      4  H   LIG    1        2.368   4.848  -0.071  0.00  0.00    +0.410 HD
ENDROOT
BRANCH   3   5
ATOM      5  C   LIG    1        1.160   3.175   0.013  0.00  0.00    +0.140 A 
ATOM      6  C   LIG    1        1.046   2.009   0.766  0.00  0.00    +0.040 A 
ATOM      7  C   LIG    1       -0.140   1.306   0.787  0.00  0.00    +0.040 A 
ATOM      8  C   LIG    1       -1.226   1.759   0.052  0.00  0.00    +0.040 A 
ATOM      9  C   LIG    1       -1.120   2.937  -0.708  0.00  0.00    +0.070 A 
ATOM     10  N   LIG    1       -2.323   3.130  -1.308  0.00  0.00    -0.500 NA
ATOM     11  C   LIG    1       -3.143   2.175  -0.970  0.00  0.00    +0.290 A 
ATOM     12  C   LIG    1       -4.570   2.042  -1.449  0.00  0.00    +0.150 C 
ATOM     13  C   LIG    1       -5.479   1.738  -0.256  0.00  0.00    +0.030 C 
ATOM     14  C   LIG    1       -5.553   0.230  -0.041  0.00  0.00    +0.010 C 
ATOM     15  C   LIG    1       -4.223  -0.426  -0.409  0.00  0.00    +0.030 C 
ATOM     16  C   LIG    1       -3.114   0.120   0.493  0.00  0.00    +0.280 C 
ATOM     17  N   LIG    1       -2.521   1.310  -0.124  0.00  0.00    -0.490 N 
ATOM     18  C   LIG    1        0.086   3.641  -0.722  0.00  0.00    +0.030 A 
ENDBRANCH   3   5
BRANCH   2  19
ATOM     19  C   LIG    1        4.835   3.977   0.197  0.00  0.00    +0.070 C 
BRANCH  19  20
ATOM     20  C   LIG    1        6.001   2.991   0.284  0.00  0.00    +0.210 C 
BRANCH  20  21
ATOM     21  C   LIG    1        7.296   3.754   0.391  0.00  0.00    +0.200 A 
ATOM     22  N   LIG    1        7.860   4.136   1.503  0.00  0.00    -0.470 NA
ATOM     23  C   LIG    1        8.998   4.784   1.213  0.00  0.00    +0.190 A 
ATOM     24  C   LIG    1        9.125   4.803  -0.139  0.00  0.00    -0.010 A 
ATOM     25  O   LIG    1        8.052   4.154  -0.641  0.00  0.00    -0.190 OA
BRANCH  24  26
ATOM     26  C   LIG    1       10.226   5.415  -0.912  0.00  0.00    -0.050 A 
ATOM     27  C   LIG    1       10.880   4.680  -1.903  0.00  0.00    +0.080 A 
ATOM     28  C   LIG    1       11.903   5.259  -2.625  0.00  0.00    +0.010 A 
ATOM     29  C   LIG    1       12.290   6.561  -2.362  0.00  0.00    +0.060 A 
ATOM     30  C   LIG    1       11.651   7.295  -1.379  0.00  0.00    -0.010 A 
ATOM     31  C   LIG    1       10.621   6.730  -0.652  0.00  0.00    +0.130 A 
ATOM     32  F   LIG    1        9.997   7.447   0.309  0.00  0.00    -0.130 F 
ENDBRANCH  24  26
ENDBRANCH  20  21
ENDBRANCH  19  20
ENDBRANCH   2  19
TORSDOF 5
