REMARK  Name = ZINCpk00000ebO8s.0
REMARK                            x       y       z     vdW  Elec       q    Type
REMARK                         _______ _______ _______ _____ _____    ______ ____
ROOT
ATOM      1  N   LIG    1       -1.310   2.472  -3.458  0.00  0.00    -0.710 N 
ATOM      2  H   LIG    1       -0.480   2.498  -2.956  0.00  0.00    +0.410 HD
ENDROOT
BRANCH   1   4
ATOM      3  C   LIG    1       -0.363   1.075  -5.236  0.00  0.00    -0.080 A 
ATOM      4  C   LIG    1       -1.377   1.759  -4.665  0.00  0.00    +0.420 A 
ATOM      5  N   LIG    1       -2.458   1.644  -5.452  0.00  0.00    -0.470 NA
ATOM      6  C   LIG    1       -2.154   0.906  -6.495  0.00  0.00    +0.230 A 
ATOM      7  S   LIG    1       -2.781   0.203  -7.994  0.00  0.00    +0.220 S 
ATOM      8  C   LIG    1       -1.249  -0.577  -8.427  0.00  0.00    +0.030 A 
ATOM      9  C   LIG    1       -0.407  -0.269  -7.456  0.00  0.00    +0.210 A 
ATOM     10  N   LIG    1       -0.854   0.514  -6.417  0.00  0.00    -0.390 N 
BRANCH   3  12
ATOM     11  O   LIG    1        1.873   1.754  -5.016  0.00  0.00    -0.120 OA
ATOM     12  N   LIG    1        1.020   0.942  -4.705  0.00  0.00    +0.050 N 
ATOM     13  O   LIG    1        1.299   0.020  -3.960  0.00  0.00    -0.120 OA
ENDBRANCH   3  12
ENDBRANCH   1   4
BRANCH   1  14
ATOM     14  C   LIG    1       -2.493   3.176  -2.957  0.00  0.00    +0.250 C 
BRANCH  14  15
ATOM     15  C   LIG    1       -2.208   3.716  -1.554  0.00  0.00    +0.170 C 
BRANCH  15  16
ATOM     16  N   LIG    1       -3.302   4.605  -1.140  0.00  0.00    -0.520 NA
ATOM     17  C   LIG    1       -4.603   3.931  -1.261  0.00  0.00    +0.150 C 
ATOM     18  C   LIG    1       -5.706   4.870  -0.765  0.00  0.00    +0.220 C 
ATOM     19  O   LIG    1       -5.657   6.090  -1.510  0.00  0.00    -0.380 OA
ATOM     20  C   LIG    1       -4.405   6.773  -1.414  0.00  0.00    +0.220 C 
ATOM     21  C   LIG    1       -3.288   5.854  -1.916  0.00  0.00    +0.150 C 
ENDBRANCH  15  16
BRANCH  15  22
ATOM     22  C   LIG    1       -2.100   2.549  -0.570  0.00  0.00    -0.020 C 
ATOM     23  C   LIG    1       -0.850   1.686  -0.873  0.00  0.00    +0.000 C 
ATOM     24  C   LIG    1       -0.276   1.353   0.518  0.00  0.00    +0.200 C 
ATOM     25  O   LIG    1       -1.154   1.934   1.497  0.00  0.00    -0.380 OA
ATOM     26  C   LIG    1       -1.803   3.060   0.863  0.00  0.00    +0.230 C 
ENDBRANCH  15  22
ENDBRANCH  14  15
ENDBRANCH   1  14
TORSDOF 6
