REMARK  Name = ZINCrH000004lmWV.0
REMARK                            x       y       z     vdW  Elec       q    Type
REMARK                         _______ _______ _______ _____ _____    ______ ____
ROOT
ATOM      1  C   LIG    1        2.477   1.075  -0.016  0.00  0.00    +0.570 C 
ATOM      2  N   LIG    1        3.633   1.767  -0.024  0.00  0.00    -0.650 N 
ATOM      3  H   LIG    1        3.618   2.737  -0.018  0.00  0.00    +0.410 HD
ATOM      4  O   LIG    1        2.496  -0.141  -0.024  0.00  0.00    -0.500 OA
ENDROOT
BRANCH   1   8
ATOM      5  C   LIG    1       -1.234   3.139   0.030  0.00  0.00    +0.170 A 
ATOM      6  C   LIG    1       -1.214   1.749   0.017  0.00  0.00    -0.080 A 
ATOM      7  C   LIG    1       -0.013   1.076   0.008  0.00  0.00    +0.130 A 
ATOM      8  C   LIG    1        1.188   1.792   0.000  0.00  0.00    -0.180 A 
ATOM      9  C   LIG    1        1.163   3.189   0.008  0.00  0.00    +0.090 A 
ATOM     10  C   LIG    1       -0.042   3.855   0.023  0.00  0.00    -0.020 A 
BRANCH   5  11
ATOM     11  O   LIG    1       -2.420   3.799   0.045  0.00  0.00    -0.300 OA
BRANCH  11  12
ATOM     12  C   LIG    1       -3.605   3.001   0.051  0.00  0.00    +0.220 C 
BRANCH  12  13
ATOM     13  C   LIG    1       -4.833   3.914   0.068  0.00  0.00    +0.200 C 
BRANCH  13  15
ATOM     14  C   LIG    1       -6.003   5.550  -1.236  0.00  0.00    +0.200 C 
ATOM     15  O   LIG    1       -4.887   4.661  -1.149  0.00  0.00    -0.390 OA
ENDBRANCH  13  15
ENDBRANCH  12  13
ENDBRANCH  11  12
ENDBRANCH   5  11
ENDBRANCH   1   8
BRANCH   2  16
ATOM     16  C   LIG    1        4.851   1.090  -0.040  0.00  0.00    +0.310 A 
ATOM     17  C   LIG    1        5.021  -0.261  -0.043  0.00  0.00    -0.080 A 
ATOM     18  C   LIG    1        6.395  -0.520  -0.062  0.00  0.00    +0.100 A 
ATOM     19  N   LIG    1        7.033   0.623  -0.063  0.00  0.00    -0.280 NA
ATOM     20  C   LIG    1        7.033  -1.885  -0.075  0.00  0.00    +0.170 C 
ATOM     21  N   LIG    1        6.088   1.657  -0.048  0.00  0.00    -0.340 N 
BRANCH  21  22
ATOM     22  C   LIG    1        6.367   3.030  -0.043  0.00  0.00    +0.150 A 
ATOM     23  C   LIG    1        5.538   3.911  -0.725  0.00  0.00    -0.030 A 
ATOM     24  C   LIG    1        5.812   5.265  -0.714  0.00  0.00    +0.050 A 
ATOM     25  C   LIG    1        6.918   5.742  -0.034  0.00  0.00    -0.090 A 
ATOM     26  C   LIG    1        7.749   4.867   0.641  0.00  0.00    +0.040 A 
ATOM     27  C   LIG    1        7.218   7.219  -0.029  0.00  0.00    +0.090 C 
ATOM     28  C   LIG    1        7.477   3.512   0.638  0.00  0.00    +0.040 A 
ENDBRANCH  21  22
ENDBRANCH   2  16
TORSDOF 7
