REMARK  Name = ZINCtV00000L6jR6.0
REMARK                            x       y       z     vdW  Elec       q    Type
REMARK                         _______ _______ _______ _____ _____    ______ ____
ROOT
ATOM      1  C   LIG    1       -0.602   3.015   5.743  0.00  0.00    +0.300 A 
ATOM      2  C   LIG    1        0.103   3.398   6.905  0.00  0.00    -0.080 A 
ATOM      3  C   LIG    1        1.490   3.262   7.028  0.00  0.00    +0.080 A 
ATOM      4  C   LIG    1        2.103   3.660   8.179  0.00  0.00    +0.040 A 
ATOM      5  C   LIG    1        1.370   4.205   9.231  0.00  0.00    +0.060 A 
ATOM      6  C   LIG    1        0.017   4.358   9.140  0.00  0.00    +0.040 A 
ATOM      7  C   LIG    1       -0.642   3.959   7.974  0.00  0.00    -0.040 A 
ATOM      8  C   LIG    1       -2.043   4.086   7.805  0.00  0.00    +0.110 A 
ATOM      9  N   LIG    1       -2.587   3.685   6.668  0.00  0.00    -0.210 NA
ATOM     10  N   LIG    1       -1.911   3.183   5.703  0.00  0.00    -0.310 NA
ENDROOT
BRANCH   8  11
ATOM     11  C   LIG    1       -2.883   4.657   8.882  0.00  0.00    -0.040 A 
ATOM     12  C   LIG    1       -4.101   4.062   9.210  0.00  0.00    +0.090 A 
ATOM     13  C   LIG    1       -4.878   4.596  10.218  0.00  0.00    +0.020 A 
ATOM     14  C   LIG    1       -4.455   5.726  10.896  0.00  0.00    +0.080 A 
ATOM     15  C   LIG    1       -3.250   6.324  10.571  0.00  0.00    -0.180 A 
ATOM     16  C   LIG    1       -2.462   5.796   9.569  0.00  0.00    +0.080 A 
BRANCH  15  17
ATOM     17  C   LIG    1       -2.797   7.554  11.314  0.00  0.00    +0.510 C 
ATOM     18  F   LIG    1       -1.399   7.588  11.353  0.00  0.00    -0.180 F 
ATOM     19  F   LIG    1       -3.299   7.522  12.620  0.00  0.00    -0.170 F 
ATOM     20  F   LIG    1       -3.273   8.696  10.660  0.00  0.00    -0.170 F 
ENDBRANCH  15  17
ENDBRANCH   8  11
BRANCH   1  21
ATOM     21  O   LIG    1        0.055   2.478   4.686  0.00  0.00    -0.230 OA
BRANCH  21  26
ATOM     22  C   LIG    1       -2.901   1.420   0.010  0.00  0.00    +0.090 C 
ATOM     23  C   LIG    1       -2.107   1.703   1.259  0.00  0.00    -0.080 A 
ATOM     24  C   LIG    1       -1.576   0.657   1.991  0.00  0.00    +0.030 A 
ATOM     25  C   LIG    1       -0.853   0.914   3.140  0.00  0.00    +0.020 A 
ATOM     26  C   LIG    1       -0.656   2.223   3.556  0.00  0.00    +0.080 A 
ATOM     27  C   LIG    1       -1.185   3.271   2.817  0.00  0.00    +0.010 A 
ATOM     28  C   LIG    1       -1.907   3.009   1.669  0.00  0.00    -0.070 A 
ATOM     29  C   LIG    1       -2.483   4.146   0.865  0.00  0.00    +0.100 C 
ENDBRANCH  21  26
ENDBRANCH   1  21
TORSDOF 4
