REMARK  Name = ZINCpk00000KfLBe.0
REMARK                            x       y       z     vdW  Elec       q    Type
REMARK                         _______ _______ _______ _____ _____    ______ ____
ROOT
ATOM      1  N   LIG    1        4.417  -0.284  -1.296  0.00  0.00    -0.510 NA
ATOM      2  C   LIG    1        3.749  -0.954  -2.448  0.00  0.00    +0.220 C 
ATOM      3  C   LIG    1        4.907  -1.283  -3.391  0.00  0.00    +0.170 C 
ATOM      4  O   LIG    1        4.740  -2.342  -4.313  0.00  0.00    -0.370 OA
ATOM      5  C   LIG    1        5.951  -2.558  -5.061  0.00  0.00    +0.220 C 
ATOM      6  C   LIG    1        7.144  -2.815  -4.146  0.00  0.00    +0.160 C 
ATOM      7  N   LIG    1        7.242  -1.810  -3.085  0.00  0.00    -0.510 NA
ATOM      8  C   LIG    1        5.979  -1.762  -2.368  0.00  0.00    +0.070 C 
ATOM      9  C   LIG    1        5.833  -0.736  -1.252  0.00  0.00    +0.220 C 
ENDROOT
BRANCH   1  10
ATOM     10  C   LIG    1        3.727  -0.591  -0.036  0.00  0.00    +0.280 C 
BRANCH  10  14
ATOM     11  O   LIG    1       -1.037  -0.646   0.009  0.00  0.00    -0.470 OA
ATOM     12  C   LIG    1        0.002  -0.004   0.002  0.00  0.00    +0.410 A 
ATOM     13  C   LIG    1        1.261  -0.656  -0.013  0.00  0.00    -0.150 A 
ATOM     14  C   LIG    1        2.384   0.091  -0.020  0.00  0.00    +0.160 A 
ATOM     15  O   LIG    1        2.323   1.427  -0.013  0.00  0.00    -0.190 OA
ATOM     16  C   LIG    1        1.157   2.087   0.002  0.00  0.00    +0.180 A 
ATOM     17  C   LIG    1       -0.017   1.418   0.010  0.00  0.00    -0.040 A 
BRANCH  17  18
ATOM     18  O   LIG    1       -1.198   2.094   0.019  0.00  0.00    -0.450 OA
ATOM     19  H   LIG    1       -1.101   3.056   0.024  0.00  0.00    +0.400 HD
ENDBRANCH  17  18
ENDBRANCH  10  14
ENDBRANCH   1  10
BRANCH   7  20
ATOM     20  C   LIG    1        8.353  -2.113  -2.173  0.00  0.00    +0.230 C 
BRANCH  20  21
ATOM     21  C   LIG    1        9.598  -2.397  -2.974  0.00  0.00    -0.090 A 
ATOM     22  C   LIG    1        9.884  -3.689  -3.371  0.00  0.00    +0.000 A 
ATOM     23  C   LIG    1       11.024  -3.949  -4.110  0.00  0.00    +0.000 A 
ATOM     24  C   LIG    1       11.881  -2.918  -4.443  0.00  0.00    +0.000 A 
ATOM     25  C   LIG    1       11.598  -1.626  -4.041  0.00  0.00    +0.000 A 
ATOM     26  C   LIG    1       10.456  -1.365  -3.306  0.00  0.00    +0.020 A 
ENDBRANCH  20  21
ENDBRANCH   7  20
TORSDOF 5
