REMARK  Name = ZINCvU0000000FII.0
REMARK                            x       y       z     vdW  Elec       q    Type
REMARK                         _______ _______ _______ _____ _____    ______ ____
ROOT
ATOM      1  N   LIG    1       -1.156  -0.694   0.009  0.00  0.00    -0.680 N 
ATOM      2  H   LIG    1       -2.000  -0.223   0.087  0.00  0.00    +0.400 HD
ATOM      3  C   LIG    1        0.003  -0.005   0.010  0.00  0.00    +0.710 C 
ATOM      4  N   LIG    1       -0.015   1.343   0.028  0.00  0.00    -0.610 N 
ATOM      5  O   LIG    1        1.063  -0.599  -0.005  0.00  0.00    -0.570 OA
ENDROOT
BRANCH   1  11
ATOM      6  C   LIG    1       -2.154  -2.747  -0.802  0.00  0.00    +0.110 A 
ATOM      7  C   LIG    1       -2.132  -4.130  -0.911  0.00  0.00    +0.030 A 
ATOM      8  C   LIG    1       -1.108  -4.853  -0.329  0.00  0.00    +0.000 A 
ATOM      9  C   LIG    1       -0.103  -4.202   0.363  0.00  0.00    +0.030 A 
ATOM     10  C   LIG    1       -0.114  -2.824   0.472  0.00  0.00    +0.030 A 
ATOM     11  C   LIG    1       -1.140  -2.091  -0.104  0.00  0.00    +0.170 A 
BRANCH   6  13
ATOM     12  C   LIG    1       -4.407  -1.724  -0.629  0.00  0.00    +0.280 C 
ATOM     13  N   LIG    1       -3.190  -2.013  -1.391  0.00  0.00    -0.590 N 
BRANCH  13  14
ATOM     14  C   LIG    1       -3.063  -1.556  -2.704  0.00  0.00    +0.210 A 
ATOM     15  C   LIG    1       -1.907  -1.824  -3.426  0.00  0.00    -0.060 A 
ATOM     16  C   LIG    1       -1.787  -1.375  -4.727  0.00  0.00    +0.040 A 
ATOM     17  C   LIG    1       -2.812  -0.650  -5.307  0.00  0.00    -0.050 A 
ATOM     18  C   LIG    1       -3.962  -0.377  -4.589  0.00  0.00    +0.040 A 
ATOM     19  C   LIG    1       -4.091  -0.827  -3.290  0.00  0.00    -0.070 A 
ENDBRANCH  13  14
ENDBRANCH   6  13
ENDBRANCH   1  11
BRANCH   4  20
ATOM     20  C   LIG    1       -1.293   2.059   0.040  0.00  0.00    +0.270 C 
BRANCH  20  21
ATOM     21  C   LIG    1       -1.735   2.289   1.487  0.00  0.00    +0.140 C 
ATOM     22  C   LIG    1       -3.137   2.934   1.510  0.00  0.00    +0.010 C 
ATOM     23  C   LIG    1       -3.010   3.954   2.676  0.00  0.00    +0.010 C 
ATOM     24  C   LIG    1       -1.527   4.382   2.534  0.00  0.00    +0.200 C 
ATOM     25  O   LIG    1       -0.830   3.192   2.134  0.00  0.00    -0.370 OA
ENDBRANCH  20  21
ENDBRANCH   4  20
BRANCH   4  26
ATOM     26  C   LIG    1        1.244   2.092   0.029  0.00  0.00    +0.380 C 
BRANCH  26  27
ATOM     27  C   LIG    1        1.666   2.367  -1.391  0.00  0.00    -0.160 A 
ATOM     28  C   LIG    1        2.478   1.471  -2.068  0.00  0.00    +0.090 A 
ATOM     29  C   LIG    1        2.837   1.763  -3.376  0.00  0.00    -0.040 A 
ATOM     30  C   LIG    1        2.385   2.934  -3.952  0.00  0.00    +0.250 A 
ATOM     31  N   LIG    1        1.617   3.767  -3.276  0.00  0.00    -0.490 NA
ATOM     32  C   LIG    1        1.252   3.519  -2.033  0.00  0.00    +0.260 A 
ENDBRANCH  26  27
ENDBRANCH   4  26
TORSDOF 7
