REMARK  Name = ZINCpk00000e941Y.0
REMARK                            x       y       z     vdW  Elec       q    Type
REMARK                         _______ _______ _______ _____ _____    ______ ____
ROOT
ATOM      1  C   LIG    1        5.669   4.988  -0.025  0.00  0.00    +0.400 C 
ENDROOT
BRANCH   1   2
ATOM      2  N   LIG    1        5.051   3.660  -0.026  0.00  0.00    -0.440 N 
ATOM      3  N   LIG    1        5.725   2.431  -0.040  0.00  0.00    -0.250 NA
ATOM      4  C   LIG    1        4.841   1.486  -0.037  0.00  0.00    +0.500 A 
ATOM      5  N   LIG    1        3.587   2.052  -0.021  0.00  0.00    -0.500 N 
ATOM      6  C   LIG    1        3.729   3.393  -0.021  0.00  0.00    +0.660 A 
ATOM      7  O   LIG    1        2.828   4.213  -0.014  0.00  0.00    -0.520 OA
BRANCH   5   8
ATOM      8  C   LIG    1        2.374   1.357  -0.013  0.00  0.00    +0.200 A 
ATOM      9  C   LIG    1        1.159   2.039   0.002  0.00  0.00    -0.030 A 
ATOM     10  C   LIG    1       -0.016   1.315   0.009  0.00  0.00    +0.300 A 
ATOM     11  N   LIG    1        0.002  -0.004   0.002  0.00  0.00    -0.490 NA
ATOM     12  C   LIG    1        1.132  -0.686  -0.012  0.00  0.00    +0.300 A 
ATOM     13  C   LIG    1        2.349  -0.037  -0.021  0.00  0.00    -0.060 A 
ENDBRANCH   5   8
ENDBRANCH   1   2
BRANCH   1  15
ATOM     14  N   LIG    1        6.456   6.635   1.645  0.00  0.00    -0.610 N 
ATOM     15  C   LIG    1        5.895   5.435   1.397  0.00  0.00    +0.500 C 
ATOM     16  O   LIG    1        5.572   4.715   2.318  0.00  0.00    -0.500 OA
BRANCH  14  17
ATOM     17  C   LIG    1        6.676   7.070   3.026  0.00  0.00    +0.290 C 
BRANCH  17  19
ATOM     18  C   LIG    1        9.136   7.325   2.666  0.00  0.00    +0.020 C 
ATOM     19  C   LIG    1        8.061   6.613   3.490  0.00  0.00    -0.030 C 
ATOM     20  C   LIG    1        8.242   6.957   4.970  0.00  0.00    +0.030 C 
ENDBRANCH  17  19
ENDBRANCH  14  17
BRANCH  14  21
ATOM     21  C   LIG    1        6.846   7.505   0.532  0.00  0.00    +0.330 C 
BRANCH  21  22
ATOM     22  C   LIG    1        5.674   8.416   0.162  0.00  0.00    +0.430 C 
ATOM     23  F   LIG    1        4.579   7.634  -0.220  0.00  0.00    -0.180 F 
ATOM     24  F   LIG    1        6.047   9.247  -0.901  0.00  0.00    -0.170 F 
ATOM     25  F   LIG    1        5.326   9.200   1.267  0.00  0.00    -0.180 F 
ENDBRANCH  21  22
ENDBRANCH  14  21
ENDBRANCH   1  15
TORSDOF 7
