REMARK  Name = ZINCAx0000000gMc.0
REMARK                            x       y       z     vdW  Elec       q    Type
REMARK                         _______ _______ _______ _____ _____    ______ ____
ROOT
ATOM      1  O   LIG    1        3.271   0.972  -2.368  0.00  0.00    -0.510 OA
ATOM      2  C   LIG    1        4.066   1.027  -1.455  0.00  0.00    +0.500 C 
ATOM      3  N   LIG    1        5.383   1.150  -1.714  0.00  0.00    -0.650 N 
ATOM      4  H   LIG    1        6.012   1.274  -0.986  0.00  0.00    +0.430 HD
ENDROOT
BRANCH   3   5
ATOM      5  C   LIG    1        5.842   1.098  -3.028  0.00  0.00    +0.220 A 
ATOM      6  C   LIG    1        5.108   0.427  -3.997  0.00  0.00    +0.010 A 
ATOM      7  C   LIG    1        5.564   0.377  -5.299  0.00  0.00    +0.060 A 
ATOM      8  C   LIG    1        6.755   0.993  -5.649  0.00  0.00    -0.020 A 
ATOM      9  C   LIG    1        7.497   1.663  -4.700  0.00  0.00    +0.070 A 
ATOM     10  C   LIG    1        7.045   1.728  -3.381  0.00  0.00    -0.180 A 
BRANCH  10  11
ATOM     11  C   LIG    1        7.831   2.449  -2.362  0.00  0.00    +0.570 C 
ATOM     12  N   LIG    1        8.933   3.137  -2.723  0.00  0.00    -0.720 N 
ATOM     13  H   LIG    1        9.209   3.157  -3.652  0.00  0.00    +0.400 HD
ATOM     14  O   LIG    1        7.485   2.423  -1.196  0.00  0.00    -0.550 OA
BRANCH  12  15
ATOM     15  C   LIG    1        9.713   3.853  -1.711  0.00  0.00    +0.320 C 
BRANCH  15  16
ATOM     16  C   LIG    1       10.885   4.534  -2.369  0.00  0.00    -0.110 A 
ATOM     17  C   LIG    1       12.092   3.871  -2.490  0.00  0.00    +0.020 A 
ATOM     18  C   LIG    1       13.165   4.495  -3.099  0.00  0.00    +0.010 A 
ATOM     19  C   LIG    1       13.034   5.785  -3.578  0.00  0.00    +0.010 A 
ATOM     20  C   LIG    1       11.829   6.450  -3.452  0.00  0.00    +0.010 A 
ATOM     21  C   LIG    1       10.754   5.824  -2.848  0.00  0.00    +0.020 A 
ENDBRANCH  15  16
ENDBRANCH  12  15
ENDBRANCH  10  11
ENDBRANCH   3   5
BRANCH   2  22
ATOM     22  C   LIG    1        3.583   0.958  -0.029  0.00  0.00    +0.370 C 
BRANCH  22  23
ATOM     23  N   LIG    1        2.124   0.827  -0.014  0.00  0.00    -0.560 N 
ATOM     24  C   LIG    1        1.275   1.862   0.013  0.00  0.00    +0.710 C 
ATOM     25  N   LIG    1       -0.013   1.470   0.020  0.00  0.00    -0.710 N 
ATOM     26  H   LIG    1       -0.795   2.044   0.034  0.00  0.00    +0.440 HD
ATOM     27  C   LIG    1       -0.001   0.002  -0.004  0.00  0.00    +0.180 C 
ATOM     28  C   LIG    1       -0.664  -0.559   1.250  0.00  0.00    +0.050 C 
ATOM     29  C   LIG    1       -0.855  -2.070   1.060  0.00  0.00    +0.260 C 
ATOM     30  O   LIG    1       -1.755  -2.278  -0.030  0.00  0.00    -0.310 OA
ATOM     31  C   LIG    1       -1.515  -1.618  -1.192  0.00  0.00    +0.160 A 
ATOM     32  C   LIG    1       -2.126  -2.073  -2.356  0.00  0.00    -0.010 A 
ATOM     33  C   LIG    1       -1.909  -1.423  -3.554  0.00  0.00    +0.060 A 
ATOM     34  C   LIG    1       -1.082  -0.316  -3.599  0.00  0.00    -0.020 A 
ATOM     35  C   LIG    1       -0.471   0.137  -2.446  0.00  0.00    +0.070 A 
ATOM     36  C   LIG    1       -0.683  -0.511  -1.241  0.00  0.00    -0.180 A 
ATOM     37  O   LIG    1        1.628   3.025   0.029  0.00  0.00    -0.530 OA
ATOM     38  C   LIG    1        1.468  -0.352  -0.027  0.00  0.00    +0.540 C 
ATOM     39  O   LIG    1        1.955  -1.463  -0.051  0.00  0.00    -0.450 OA
ENDBRANCH  22  23
ENDBRANCH   2  22
TORSDOF 6
