REMARK  Name = ZINCrD0000071F5v.0
REMARK                            x       y       z     vdW  Elec       q    Type
REMARK                         _______ _______ _______ _____ _____    ______ ____
ROOT
ATOM      1  N   LIG    1       -0.018   1.461   0.010  0.00  0.00    -0.730 N 
ATOM      2  H   LIG    1        0.816   1.957   0.005  0.00  0.00    +0.400 HD
ATOM      3  C   LIG    1       -1.194   2.119   0.019  0.00  0.00    +0.510 C 
ATOM      4  O   LIG    1       -2.236   1.498   0.021  0.00  0.00    -0.540 OA
ENDROOT
BRANCH   1   5
ATOM      5  C   LIG    1        0.002  -0.004   0.002  0.00  0.00    +0.320 C 
BRANCH   5   9
ATOM      6  C   LIG    1        4.050  -1.374  -0.044  0.00  0.00    +0.140 A 
ATOM      7  C   LIG    1        3.314  -1.342  -1.219  0.00  0.00    -0.090 A 
ATOM      8  C   LIG    1        2.003  -0.904  -1.201  0.00  0.00    +0.080 A 
ATOM      9  C   LIG    1        1.429  -0.487  -0.014  0.00  0.00    -0.150 A 
ATOM     10  C   LIG    1        2.161  -0.517   1.159  0.00  0.00    -0.030 A 
ATOM     11  C   LIG    1        1.531  -0.068   2.451  0.00  0.00    +0.100 C 
ATOM     12  C   LIG    1        3.470  -0.960   1.147  0.00  0.00    -0.030 A 
BRANCH   6  13
ATOM     13  O   LIG    1        5.337  -1.810  -0.058  0.00  0.00    -0.310 OA
BRANCH  13  14
ATOM     14  C   LIG    1        5.868  -2.221  -1.320  0.00  0.00    +0.180 C 
BRANCH  14  16
ATOM     15  C   LIG    1        7.887  -3.116  -2.489  0.00  0.00    +0.040 C 
ATOM     16  C   LIG    1        7.318  -2.676  -1.138  0.00  0.00    +0.020 C 
ENDBRANCH  14  16
ENDBRANCH  13  14
ENDBRANCH   6  13
ENDBRANCH   5   9
ENDBRANCH   1   5
BRANCH   3  17
ATOM     17  C   LIG    1       -1.214   3.626   0.028  0.00  0.00    +0.060 C 
BRANCH  17  18
ATOM     18  C   LIG    1       -2.664   4.116   0.037  0.00  0.00    +0.090 C 
BRANCH  18  19
ATOM     19  C   LIG    1       -2.684   5.623   0.045  0.00  0.00    -0.090 A 
ATOM     20  C   LIG    1       -2.693   6.306   1.248  0.00  0.00    +0.040 A 
ATOM     21  C   LIG    1       -2.707   7.690   1.264  0.00  0.00    +0.010 A 
ATOM     22  C   LIG    1       -2.722   8.397   0.080  0.00  0.00    +0.040 A 
ATOM     23  C   LIG    1       -2.718   7.713  -1.137  0.00  0.00    -0.130 A 
ATOM     24  C   LIG    1       -2.699   6.317  -1.147  0.00  0.00    +0.090 A 
BRANCH  23  25
ATOM     25  C   LIG    1       -2.734   8.464  -2.411  0.00  0.00    +0.560 C 
ATOM     26  N   LIG    1       -2.752   9.812  -2.398  0.00  0.00    -0.730 N 
ATOM     27  H   LIG    1       -2.755  10.289  -1.554  0.00  0.00    +0.400 HD
ATOM     28  C   LIG    1       -2.768  10.556  -3.660  0.00  0.00    +0.290 C 
ATOM     29  O   LIG    1       -2.730   7.866  -3.469  0.00  0.00    -0.530 OA
ENDBRANCH  23  25
ENDBRANCH  18  19
ENDBRANCH  17  18
ENDBRANCH   3  17
TORSDOF 9
