REMARK  Name = ZINCqH0000008w1U.1
REMARK                            x       y       z     vdW  Elec       q    Type
REMARK                         _______ _______ _______ _____ _____    ______ ____
ROOT
ATOM      1  C   LIG    1        4.612   1.996   1.276  0.00  0.00    +0.110 C 
ATOM      2  C   LIG    1        4.352   2.759  -0.025  0.00  0.00    +0.100 C 
ENDROOT
BRANCH   2   3
ATOM      3  C   LIG    1        5.342   3.887  -0.151  0.00  0.00    +0.520 C 
ATOM      4  N   LIG    1        6.096   3.984  -1.232  0.00  0.00    -0.560 NA
ATOM      5  C   LIG    1        6.972   4.980  -1.348  0.00  0.00    +0.660 C 
ATOM      6  N   LIG    1        7.088   5.877  -0.375  0.00  0.00    -0.620 N 
ATOM      7  C   LIG    1        6.328   5.776   0.710  0.00  0.00    +0.680 C 
ATOM      8  N   LIG    1        6.444   6.705   1.724  0.00  0.00    -0.770 N 
ATOM      9  H   LIG    1        5.889   6.631   2.516  0.00  0.00    +0.450 HD
ATOM     10  H   LIG    1        7.081   7.433   1.644  0.00  0.00    +0.430 HD
ATOM     11  H   LIG    1        7.725   6.604  -0.457  0.00  0.00    +0.440 HD
ATOM     12  N   LIG    1        5.450   4.781   0.816  0.00  0.00    -0.560 NA
BRANCH   5  13
ATOM     13  N   LIG    1        7.759   5.080  -2.477  0.00  0.00    -0.550 NA
ATOM     14  C   LIG    1        8.723   6.176  -2.603  0.00  0.00    +0.340 C 
ATOM     15  C   LIG    1        7.631   4.090  -3.549  0.00  0.00    +0.380 C 
ENDBRANCH   5  13
ENDBRANCH   2   3
BRANCH   2  16
ATOM     16  S   LIG    1        2.671   3.430  -0.004  0.00  0.00    +0.030 S 
BRANCH  16  17
ATOM     17  C   LIG    1        1.743   1.932  -0.004  0.00  0.00    -0.080 A 
ATOM     18  N   LIG    1        2.212   0.723  -0.015  0.00  0.00    -0.240 NA
ATOM     19  N   LIG    1        1.324  -0.329  -0.012  0.00  0.00    -0.460 NA
ATOM     20  C   LIG    1        0.002  -0.004   0.002  0.00  0.00    +0.350 A 
ATOM     21  N   LIG    1       -1.032  -0.827   0.007  0.00  0.00    -0.600 NA
ATOM     22  S   LIG    1       -0.022   1.770   0.012  0.00  0.00    -0.050 S 
BRANCH  21  23
ATOM     23  C   LIG    1       -0.831  -2.178  -0.002  0.00  0.00    +0.190 A 
ATOM     24  C   LIG    1       -1.564  -3.003   0.855  0.00  0.00    -0.020 A 
ATOM     25  C   LIG    1       -1.355  -4.367   0.840  0.00  0.00    +0.020 A 
ATOM     26  C   LIG    1       -0.423  -4.918  -0.020  0.00  0.00    -0.030 A 
ATOM     27  C   LIG    1        0.308  -4.107  -0.872  0.00  0.00    -0.060 A 
ATOM     28 BR   LIG    1        1.580  -4.873  -2.043  0.00  0.00    -0.080 Br
ATOM     29  C   LIG    1        0.106  -2.743  -0.872  0.00  0.00    +0.010 A 
ENDBRANCH  21  23
ENDBRANCH  16  17
ENDBRANCH   2  16
TORSDOF 5
