REMARK  Name = ZINCqH00000515l4.0
REMARK                            x       y       z     vdW  Elec       q    Type
REMARK                         _______ _______ _______ _____ _____    ______ ____
ROOT
ATOM      1  C   LIG    1       -2.151   5.000   0.015  0.00  0.00    +0.280 C 
ENDROOT
BRANCH   1   2
ATOM      2  C   LIG    1       -0.666   4.744  -0.014  0.00  0.00    -0.140 A 
ATOM      3  C   LIG    1       -0.189   3.447   0.025  0.00  0.00    +0.080 A 
ATOM      4  C   LIG    1        1.172   3.210   0.004  0.00  0.00    -0.010 A 
ATOM      5  C   LIG    1        2.059   4.274  -0.068  0.00  0.00    +0.140 A 
ATOM      6  C   LIG    1        1.578   5.574  -0.112  0.00  0.00    -0.080 A 
ATOM      7  C   LIG    1        0.216   5.806  -0.085  0.00  0.00    +0.080 A 
BRANCH   5   8
ATOM      8  O   LIG    1        3.398   4.043  -0.095  0.00  0.00    -0.310 OA
BRANCH   8   9
ATOM      9  C   LIG    1        4.253   5.186  -0.170  0.00  0.00    +0.270 C 
BRANCH   9  10
ATOM     10  C   LIG    1        5.691   4.738  -0.190  0.00  0.00    -0.150 A 
ATOM     11  C   LIG    1        6.396   4.588   0.994  0.00  0.00    +0.090 A 
ATOM     12  C   LIG    1        7.716   4.167   0.927  0.00  0.00    -0.030 A 
ATOM     13  C   LIG    1        8.284   3.926  -0.309  0.00  0.00    +0.270 A 
ATOM     14  N   LIG    1        7.585   4.085  -1.416  0.00  0.00    -0.490 NA
ATOM     15  C   LIG    1        6.326   4.477  -1.390  0.00  0.00    +0.290 A 
ENDBRANCH   9  10
ENDBRANCH   8   9
ENDBRANCH   5   8
ENDBRANCH   1   2
BRANCH   1  16
ATOM     16  O   LIG    1       -2.665   5.022  -1.342  0.00  0.00    -0.350 OA
BRANCH  16  17
ATOM     17  C   LIG    1       -3.987   5.241  -1.493  0.00  0.00    +0.520 C 
ATOM     18  O   LIG    1       -4.690   5.410  -0.516  0.00  0.00    -0.520 OA
BRANCH  17  25
ATOM     19  C   LIG    1       -5.929   5.622  -3.009  0.00  0.00    +0.310 A 
ATOM     20  C   LIG    1       -6.474   5.658  -4.285  0.00  0.00    -0.110 A 
ATOM     21  C   LIG    1       -5.692   5.343  -5.381  0.00  0.00    +0.190 A 
ATOM     22  C   LIG    1       -4.358   4.995  -5.216  0.00  0.00    -0.080 A 
ATOM     23  C   LIG    1       -3.800   4.961  -3.958  0.00  0.00    +0.170 A 
ATOM     24  F   LIG    1       -6.229   5.373  -6.621  0.00  0.00    -0.130 F 
ATOM     25  C   LIG    1       -4.578   5.276  -2.840  0.00  0.00    -0.230 A 
BRANCH  19  26
ATOM     26  N   LIG    1       -6.714   5.931  -1.907  0.00  0.00    -0.850 N 
ATOM     27  H   LIG    1       -7.678   5.840  -1.956  0.00  0.00    +0.400 HD
ATOM     28  H   LIG    1       -6.298   6.240  -1.086  0.00  0.00    +0.420 HD
ENDBRANCH  19  26
ENDBRANCH  17  25
ENDBRANCH  16  17
ENDBRANCH   1  16
TORSDOF 8
