REMARK  Name = ZINCpk00000KfKpq.0
REMARK                            x       y       z     vdW  Elec       q    Type
REMARK                         _______ _______ _______ _____ _____    ______ ____
ROOT
ATOM      1  C   LIG    1       -3.795   1.541  -0.289  0.00  0.00    +0.180 A 
ATOM      2  C   LIG    1       -4.544   0.554   0.319  0.00  0.00    -0.290 A 
ATOM      3  C   LIG    1       -3.684  -0.546   0.541  0.00  0.00    +0.300 A 
ATOM      4  N   LIG    1       -2.502  -0.233   0.088  0.00  0.00    -0.280 NA
ATOM      5  N   LIG    1       -2.543   1.067  -0.430  0.00  0.00    -0.310 N 
ENDROOT
BRANCH   2   6
ATOM      6  C   LIG    1       -5.973   0.632   0.670  0.00  0.00    +0.600 C 
ATOM      7  N   LIG    1       -6.805  -0.376   0.340  0.00  0.00    -0.610 N 
ATOM      8  C   LIG    1       -6.294  -1.602  -0.294  0.00  0.00    +0.250 C 
ATOM      9  C   LIG    1       -7.134  -1.893  -1.538  0.00  0.00    +0.220 C 
ATOM     10  O   LIG    1       -8.519  -1.890  -1.185  0.00  0.00    -0.370 OA
ATOM     11  C   LIG    1       -8.995  -0.634  -0.696  0.00  0.00    +0.140 C 
ATOM     12  C   LIG    1       -8.251  -0.281   0.597  0.00  0.00    +0.260 C 
ATOM     13  O   LIG    1       -6.403   1.606   1.259  0.00  0.00    -0.530 OA
BRANCH  11  14
ATOM     14  C   LIG    1      -10.495  -0.733  -0.410  0.00  0.00    +0.030 C 
ATOM     15  C   LIG    1      -11.250  -0.963  -1.722  0.00  0.00    +0.020 C 
ENDBRANCH  11  14
ENDBRANCH   2   6
BRANCH   5  16
ATOM     16  C   LIG    1       -1.467   1.754  -1.002  0.00  0.00    +0.270 A 
ATOM     17  C   LIG    1       -0.160   1.424  -0.649  0.00  0.00    +0.100 A 
ATOM     18  C   LIG    1        0.872   2.128  -1.246  0.00  0.00    +0.060 A 
ATOM     19  C   LIG    1        0.539   3.127  -2.158  0.00  0.00    +0.260 A 
ATOM     20  N   LIG    1       -0.732   3.376  -2.429  0.00  0.00    -0.270 NA
ATOM     21  N   LIG    1       -1.688   2.723  -1.875  0.00  0.00    -0.210 NA
BRANCH  19  22
ATOM     22  O   LIG    1        1.517   3.844  -2.769  0.00  0.00    -0.290 OA
ATOM     23  C   LIG    1        1.102   4.853  -3.692  0.00  0.00    +0.280 C 
ENDBRANCH  19  22
ENDBRANCH   5  16
BRANCH   1  25
ATOM     24  C   LIG    1       -4.801   2.826  -2.156  0.00  0.00    +0.050 C 
ATOM     25  C   LIG    1       -4.287   2.900  -0.717  0.00  0.00    +0.120 C 
ENDBRANCH   1  25
TORSDOF 5
