REMARK  Name = ZINCqH0000005jn9.0
REMARK                            x       y       z     vdW  Elec       q    Type
REMARK                         _______ _______ _______ _____ _____    ______ ____
ROOT
ATOM      1  C   LIG    1       -5.510   0.897  -1.920  0.00  0.00    +0.300 C 
ATOM      2  N   LIG    1       -5.305   2.225  -1.337  0.00  0.00    -0.610 N 
ATOM      3  C   LIG    1       -5.568   3.329  -2.064  0.00  0.00    +0.520 C 
ATOM      4  O   LIG    1       -5.398   4.428  -1.581  0.00  0.00    -0.510 OA
ENDROOT
BRANCH   3   5
ATOM      5  C   LIG    1       -6.074   3.196  -3.478  0.00  0.00    +0.240 C 
BRANCH   5   6
ATOM      6  O   LIG    1       -6.276   4.497  -4.035  0.00  0.00    -0.290 OA
BRANCH   6   7
ATOM      7  C   LIG    1       -6.734   4.556  -5.312  0.00  0.00    +0.150 A 
ATOM      8  C   LIG    1       -6.980   3.406  -6.009  0.00  0.00    -0.090 A 
ATOM      9  C   LIG    1       -7.449   3.450  -7.319  0.00  0.00    +0.050 A 
ATOM     10  C   LIG    1       -7.676   4.637  -7.944  0.00  0.00    -0.010 A 
ATOM     11  C   LIG    1       -7.435   5.843  -7.263  0.00  0.00    -0.020 A 
ATOM     12  C   LIG    1       -7.658   7.086  -7.878  0.00  0.00    +0.010 A 
ATOM     13  C   LIG    1       -7.412   8.233  -7.188  0.00  0.00    +0.030 A 
ATOM     14  C   LIG    1       -6.942   8.194  -5.877  0.00  0.00    +0.000 A 
ATOM     15  C   LIG    1       -6.715   7.007  -5.249  0.00  0.00    +0.050 A 
ATOM     16  C   LIG    1       -6.963   5.804  -5.927  0.00  0.00    -0.070 A 
ENDBRANCH   6   7
ENDBRANCH   5   6
ENDBRANCH   3   5
BRANCH   2  17
ATOM     17  C   LIG    1       -4.814   2.354   0.038  0.00  0.00    +0.430 C 
BRANCH  17  18
ATOM     18  C   LIG    1       -3.308   2.402   0.030  0.00  0.00    +0.260 A 
ATOM     19  N   LIG    1       -2.529   1.359   0.021  0.00  0.00    -0.480 NA
ATOM     20  C   LIG    1       -1.231   1.759   0.017  0.00  0.00    +0.040 A 
ATOM     21  C   LIG    1       -0.013   1.076   0.008  0.00  0.00    +0.070 A 
ATOM     22  C   LIG    1        1.161   1.776   0.001  0.00  0.00    +0.000 A 
ATOM     23  C   LIG    1        1.157   3.163   0.007  0.00  0.00    +0.030 A 
ATOM     24  C   LIG    1       -0.034   3.859   0.022  0.00  0.00    +0.010 A 
ATOM     25  C   LIG    1       -1.236   3.164   0.030  0.00  0.00    +0.050 A 
ATOM     26  N   LIG    1       -2.564   3.541   0.044  0.00  0.00    -0.590 N 
ATOM     27  H   LIG    1       -2.904   4.449   0.051  0.00  0.00    +0.430 HD
ENDBRANCH  17  18
ENDBRANCH   2  17
TORSDOF 5
