REMARK  Name = ZINCqH0000003Iwo.0
REMARK                            x       y       z     vdW  Elec       q    Type
REMARK                         _______ _______ _______ _____ _____    ______ ____
ROOT
ATOM      1  C   LIG    1        0.776   5.050  -1.603  0.00  0.00    +0.570 C 
ATOM      2  N   LIG    1        0.652   3.715  -1.465  0.00  0.00    -0.610 N 
ATOM      3  C   LIG    1        1.826   2.871  -1.196  0.00  0.00    +0.290 C 
ATOM      4  C   LIG    1        1.844   1.724  -2.212  0.00  0.00    +0.190 C 
ATOM      5  N   LIG    1        0.554   1.022  -2.175  0.00  0.00    -0.500 N 
ATOM      6  C   LIG    1       -0.546   1.908  -2.580  0.00  0.00    +0.190 C 
ATOM      7  C   LIG    1       -0.661   3.063  -1.580  0.00  0.00    +0.300 C 
ATOM      8  O   LIG    1       -0.187   5.721  -1.919  0.00  0.00    -0.530 OA
ENDROOT
BRANCH   5   9
ATOM      9  C   LIG    1        0.587  -0.129  -2.967  0.00  0.00    +0.090 A 
ATOM     10  C   LIG    1        0.844  -0.030  -4.328  0.00  0.00    -0.010 A 
ATOM     11  C   LIG    1        0.883  -1.171  -5.107  0.00  0.00    +0.020 A 
ATOM     12  C   LIG    1        0.653  -2.408  -4.535  0.00  0.00    +0.020 A 
ATOM     13  C   LIG    1        0.390  -2.511  -3.181  0.00  0.00    +0.030 A 
ATOM     14  C   LIG    1        0.357  -1.375  -2.395  0.00  0.00    -0.010 A 
ATOM     15 CL   LIG    1        0.028  -1.504  -0.695  0.00  0.00    -0.050 Cl
ENDBRANCH   5   9
BRANCH   1  19
ATOM     16  C   LIG    1        4.537   6.911  -0.926  0.00  0.00    +0.130 A 
ATOM     17  C   LIG    1        4.177   5.787  -0.195  0.00  0.00    -0.040 A 
ATOM     18  C   LIG    1        2.956   5.184  -0.408  0.00  0.00    +0.050 A 
ATOM     19  C   LIG    1        2.082   5.698  -1.369  0.00  0.00    -0.130 A 
ATOM     20  C   LIG    1        2.444   6.829  -2.105  0.00  0.00    +0.030 A 
ATOM     21  C   LIG    1        3.667   7.432  -1.883  0.00  0.00    +0.090 A 
BRANCH  21  22
ATOM     22  O   LIG    1        4.022   8.533  -2.598  0.00  0.00    -0.300 OA
ATOM     23  C   LIG    1        3.083   9.012  -3.562  0.00  0.00    +0.240 C 
ENDBRANCH  21  22
BRANCH  16  24
ATOM     24  O   LIG    1        5.739   7.505  -0.708  0.00  0.00    -0.300 OA
BRANCH  24  26
ATOM     25  C   LIG    1        7.881   7.719   0.390  0.00  0.00    +0.070 C 
ATOM     26  C   LIG    1        6.581   6.919   0.287  0.00  0.00    +0.170 C 
ENDBRANCH  24  26
ENDBRANCH  16  24
ENDBRANCH   1  19
TORSDOF 5
