REMARK  Name = ZINCqH0000006VjL.0
REMARK                            x       y       z     vdW  Elec       q    Type
REMARK                         _______ _______ _______ _____ _____    ______ ____
ROOT
ATOM      1  C   LIG    1        2.291   5.182  -0.611  0.00  0.00    +0.540 C 
ATOM      2  N   LIG    1        2.575   3.931   0.103  0.00  0.00    -0.740 N 
ATOM      3  H   LIG    1        3.442   3.778   0.509  0.00  0.00    +0.420 HD
ATOM      4  C   LIG    1        1.573   2.971   0.184  0.00  0.00    +0.230 A 
ATOM      5  C   LIG    1        1.857   1.619   0.264  0.00  0.00    -0.050 A 
ATOM      6  C   LIG    1        0.823   0.705   0.337  0.00  0.00    +0.080 A 
ATOM      7  C   LIG    1       -0.496   1.132   0.324  0.00  0.00    -0.040 A 
ATOM      8  C   LIG    1       -0.797   2.477   0.253  0.00  0.00    +0.120 A 
ATOM      9  C   LIG    1        0.236   3.408   0.182  0.00  0.00    -0.200 A 
ATOM     10  C   LIG    1       -0.029   4.856   0.108  0.00  0.00    +0.580 C 
ATOM     11  O   LIG    1       -1.137   5.292   0.352  0.00  0.00    -0.520 OA
ATOM     12  N   LIG    1        0.973   5.692  -0.235  0.00  0.00    -0.620 N 
ENDROOT
BRANCH   1  15
ATOM     13  C   LIG    1        3.334   5.265  -4.241  0.00  0.00    +0.100 A 
ATOM     14  C   LIG    1        3.304   5.503  -2.876  0.00  0.00    -0.040 A 
ATOM     15  C   LIG    1        2.319   4.927  -2.096  0.00  0.00    -0.090 A 
ATOM     16  C   LIG    1        1.357   4.121  -2.675  0.00  0.00    +0.020 A 
ATOM     17  C   LIG    1        1.378   3.884  -4.037  0.00  0.00    +0.030 A 
ATOM     18  C   LIG    1        2.365   4.454  -4.824  0.00  0.00    +0.090 A 
BRANCH  13  20
ATOM     19  C   LIG    1        5.267   6.648  -4.342  0.00  0.00    +0.240 C 
ATOM     20  O   LIG    1        4.306   5.827  -5.009  0.00  0.00    -0.310 OA
ENDBRANCH  13  20
BRANCH  18  21
ATOM     21  O   LIG    1        2.387   4.223  -6.164  0.00  0.00    -0.490 OA
ATOM     22  H   LIG    1        1.881   4.863  -6.682  0.00  0.00    +0.390 HD
ENDBRANCH  18  21
ENDBRANCH   1  15
BRANCH  12  23
ATOM     23  C   LIG    1        0.736   7.138  -0.231  0.00  0.00    +0.420 C 
BRANCH  23  24
ATOM     24  C   LIG    1        0.111   7.549  -1.539  0.00  0.00    -0.040 A 
ATOM     25  C   LIG    1       -1.207   7.680  -1.774  0.00  0.00    -0.020 A 
ATOM     26  C   LIG    1       -1.344   8.079  -3.124  0.00  0.00    -0.070 A 
ATOM     27  C   LIG    1       -0.102   8.168  -3.632  0.00  0.00    +0.160 A 
ATOM     28  O   LIG    1        0.776   7.851  -2.666  0.00  0.00    -0.170 OA
ENDBRANCH  23  24
ENDBRANCH  12  23
TORSDOF 5
