REMARK  Name = ZINCpk00000xI7NL.0
REMARK                            x       y       z     vdW  Elec       q    Type
REMARK                         _______ _______ _______ _____ _____    ______ ____
ROOT
ATOM      1  C   LIG    1        1.173   3.170  -0.205  0.00  0.00    +0.250 A 
ATOM      2  C   LIG    1        1.220   1.802  -0.425  0.00  0.00    -0.080 A 
ATOM      3  C   LIG    1        0.050   1.096  -0.634  0.00  0.00    +0.240 A 
ATOM      4  C   LIG    1       -1.165   1.754  -0.629  0.00  0.00    -0.720 A 
ATOM      5  C   LIG    1       -1.215   3.118  -0.406  0.00  0.00    +0.270 A 
ATOM      6  C   LIG    1       -0.049   3.828  -0.196  0.00  0.00    -0.100 A 
ENDROOT
BRANCH   4   7
ATOM      7  S   LIG    1       -2.654   0.853  -0.903  0.00  0.00    +2.710 S 
ATOM      8  O   LIG    1       -2.288  -0.320  -1.618  0.00  0.00    -0.950 OA
ATOM      9  O   LIG    1       -3.608   1.790  -1.385  0.00  0.00    -0.950 OA
BRANCH   7  10
ATOM     10  N   LIG    1       -3.201   0.348   0.576  0.00  0.00    -1.250 NA
ATOM     11  H   LIG    1       -2.570   0.166   1.290  0.00  0.00    +0.420 HD
ATOM     12  H   LIG    1       -4.152   0.233   0.729  0.00  0.00    +0.430 HD
ENDBRANCH   7  10
ENDBRANCH   4   7
BRANCH   6  13
ATOM     13  N   LIG    1       -0.103   5.288   0.038  0.00  0.00    +0.030 N 
ATOM     14  O   LIG    1        0.926   5.913   0.223  0.00  0.00    -0.110 OA
ATOM     15  O   LIG    1       -1.175   5.865   0.046  0.00  0.00    -0.170 OA
ENDBRANCH   6  13
BRANCH   1  16
ATOM     16  O   LIG    1        2.322   3.866   0.001  0.00  0.00    -0.240 OA
BRANCH  16  18
ATOM     17  C   LIG    1        4.080   2.846  -1.306  0.00  0.00    +0.070 C 
ATOM     18  C   LIG    1        3.530   3.110   0.097  0.00  0.00    +0.160 C 
BRANCH  18  19
ATOM     19  C   LIG    1        4.546   3.885   0.897  0.00  0.00    +0.520 C 
ATOM     20  N   LIG    1        5.769   3.364   1.119  0.00  0.00    -0.720 N 
ATOM     21  H   LIG    1        5.995   2.490   0.764  0.00  0.00    +0.400 HD
ATOM     22  O   LIG    1        4.262   4.977   1.340  0.00  0.00    -0.490 OA
BRANCH  20  23
ATOM     23  C   LIG    1        6.756   4.117   1.896  0.00  0.00    +0.240 C 
ATOM     24  C   LIG    1        7.498   5.088   0.975  0.00  0.00    +0.000 C 
ATOM     25  C   LIG    1        8.528   5.874   1.787  0.00  0.00    +0.020 C 
ATOM     26  C   LIG    1        9.529   4.904   2.417  0.00  0.00    +0.010 C 
ATOM     27  C   LIG    1        8.787   3.934   3.338  0.00  0.00    +0.020 C 
ATOM     28  C   LIG    1        7.757   3.147   2.527  0.00  0.00    +0.010 C 
ENDBRANCH  20  23
ENDBRANCH  18  19
ENDBRANCH  16  18
ENDBRANCH   1  16
TORSDOF 7
