REMARK  Name = ZINCvS0000000LAT.0
REMARK                            x       y       z     vdW  Elec       q    Type
REMARK                         _______ _______ _______ _____ _____    ______ ____
ROOT
ATOM      1  C   LIG    1       -0.508  -1.966  -2.062  0.00  0.00    +0.320 C 
ENDROOT
BRANCH   1   2
ATOM      2  C   LIG    1       -1.658  -1.902  -1.090  0.00  0.00    -0.150 A 
ATOM      3  C   LIG    1       -2.852  -2.526  -1.389  0.00  0.00    +0.060 A 
ATOM      4  C   LIG    1       -3.908  -2.468  -0.497  0.00  0.00    +0.040 A 
ATOM      5  C   LIG    1       -3.774  -1.784   0.698  0.00  0.00    +0.060 A 
ATOM      6  C   LIG    1       -2.582  -1.161   1.010  0.00  0.00    +0.050 A 
ATOM      7  C   LIG    1       -1.517  -1.212   0.113  0.00  0.00    -0.050 A 
BRANCH   7   8
ATOM      8  C   LIG    1       -0.236  -0.539   0.440  0.00  0.00    -0.040 A 
ATOM      9  C   LIG    1        0.447  -0.866   1.610  0.00  0.00    +0.030 A 
ATOM     10  C   LIG    1        1.638  -0.237   1.909  0.00  0.00    +0.060 A 
ATOM     11  C   LIG    1        2.155   0.716   1.050  0.00  0.00    -0.150 A 
ATOM     12  C   LIG    1        1.482   1.044  -0.113  0.00  0.00    +0.050 A 
ATOM     13  C   LIG    1        0.289   0.421  -0.422  0.00  0.00    +0.020 A 
BRANCH  11  14
ATOM     14  C   LIG    1        3.457   1.398   1.381  0.00  0.00    +0.320 C 
BRANCH  14  15
ATOM     15  N   LIG    1        3.189   2.609   2.168  0.00  0.00    -0.390 N 
ATOM     16  C   LIG    1        2.443   3.572   1.347  0.00  0.00    +0.320 C 
ATOM     17  C   LIG    1        4.460   3.209   2.593  0.00  0.00    +0.330 C 
ATOM     18  H   LIG    1        2.643   2.368   2.982  0.00  0.00    +0.430 HD
ENDBRANCH  14  15
ENDBRANCH  11  14
ENDBRANCH   7   8
ENDBRANCH   1   2
BRANCH   1  19
ATOM     19  N   LIG    1        0.483  -2.940  -1.584  0.00  0.00    -0.510 N 
ATOM     20  H   LIG    1        0.032  -3.829  -1.427  0.00  0.00    +0.430 HD
ATOM     21  H   LIG    1        0.887  -2.611  -0.720  0.00  0.00    +0.420 HD
BRANCH  19  23
ATOM     22  C   LIG    1        2.304  -1.780  -2.738  0.00  0.00    +0.090 C 
ATOM     23  C   LIG    1        1.540  -3.097  -2.591  0.00  0.00    +0.230 C 
BRANCH  23  24
ATOM     24  C   LIG    1        2.490  -4.184  -2.158  0.00  0.00    -0.160 A 
ATOM     25  C   LIG    1        2.862  -4.285  -0.830  0.00  0.00    +0.030 A 
ATOM     26  C   LIG    1        3.729  -5.282  -0.428  0.00  0.00    +0.010 A 
ATOM     27  C   LIG    1        4.234  -6.178  -1.361  0.00  0.00    +0.200 A 
ATOM     28  C   LIG    1        3.863  -6.070  -2.694  0.00  0.00    +0.050 A 
ATOM     29  C   LIG    1        2.992  -5.074  -3.089  0.00  0.00    +0.090 A 
BRANCH  27  30
ATOM     30  N   LIG    1        5.118  -7.189  -0.957  0.00  0.00    -0.350 N 
ATOM     31  C   LIG    1        5.571  -7.415   0.291  0.00  0.00    +0.500 A 
ATOM     32  N   LIG    1        6.371  -8.449   0.251  0.00  0.00    -0.520 NA
ATOM     33  C   LIG    1        6.461  -8.903  -0.999  0.00  0.00    +0.460 A 
ATOM     34  N   LIG    1        5.711  -8.165  -1.775  0.00  0.00    -0.310 NA
ENDBRANCH  27  30
ENDBRANCH  23  24
ENDBRANCH  19  23
ENDBRANCH   1  19
TORSDOF 8
