REMARK  Name = ZINCpe000000U4o6.0
REMARK                            x       y       z     vdW  Elec       q    Type
REMARK                         _______ _______ _______ _____ _____    ______ ____
ROOT
ATOM      1  C   LIG    1        2.676   7.920  -3.031  0.00  0.00    +0.260 C 
ATOM      2  C   LIG    1        1.585   8.055  -4.071  0.00  0.00    +0.510 C 
ATOM      3  N   LIG    1        0.902   9.207  -4.160  0.00  0.00    -0.720 N 
ATOM      4  H   LIG    1        0.230   9.317  -4.851  0.00  0.00    +0.400 HD
ATOM      5  C   LIG    1        1.166  10.301  -3.219  0.00  0.00    +0.270 C 
ATOM      6  C   LIG    1        0.626   9.915  -1.840  0.00  0.00    +0.010 C 
ATOM      7  C   LIG    1        1.687   9.166  -1.051  0.00  0.00    +0.270 C 
ATOM      8  O   LIG    1        1.331   7.133  -4.816  0.00  0.00    -0.530 OA
ATOM      9  N   LIG    1        2.059   7.912  -1.700  0.00  0.00    -0.600 N 
ATOM     10  C   LIG    1        1.829   6.740  -1.076  0.00  0.00    +0.500 C 
ATOM     11  O   LIG    1        2.132   5.696  -1.614  0.00  0.00    -0.510 OA
ENDROOT
BRANCH   1  13
ATOM     12  C   LIG    1        5.048   8.652  -2.743  0.00  0.00    +0.030 C 
ATOM     13  C   LIG    1        3.641   9.102  -3.142  0.00  0.00    +0.030 C 
ENDBRANCH   1  13
BRANCH  10  14
ATOM     14  C   LIG    1        1.195   6.726   0.291  0.00  0.00    +0.330 C 
BRANCH  14  15
ATOM     15  N   LIG    1        1.053   5.342   0.750  0.00  0.00    -0.530 N 
ATOM     16  C   LIG    1       -0.077   4.654   0.466  0.00  0.00    +0.560 A 
ATOM     17  C   LIG    1       -0.166   3.269   0.951  0.00  0.00    -0.200 A 
ATOM     18  C   LIG    1       -1.285   2.475   0.711  0.00  0.00    +0.100 A 
ATOM     19  C   LIG    1       -1.316   1.183   1.190  0.00  0.00    -0.010 A 
ATOM     20  C   LIG    1       -0.243   0.669   1.905  0.00  0.00    +0.070 A 
ATOM     21  C   LIG    1        0.873   1.438   2.152  0.00  0.00    +0.030 A 
ATOM     22  C   LIG    1        0.928   2.749   1.678  0.00  0.00    +0.160 A 
ATOM     23  N   LIG    1        2.007   3.541   1.899  0.00  0.00    -0.520 NA
ATOM     24  O   LIG    1       -0.985   5.163  -0.166  0.00  0.00    -0.510 OA
ATOM     25  C   LIG    1        2.057   4.761   1.458  0.00  0.00    +0.400 A 
ATOM     26  C   LIG    1        3.293   5.575   1.745  0.00  0.00    +0.170 C 
ENDBRANCH  14  15
ENDBRANCH  10  14
TORSDOF 3
