REMARK  Name = ZINCpe000000ZsO5.0
REMARK                            x       y       z     vdW  Elec       q    Type
REMARK                         _______ _______ _______ _____ _____    ______ ____
ROOT
ATOM      1  C   LIG    1        2.991  -0.550   2.226  0.00  0.00    +0.200 C 
ENDROOT
BRANCH   1   3
ATOM      2  O   LIG    1        4.394   0.720   0.815  0.00  0.00    -0.500 OA
ATOM      3  C   LIG    1        4.306   0.078   1.841  0.00  0.00    +0.560 C 
ATOM      4  N   LIG    1        5.384  -0.073   2.636  0.00  0.00    -0.640 N 
ATOM      5  C   LIG    1        5.672  -0.744   3.913  0.00  0.00    +0.300 C 
ATOM      6  C   LIG    1        7.132  -0.874   3.450  0.00  0.00    +0.250 C 
ATOM      7  C   LIG    1        6.787   0.366   2.612  0.00  0.00    +0.300 C 
BRANCH   6   8
ATOM      8  N   LIG    1        8.121  -0.631   4.502  0.00  0.00    -0.280 N 
ATOM      9  C   LIG    1        7.859  -0.160   5.744  0.00  0.00    +0.140 A 
ATOM     10  C   LIG    1        9.052  -0.090   6.380  0.00  0.00    +0.150 A 
ATOM     11  N   LIG    1        9.973  -0.516   5.509  0.00  0.00    -0.270 NA
ATOM     12  N   LIG    1        9.389  -0.834   4.408  0.00  0.00    -0.080 NA
ENDBRANCH   6   8
ENDBRANCH   1   3
BRANCH   1  13
ATOM     13  N   LIG    1        1.983  -0.241   1.203  0.00  0.00    -0.510 NA
ATOM     14  C   LIG    1        2.292  -0.920  -0.062  0.00  0.00    +0.190 C 
ATOM     15  C   LIG    1        1.308  -0.463  -1.141  0.00  0.00    +0.050 C 
ATOM     16  C   LIG    1       -0.119  -0.796  -0.698  0.00  0.00    +0.150 C 
ATOM     17  C   LIG    1       -0.399  -0.116   0.646  0.00  0.00    +0.000 C 
ATOM     18  C   LIG    1        0.635  -0.584   1.673  0.00  0.00    +0.190 C 
BRANCH  16  19
ATOM     19  O   LIG    1       -1.046  -0.320  -1.675  0.00  0.00    -0.570 OA
ATOM     20  H   LIG    1       -1.972  -0.497  -1.459  0.00  0.00    +0.380 HD
ENDBRANCH  16  19
ENDBRANCH   1  13
BRANCH   1  21
ATOM     21  C   LIG    1        2.542  -0.001   3.555  0.00  0.00    -0.090 A 
ATOM     22  C   LIG    1        2.095   1.304   3.649  0.00  0.00    +0.040 A 
ATOM     23  C   LIG    1        1.679   1.806   4.868  0.00  0.00    +0.010 A 
ATOM     24  C   LIG    1        1.720   1.006   5.995  0.00  0.00    +0.010 A 
ATOM     25  C   LIG    1        2.172  -0.296   5.902  0.00  0.00    +0.010 A 
ATOM     26  C   LIG    1        2.583  -0.800   4.683  0.00  0.00    +0.010 A 
ENDBRANCH   1  21
TORSDOF 5
