REMARK  Name = ZINCrH000004qhpf.0
REMARK                            x       y       z     vdW  Elec       q    Type
REMARK                         _______ _______ _______ _____ _____    ______ ____
ROOT
ATOM      1  C   LIG    1       -2.505   1.001   0.019  0.00  0.00    +0.120 A 
ATOM      2  C   LIG    1       -3.702   1.613   0.034  0.00  0.00    -0.090 A 
ATOM      3  S   LIG    1       -4.955   0.373   0.028  0.00  0.00    +0.220 S 
ATOM      4  C   LIG    1       -3.716  -0.878   0.016  0.00  0.00    +0.270 A 
ATOM      5  N   LIG    1       -2.543  -0.324   0.013  0.00  0.00    -0.490 NA
ENDROOT
BRANCH   1   9
ATOM      6  C   LIG    1        2.487   1.046  -0.016  0.00  0.00    +0.110 C 
ATOM      7  C   LIG    1        1.172   1.783   0.000  0.00  0.00    -0.130 A 
ATOM      8  C   LIG    1       -0.013   1.076   0.008  0.00  0.00    +0.120 A 
ATOM      9  C   LIG    1       -1.228   1.757   0.017  0.00  0.00    -0.050 A 
ATOM     10  C   LIG    1       -1.241   3.152   0.030  0.00  0.00    +0.140 A 
ATOM     11  C   LIG    1       -0.048   3.851   0.024  0.00  0.00    -0.030 A 
ATOM     12  F   LIG    1       -2.416   3.819   0.045  0.00  0.00    -0.120 F 
ATOM     13  C   LIG    1        1.156   3.168   0.009  0.00  0.00    +0.130 A 
ATOM     14  F   LIG    1        2.320   3.855   0.002  0.00  0.00    -0.130 F 
ENDBRANCH   1   9
BRANCH   4  15
ATOM     15  N   LIG    1       -3.957  -2.246   0.011  0.00  0.00    -0.610 N 
ATOM     16  H   LIG    1       -3.214  -2.869   0.004  0.00  0.00    +0.430 HD
ATOM     17  C   LIG    1       -5.223  -2.707   0.014  0.00  0.00    +0.610 C 
ATOM     18  O   LIG    1       -6.156  -1.925   0.022  0.00  0.00    -0.480 OA
BRANCH  17  19
ATOM     19  C   LIG    1       -5.478  -4.150   0.009  0.00  0.00    -0.070 A 
ATOM     20  C   LIG    1       -6.705  -4.749   0.012  0.00  0.00    +0.080 A 
ATOM     21  C   LIG    1       -6.479  -6.134   0.004  0.00  0.00    -0.020 A 
ATOM     22  C   LIG    1       -5.140  -6.318  -0.003  0.00  0.00    +0.020 A 
ATOM     23  O   LIG    1       -4.540  -5.121  -0.006  0.00  0.00    -0.150 OA
BRANCH  22  24
ATOM     24  C   LIG    1       -4.437  -7.651  -0.012  0.00  0.00    -0.210 C 
BRANCH  24  25
ATOM     25  S   LIG    1       -4.163  -8.179  -1.726  0.00  0.00    +2.420 S 
ATOM     26  O   LIG    1       -3.257  -7.272  -2.339  0.00  0.00    -0.920 OA
ATOM     27  O   LIG    1       -5.426  -8.415  -2.334  0.00  0.00    -0.920 OA
ATOM     28  C   LIG    1       -3.324  -9.771  -1.498  0.00  0.00    -0.250 C 
ENDBRANCH  24  25
ENDBRANCH  22  24
ENDBRANCH  17  19
ENDBRANCH   4  15
TORSDOF 5
