REMARK  Name = ZINCtV00000L6kBh.0
REMARK                            x       y       z     vdW  Elec       q    Type
REMARK                         _______ _______ _______ _____ _____    ______ ____
ROOT
ATOM      1  O   LIG    1        2.523  -4.300  -0.044  0.00  0.00    -1.010 OA
ATOM      2  P   LIG    1        2.743  -2.837  -0.039  0.00  0.00    +2.410 P 
ENDROOT
BRANCH   2   3
ATOM      3  N   LIG    1        1.295  -2.066  -0.021  0.00  0.00    -1.080 N 
ATOM      4  H   LIG    1        0.472  -2.580  -0.015  0.00  0.00    +0.440 HD
BRANCH   3   5
ATOM      5  C   LIG    1        1.246  -0.673  -0.013  0.00  0.00    +0.200 A 
ATOM      6  C   LIG    1        2.411   0.062  -0.020  0.00  0.00    -0.070 A 
ATOM      7  C   LIG    1        2.377   1.454  -0.013  0.00  0.00    +0.080 A 
ATOM      8  C   LIG    1        1.193   2.125   0.002  0.00  0.00    +0.010 A 
ATOM      9  C   LIG    1       -0.017   1.412   0.010  0.00  0.00    -0.070 A 
ATOM     10  C   LIG    1       -1.258   2.077   0.031  0.00  0.00    +0.080 A 
ATOM     11  C   LIG    1       -2.395   1.319   0.032  0.00  0.00    -0.020 A 
ATOM     12  C   LIG    1       -2.304  -0.070   0.024  0.00  0.00    +0.290 A 
ATOM     13  N   LIG    1       -1.146  -0.685   0.010  0.00  0.00    -0.470 NA
ATOM     14  C   LIG    1        0.002  -0.004   0.002  0.00  0.00    +0.100 A 
ENDBRANCH   3   5
ENDBRANCH   2   3
BRANCH   2  15
ATOM     15  O   LIG    1        3.585  -2.425   1.270  0.00  0.00    -0.630 OA
BRANCH  15  16
ATOM     16  C   LIG    1        3.151  -3.015   2.415  0.00  0.00    +0.050 A 
ATOM     17  C   LIG    1        3.428  -4.352   2.656  0.00  0.00    +0.070 A 
ATOM     18  C   LIG    1        2.986  -4.949   3.821  0.00  0.00    +0.040 A 
ATOM     19  C   LIG    1        2.268  -4.216   4.747  0.00  0.00    +0.060 A 
ATOM     20  C   LIG    1        1.989  -2.882   4.511  0.00  0.00    +0.010 A 
ATOM     21  C   LIG    1        2.434  -2.277   3.350  0.00  0.00    +0.090 A 
ATOM     22  F   LIG    1        2.168  -0.973   3.121  0.00  0.00    -0.130 F 
ENDBRANCH  15  16
ENDBRANCH   2  15
BRANCH   2  23
ATOM     23  O   LIG    1        3.560  -2.412  -1.359  0.00  0.00    -0.630 OA
BRANCH  23  24
ATOM     24  C   LIG    1        3.039  -2.904  -2.514  0.00  0.00    +0.060 A 
ATOM     25  C   LIG    1        1.886  -2.349  -3.048  0.00  0.00    +0.010 A 
ATOM     26  C   LIG    1        1.358  -2.852  -4.223  0.00  0.00    +0.040 A 
ATOM     27  C   LIG    1        1.978  -3.906  -4.866  0.00  0.00    +0.060 A 
ATOM     28  C   LIG    1        3.128  -4.463  -4.337  0.00  0.00    +0.020 A 
ATOM     29  C   LIG    1        3.664  -3.961  -3.165  0.00  0.00    +0.110 A 
ATOM     30  F   LIG    1        4.791  -4.500  -2.651  0.00  0.00    -0.120 F 
ENDBRANCH  23  24
ENDBRANCH   2  23
TORSDOF 6
