REMARK  Name = ZINCvU0000000GOy.0
REMARK                            x       y       z     vdW  Elec       q    Type
REMARK                         _______ _______ _______ _____ _____    ______ ____
ROOT
ATOM      1  C   LIG    1       -0.354   4.651  -0.137  0.00  0.00    -0.160 A 
ATOM      2  C   LIG    1        0.971   4.215  -0.133  0.00  0.00    +0.120 A 
ATOM      3  C   LIG    1        1.266   2.868  -0.025  0.00  0.00    +0.000 A 
ATOM      4  C   LIG    1        0.253   1.936   0.080  0.00  0.00    +0.150 A 
ATOM      5  C   LIG    1       -1.077   2.351   0.073  0.00  0.00    -0.230 A 
ATOM      6  C   LIG    1       -2.185   1.381   0.188  0.00  0.00    +0.430 A 
ATOM      7  O   LIG    1       -1.972   0.184   0.285  0.00  0.00    -0.460 OA
ATOM      8  C   LIG    1       -3.503   1.895   0.177  0.00  0.00    -0.280 A 
ATOM      9  C   LIG    1       -4.682   0.963   0.285  0.00  0.00    +0.130 C 
ATOM     10  C   LIG    1       -3.697   3.237   0.068  0.00  0.00    +0.200 A 
ATOM     11  O   LIG    1       -2.681   4.107  -0.032  0.00  0.00    -0.190 OA
ATOM     12  C   LIG    1       -1.393   3.714  -0.030  0.00  0.00    +0.200 A 
ENDROOT
BRANCH  10  13
ATOM     13  C   LIG    1       -5.080   3.755   0.058  0.00  0.00    -0.070 A 
ATOM     14  C   LIG    1       -6.030   3.203  -0.803  0.00  0.00    +0.050 A 
ATOM     15  C   LIG    1       -7.321   3.688  -0.804  0.00  0.00    +0.010 A 
ATOM     16  C   LIG    1       -7.672   4.729   0.038  0.00  0.00    +0.040 A 
ATOM     17  C   LIG    1       -6.734   5.285   0.890  0.00  0.00    +0.010 A 
ATOM     18  C   LIG    1       -5.441   4.805   0.905  0.00  0.00    +0.060 A 
ENDBRANCH  10  13
BRANCH   1  21
ATOM     19  N   LIG    1        0.340   6.987  -0.353  0.00  0.00    -0.670 N 
ATOM     20  H   LIG    1        1.259   6.682  -0.419  0.00  0.00    +0.410 HD
ATOM     21  C   LIG    1       -0.661   6.090  -0.251  0.00  0.00    +0.560 C 
ATOM     22  O   LIG    1       -1.817   6.466  -0.254  0.00  0.00    -0.490 OA
BRANCH  19  25
ATOM     23  C   LIG    1        0.641  10.608   0.234  0.00  0.00    +0.180 A 
ATOM     24  C   LIG    1        0.925   9.251   0.244  0.00  0.00    -0.070 A 
ATOM     25  C   LIG    1        0.054   8.355  -0.362  0.00  0.00    +0.220 A 
ATOM     26  C   LIG    1       -1.097   8.820  -0.983  0.00  0.00    -0.040 A 
ATOM     27  C   LIG    1       -1.382  10.177  -0.987  0.00  0.00    +0.180 A 
ATOM     28  C   LIG    1       -0.512  11.071  -0.381  0.00  0.00    -0.170 A 
BRANCH  23  30
ATOM     29  C   LIG    1        1.139  12.868   0.779  0.00  0.00    +0.250 C 
ATOM     30  O   LIG    1        1.494  11.485   0.827  0.00  0.00    -0.310 OA
ENDBRANCH  23  30
BRANCH  27  31
ATOM     31  O   LIG    1       -2.512  10.632  -1.590  0.00  0.00    -0.310 OA
ATOM     32  C   LIG    1       -2.740  12.042  -1.561  0.00  0.00    +0.250 C 
ENDBRANCH  27  31
ENDBRANCH  19  25
ENDBRANCH   1  21
TORSDOF 5
