REMARK  Name = ZINCnE000001TyNr.0
REMARK                            x       y       z     vdW  Elec       q    Type
REMARK                         _______ _______ _______ _____ _____    ______ ____
ROOT
ATOM      1  N   LIG    1        3.628   1.762  -0.023  0.00  0.00    -0.660 N 
ATOM      2  H   LIG    1        2.876   1.393   0.466  0.00  0.00    +0.410 HD
ATOM      3  C   LIG    1        3.527   2.975  -0.601  0.00  0.00    +0.560 C 
ATOM      4  O   LIG    1        4.496   3.474  -1.141  0.00  0.00    -0.520 OA
ENDROOT
BRANCH   3   5
ATOM      5  C   LIG    1        2.241   3.699  -0.578  0.00  0.00    -0.120 A 
ATOM      6  C   LIG    1        1.127   3.121   0.047  0.00  0.00    +0.020 A 
ATOM      7  C   LIG    1       -0.065   3.780   0.075  0.00  0.00    +0.050 A 
ATOM      8  C   LIG    1       -0.182   5.039  -0.521  0.00  0.00    -0.090 A 
ATOM      9  C   LIG    1       -1.281   5.993  -0.668  0.00  0.00    -0.060 A 
ATOM     10  C   LIG    1       -0.794   7.057  -1.330  0.00  0.00    +0.230 A 
ATOM     11  N   LIG    1        0.523   6.857  -1.630  0.00  0.00    -0.590 N 
ATOM     12  H   LIG    1        1.087   7.482  -2.112  0.00  0.00    +0.420 HD
ATOM     13  C   LIG    1        0.933   5.633  -1.147  0.00  0.00    +0.080 A 
ATOM     14  C   LIG    1        2.141   4.953  -1.176  0.00  0.00    +0.080 A 
ENDBRANCH   3   5
BRANCH   1  18
ATOM     15  C   LIG    1        7.170  -0.407  -0.336  0.00  0.00    -0.070 A 
ATOM     16  C   LIG    1        7.212   0.972  -0.235  0.00  0.00    +0.020 A 
ATOM     17  C   LIG    1        6.039   1.694  -0.131  0.00  0.00    +0.020 A 
ATOM     18  C   LIG    1        4.817   1.034  -0.129  0.00  0.00    +0.120 A 
ATOM     19  C   LIG    1        4.779  -0.351  -0.226  0.00  0.00    -0.020 A 
ATOM     20  C   LIG    1        5.955  -1.067  -0.335  0.00  0.00    +0.030 A 
BRANCH  15  21
ATOM     21  C   LIG    1        8.452  -1.191  -0.450  0.00  0.00    +0.080 C 
BRANCH  21  22
ATOM     22  C   LIG    1        8.947  -1.565   0.949  0.00  0.00    -0.050 C 
BRANCH  22  24
ATOM     23  O   LIG    1       10.703  -2.587  -0.262  0.00  0.00    -0.700 OA
ATOM     24  C   LIG    1       10.229  -2.349   0.836  0.00  0.00    +0.490 C 
ATOM     25  O   LIG    1       10.792  -2.745   1.842  0.00  0.00    -0.710 OA
ENDBRANCH  22  24
ENDBRANCH  21  22
ENDBRANCH  15  21
ENDBRANCH   1  18
TORSDOF 5
