REMARK  Name = ZINCvU00000009TX.1
REMARK                            x       y       z     vdW  Elec       q    Type
REMARK                         _______ _______ _______ _____ _____    ______ ____
ROOT
ATOM      1  O   LIG    1        1.099  -0.116   2.594  0.00  0.00    -0.540 OA
ATOM      2  C   LIG    1        0.052   0.497   2.609  0.00  0.00    +0.520 C 
ATOM      3  N   LIG    1       -0.432   0.975   3.772  0.00  0.00    -0.720 N 
ATOM      4  H   LIG    1       -1.269   1.465   3.785  0.00  0.00    +0.410 HD
ENDROOT
BRANCH   3   5
ATOM      5  C   LIG    1        0.306   0.754   5.019  0.00  0.00    +0.280 C 
BRANCH   5   6
ATOM      6  C   LIG    1       -0.386   1.502   6.160  0.00  0.00    +0.180 C 
BRANCH   6   7
ATOM      7  C   LIG    1       -0.304   2.986   5.910  0.00  0.00    -0.070 A 
ATOM      8  C   LIG    1       -1.390   3.658   5.383  0.00  0.00    +0.050 A 
ATOM      9  C   LIG    1       -1.316   5.020   5.153  0.00  0.00    +0.010 A 
ATOM     10  C   LIG    1       -0.155   5.709   5.450  0.00  0.00    +0.020 A 
ATOM     11  C   LIG    1        0.932   5.037   5.978  0.00  0.00    +0.020 A 
ATOM     12  C   LIG    1        0.856   3.676   6.214  0.00  0.00    -0.030 A 
ATOM     13 CL   LIG    1        2.218   2.833   6.883  0.00  0.00    -0.070 Cl
ENDBRANCH   6   7
BRANCH   6  14
ATOM     14  N   LIG    1       -1.795   1.094   6.230  0.00  0.00    -0.510 NA
ATOM     15  C   LIG    1       -1.917  -0.382   6.350  0.00  0.00    +0.170 C 
ATOM     16  C   LIG    1       -3.341  -0.574   6.928  0.00  0.00    +0.030 C 
ATOM     17  C   LIG    1       -3.478   0.610   7.912  0.00  0.00    +0.010 C 
ATOM     18  C   LIG    1       -2.449   1.651   7.434  0.00  0.00    +0.170 C 
ENDBRANCH   6  14
ENDBRANCH   5   6
ENDBRANCH   3   5
BRANCH   2  19
ATOM     19  C   LIG    1       -0.706   0.724   1.327  0.00  0.00    +0.060 C 
BRANCH  19  20
ATOM     20  C   LIG    1        0.055   0.085   0.164  0.00  0.00    +0.210 C 
BRANCH  20  21
ATOM     21  C   LIG    1       -0.704   0.312  -1.118  0.00  0.00    +0.200 A 
ATOM     22  N   LIG    1       -0.559   1.337  -1.911  0.00  0.00    -0.470 NA
ATOM     23  C   LIG    1       -1.394   1.201  -2.953  0.00  0.00    +0.180 A 
ATOM     24  C   LIG    1       -2.082   0.044  -2.777  0.00  0.00    -0.010 A 
ATOM     25  O   LIG    1       -1.640  -0.503  -1.624  0.00  0.00    -0.190 OA
BRANCH  24  26
ATOM     26  C   LIG    1       -3.116  -0.512  -3.676  0.00  0.00    -0.030 A 
ATOM     27  C   LIG    1       -3.737  -1.723  -3.365  0.00  0.00    +0.070 A 
ATOM     28  C   LIG    1       -4.704  -2.234  -4.205  0.00  0.00    -0.010 A 
ATOM     29  C   LIG    1       -5.053  -1.553  -5.361  0.00  0.00    +0.110 A 
ATOM     30  C   LIG    1       -4.436  -0.353  -5.676  0.00  0.00    +0.000 A 
ATOM     31  F   LIG    1       -5.997  -2.061  -6.182  0.00  0.00    -0.130 F 
ATOM     32  C   LIG    1       -3.471   0.170  -4.841  0.00  0.00    +0.070 A 
ENDBRANCH  24  26
ENDBRANCH  20  21
ENDBRANCH  19  20
ENDBRANCH   2  19
TORSDOF 8
