REMARK  Name = ZINCrD00000F5LAy.0
REMARK                            x       y       z     vdW  Elec       q    Type
REMARK                         _______ _______ _______ _____ _____    ______ ____
ROOT
ATOM      1  N   LIG    1       -1.425   3.353   1.498  0.00  0.00    -0.980 NA
ENDROOT
BRANCH   1   2
ATOM      2  S   LIG    1       -1.162   2.502   0.102  0.00  0.00    +2.710 S 
ATOM      3  O   LIG    1       -2.200   1.536   0.019  0.00  0.00    -0.950 OA
ATOM      4  O   LIG    1       -0.914   3.465  -0.914  0.00  0.00    -0.930 OA
BRANCH   2  10
ATOM      5  C   LIG    1        2.049   3.570   0.493  0.00  0.00    +0.170 C 
ATOM      6  C   LIG    1        1.647   2.118   0.469  0.00  0.00    +0.110 A 
ATOM      7  N   LIG    1        2.434   1.088   0.586  0.00  0.00    -0.350 NA
ATOM      8  O   LIG    1        1.820   0.049   0.528  0.00  0.00    +0.110 OA
ATOM      9  C   LIG    1        0.507   0.261   0.359  0.00  0.00    +0.310 A 
ATOM     10  C   LIG    1        0.339   1.604   0.313  0.00  0.00    -0.790 A 
ENDBRANCH   2  10
ENDBRANCH   1   2
BRANCH   1  11
ATOM     11  C   LIG    1       -2.171   2.739   2.600  0.00  0.00    +0.310 C 
BRANCH  11  12
ATOM     12  C   LIG    1       -1.246   2.563   3.806  0.00  0.00    -0.020 C 
ATOM     13  C   LIG    1       -0.141   1.561   3.464  0.00  0.00    +0.050 C 
ATOM     14  C   LIG    1        0.611   1.178   4.705  0.00  0.00    -0.060 C 
ATOM     15  C   LIG    1        0.173   1.373   5.908  0.00  0.00    -0.050 C 
ATOM     16  C   LIG    1       -1.142   2.020   6.229  0.00  0.00    +0.050 C 
ATOM     17  C   LIG    1       -2.046   2.017   4.995  0.00  0.00    +0.030 C 
ENDBRANCH  11  12
ENDBRANCH   1  11
BRANCH   1  18
ATOM     18  C   LIG    1       -0.913   4.719   1.631  0.00  0.00    +0.410 C 
BRANCH  18  19
ATOM     19  C   LIG    1       -1.993   5.700   1.255  0.00  0.00    -0.000 A 
ATOM     20  N   LIG    1       -2.231   6.192   0.068  0.00  0.00    -0.340 NA
ATOM     21  O   LIG    1       -3.174   6.957   0.080  0.00  0.00    +0.110 OA
ATOM     22  C   LIG    1       -3.684   7.077   1.304  0.00  0.00    -0.030 A 
ATOM     23  C   LIG    1       -4.844   7.906   1.786  0.00  0.00    +0.140 C 
ATOM     24  C   LIG    1       -5.277   7.376   3.159  0.00  0.00    +0.030 C 
ATOM     25  C   LIG    1       -4.056   7.250   4.074  0.00  0.00    +0.030 C 
ATOM     26  C   LIG    1       -3.163   6.102   3.583  0.00  0.00    +0.120 C 
ATOM     27  C   LIG    1       -2.944   6.275   2.108  0.00  0.00    -0.190 A 
ENDBRANCH  18  19
ENDBRANCH   1  18
TORSDOF 6
