REMARK  Name = ZINCrg000000rU4O.0
REMARK                            x       y       z     vdW  Elec       q    Type
REMARK                         _______ _______ _______ _____ _____    ______ ____
ROOT
ATOM      1  C   LIG    1       -0.037   2.238   2.168  0.00  0.00    +0.520 C 
ATOM      2  N   LIG    1       -0.706   1.562   1.213  0.00  0.00    -0.610 N 
ATOM      3  C   LIG    1       -2.146   1.289   1.351  0.00  0.00    +0.260 C 
ATOM      4  C   LIG    1       -2.868   1.797   0.099  0.00  0.00    +0.020 C 
ATOM      5  C   LIG    1       -2.228   1.174  -1.143  0.00  0.00    +0.020 C 
ATOM      6  C   LIG    1       -0.759   1.596  -1.228  0.00  0.00    -0.020 C 
ATOM      7  C   LIG    1       -0.013   1.086   0.008  0.00  0.00    +0.290 C 
ATOM      8  O   LIG    1        1.149   2.457   2.038  0.00  0.00    -0.530 OA
ENDROOT
BRANCH   1   9
ATOM      9  C   LIG    1       -0.762   2.720   3.398  0.00  0.00    +0.160 C 
BRANCH   9  12
ATOM     10  C   LIG    1       -0.511   5.567   3.250  0.00  0.00    +0.160 C 
ATOM     11  C   LIG    1        0.324   4.786   4.232  0.00  0.00    +0.230 A 
ATOM     12  C   LIG    1        0.205   3.441   4.301  0.00  0.00    -0.260 A 
ATOM     13  C   LIG    1        0.993   2.713   5.216  0.00  0.00    +0.580 A 
ATOM     14  N   LIG    1        1.856   3.362   6.022  0.00  0.00    -0.360 N 
ATOM     15  N   LIG    1        2.747   2.914   7.005  0.00  0.00    -0.260 NA
ATOM     16  C   LIG    1        3.368   3.953   7.506  0.00  0.00    +0.290 A 
ATOM     17  C   LIG    1        2.901   5.102   6.866  0.00  0.00    -0.120 A 
ATOM     18  C   LIG    1        1.967   4.721   5.950  0.00  0.00    +0.300 A 
ATOM     19  O   LIG    1        0.893   1.501   5.279  0.00  0.00    -0.490 OA
ATOM     20  N   LIG    1        1.195   5.436   5.054  0.00  0.00    -0.600 N 
ATOM     21  H   LIG    1        1.277   6.401   5.006  0.00  0.00    +0.430 HD
ENDBRANCH   9  12
ENDBRANCH   1   9
BRANCH   6  22
ATOM     22  C   LIG    1       -0.129   0.999  -2.488  0.00  0.00    +0.150 C 
BRANCH  22  23
ATOM     23  C   LIG    1        1.281   1.511  -2.635  0.00  0.00    +0.200 A 
ATOM     24  N   LIG    1        2.350   0.948  -2.141  0.00  0.00    -0.480 NA
ATOM     25  C   LIG    1        3.426   1.678  -2.469  0.00  0.00    +0.150 A 
ATOM     26  C   LIG    1        3.009   2.734  -3.193  0.00  0.00    +0.110 A 
ATOM     27  N   LIG    1        1.649   2.626  -3.303  0.00  0.00    -0.460 N 
ATOM     28  C   LIG    1        0.758   3.548  -4.011  0.00  0.00    +0.330 C 
ENDBRANCH  22  23
ENDBRANCH   6  22
TORSDOF 4
