REMARK  Name = ZINCrD000000f1bQ.1
REMARK                            x       y       z     vdW  Elec       q    Type
REMARK                         _______ _______ _______ _____ _____    ______ ____
ROOT
ATOM      1  C   LIG    1        4.130   4.019  -2.828  0.00  0.00    +0.140 A 
ATOM      2  C   LIG    1        3.678   3.973  -4.139  0.00  0.00    +0.060 A 
ATOM      3  C   LIG    1        3.044   2.839  -4.614  0.00  0.00    -0.030 A 
ATOM      4  C   LIG    1        2.859   1.747  -3.783  0.00  0.00    +0.100 A 
ATOM      5  C   LIG    1        3.312   1.790  -2.466  0.00  0.00    +0.140 A 
ATOM      6  C   LIG    1        3.942   2.929  -1.989  0.00  0.00    +0.000 A 
ENDROOT
BRANCH   1   8
ATOM      7  C   LIG    1        4.381   6.386  -2.775  0.00  0.00    +0.510 C 
ATOM      8  N   LIG    1        4.772   5.169  -2.348  0.00  0.00    -0.670 N 
ATOM      9  H   LIG    1        5.497   5.089  -1.709  0.00  0.00    +0.420 HD
ATOM     10  O   LIG    1        3.532   6.483  -3.636  0.00  0.00    -0.520 OA
BRANCH   7  11
ATOM     11  C   LIG    1        5.000   7.626  -2.184  0.00  0.00    +0.060 C 
BRANCH  11  12
ATOM     12  C   LIG    1        4.385   8.865  -2.838  0.00  0.00    +0.060 C 
BRANCH  12  13
ATOM     13  C   LIG    1        5.013  10.124  -2.238  0.00  0.00    +0.170 C 
BRANCH  13  15
ATOM     14  C   LIG    1        3.949  12.266  -3.370  0.00  0.00    +0.020 C 
ATOM     15  C   LIG    1        4.421  11.316  -2.868  0.00  0.00    -0.190 C 
ENDBRANCH  13  15
ENDBRANCH  12  13
ENDBRANCH  11  12
ENDBRANCH   7  11
ENDBRANCH   1   8
BRANCH   5  16
ATOM     16  N   LIG    1        3.126   0.688  -1.625  0.00  0.00    -1.040 N 
ATOM     17  H   LIG    1        3.187  -0.212  -1.983  0.00  0.00    +0.430 HD
BRANCH  16  18
ATOM     18  S   LIG    1        2.801   0.918  -0.017  0.00  0.00    +2.700 S 
ATOM     19  O   LIG    1        2.524  -0.366   0.524  0.00  0.00    -0.940 OA
ATOM     20  O   LIG    1        3.825   1.768   0.481  0.00  0.00    -0.950 OA
BRANCH  18  21
ATOM     21  C   LIG    1        1.300   1.835   0.085  0.00  0.00    -0.690 A 
ATOM     22  C   LIG    1        0.088   1.171   0.146  0.00  0.00    +0.170 A 
ATOM     23  C   LIG    1       -1.090   1.890   0.221  0.00  0.00    -0.030 A 
ATOM     24  C   LIG    1       -1.057   3.274   0.246  0.00  0.00    +0.160 A 
ATOM     25  C   LIG    1        0.157   3.937   0.185  0.00  0.00    -0.020 A 
ATOM     26  F   LIG    1       -2.208   3.977   0.324  0.00  0.00    -0.130 F 
ATOM     27  C   LIG    1        1.334   3.216   0.104  0.00  0.00    +0.170 A 
ENDBRANCH  18  21
ENDBRANCH  16  18
ENDBRANCH   5  16
BRANCH   4  28
ATOM     28  O   LIG    1        2.235   0.633  -4.253  0.00  0.00    -0.310 OA
ATOM     29  C   LIG    1        1.797   0.659  -5.613  0.00  0.00    +0.250 C 
ENDBRANCH   4  28
TORSDOF 9
