REMARK  Name = ZINCvU0000000G6b.0
REMARK                            x       y       z     vdW  Elec       q    Type
REMARK                         _______ _______ _______ _____ _____    ______ ____
ROOT
ATOM      1  N   LIG    1        3.092   6.523  -0.164  0.00  0.00    -0.620 N 
ATOM      2  H   LIG    1        4.005   6.197  -0.135  0.00  0.00    +0.420 HD
ATOM      3  C   LIG    1        2.849   7.849  -0.146  0.00  0.00    +0.560 C 
ATOM      4  O   LIG    1        1.705   8.258  -0.183  0.00  0.00    -0.490 OA
ENDROOT
BRANCH   3   5
ATOM      5  C   LIG    1        3.974   8.806  -0.081  0.00  0.00    -0.120 A 
ATOM      6  C   LIG    1        5.289   8.339  -0.033  0.00  0.00    +0.060 A 
ATOM      7  C   LIG    1        6.337   9.235   0.021  0.00  0.00    +0.040 A 
ATOM      8  C   LIG    1        6.090  10.595   0.040  0.00  0.00    +0.050 A 
ATOM      9  C   LIG    1        4.785  11.069  -0.002  0.00  0.00    +0.080 A 
ATOM     10  C   LIG    1        3.726  10.178  -0.062  0.00  0.00    +0.080 A 
BRANCH   9  11
ATOM     11  O   LIG    1        4.547  12.406   0.016  0.00  0.00    -0.250 OA
BRANCH  11  12
ATOM     12  C   LIG    1        3.939  12.931   1.112  0.00  0.00    +0.120 A 
ATOM     13  C   LIG    1        3.689  12.132   2.219  0.00  0.00    -0.060 A 
ATOM     14  C   LIG    1        3.075  12.669   3.333  0.00  0.00    +0.050 A 
ATOM     15  C   LIG    1        2.700  14.000   3.343  0.00  0.00    -0.020 A 
ATOM     16  C   LIG    1        2.942  14.798   2.240  0.00  0.00    +0.050 A 
ATOM     17  C   LIG    1        3.561  14.267   1.125  0.00  0.00    -0.010 A 
ENDBRANCH  11  12
ENDBRANCH   9  11
ENDBRANCH   3   5
BRANCH   1  21
ATOM     18  C   LIG    1        1.028   3.630  -0.308  0.00  0.00    +0.150 A 
ATOM     19  C   LIG    1       -0.104   4.354  -0.343  0.00  0.00    -0.120 A 
ATOM     20  S   LIG    1        0.331   6.061  -0.285  0.00  0.00    +0.190 S 
ATOM     21  C   LIG    1        2.036   5.625  -0.225  0.00  0.00    +0.270 A 
ATOM     22  N   LIG    1        2.151   4.333  -0.248  0.00  0.00    -0.470 NA
BRANCH  18  26
ATOM     23  C   LIG    1        1.011  -0.626  -0.401  0.00  0.00    +0.180 A 
ATOM     24  C   LIG    1       -0.187   0.075  -0.433  0.00  0.00    -0.120 A 
ATOM     25  C   LIG    1       -0.184   1.455  -0.403  0.00  0.00    +0.120 A 
ATOM     26  C   LIG    1        1.022   2.147  -0.340  0.00  0.00    -0.100 A 
ATOM     27  C   LIG    1        2.229   1.440  -0.307  0.00  0.00    +0.200 A 
ATOM     28  C   LIG    1        2.217   0.057  -0.337  0.00  0.00    -0.110 A 
BRANCH  23  30
ATOM     29  C   LIG    1       -0.275  -2.623  -0.497  0.00  0.00    +0.250 C 
ATOM     30  O   LIG    1        1.002  -1.985  -0.432  0.00  0.00    -0.320 OA
ENDBRANCH  23  30
BRANCH  27  31
ATOM     31  O   LIG    1        3.409   2.110  -0.245  0.00  0.00    -0.270 OA
ATOM     32  C   LIG    1        4.601   1.322  -0.214  0.00  0.00    +0.240 C 
ENDBRANCH  27  31
ENDBRANCH  18  26
ENDBRANCH   1  21
TORSDOF 7
