REMARK  Name = ZINCqH0000000nWO.0
REMARK                            x       y       z     vdW  Elec       q    Type
REMARK                         _______ _______ _______ _____ _____    ______ ____
ROOT
ATOM      1  C   LIG    1        4.876   1.385   0.056  0.00  0.00    +0.430 C 
ENDROOT
BRANCH   1   2
ATOM      2  C   LIG    1        6.010   2.376   0.016  0.00  0.00    +0.160 A 
ATOM      3  N   LIG    1        6.601   2.925   1.049  0.00  0.00    -0.450 NA
ATOM      4  C   LIG    1        7.551   3.738   0.535  0.00  0.00    +0.220 A 
ATOM      5  N   LIG    1        7.477   3.642  -0.767  0.00  0.00    -0.360 NA
ATOM      6  O   LIG    1        6.599   2.866  -1.079  0.00  0.00    +0.100 OA
BRANCH   4   7
ATOM      7  C   LIG    1        8.496   4.584   1.304  0.00  0.00    -0.040 A 
ATOM      8  C   LIG    1        8.459   4.584   2.697  0.00  0.00    +0.100 A 
ATOM      9  C   LIG    1        9.340   5.373   3.408  0.00  0.00    +0.000 A 
ATOM     10  C   LIG    1       10.261   6.163   2.740  0.00  0.00    +0.120 A 
ATOM     11  C   LIG    1       10.301   6.165   1.354  0.00  0.00    -0.120 A 
ATOM     12  C   LIG    1       11.305   7.027   0.632  0.00  0.00    +0.110 C 
ATOM     13  F   LIG    1       11.122   6.933   3.440  0.00  0.00    -0.130 F 
ATOM     14  C   LIG    1        9.428   5.377   0.635  0.00  0.00    +0.090 A 
ENDBRANCH   4   7
ENDBRANCH   1   2
BRANCH   1  15
ATOM     15  N   LIG    1        3.599   2.103   0.043  0.00  0.00    -0.740 N 
ATOM     16  H   LIG    1        3.588   3.072   0.013  0.00  0.00    +0.410 HD
BRANCH  15  22
ATOM     17  C   LIG    1        1.179   2.072   0.062  0.00  0.00    +0.050 A 
ATOM     18  C   LIG    1       -0.010   1.360   0.093  0.00  0.00    +0.060 A 
ATOM     19  C   LIG    1        0.012  -0.022   0.136  0.00  0.00    -0.030 A 
ATOM     20  C   LIG    1        1.218  -0.697   0.148  0.00  0.00    +0.070 A 
ATOM     21  C   LIG    1        2.409   0.005   0.117  0.00  0.00    -0.060 A 
ATOM     22  C   LIG    1        2.396   1.391   0.074  0.00  0.00    +0.220 A 
BRANCH  17  25
ATOM     23  C   LIG    1        1.026   3.319  -2.446  0.00  0.00    +0.090 C 
ATOM     24  C   LIG    1        1.140   4.110  -1.169  0.00  0.00    +0.520 C 
ATOM     25  N   LIG    1        1.158   3.473   0.019  0.00  0.00    -0.570 N 
ATOM     26  C   LIG    1        1.156   4.245   1.264  0.00  0.00    +0.280 C 
ATOM     27  O   LIG    1        1.215   5.320  -1.209  0.00  0.00    -0.540 OA
ENDBRANCH  17  25
ENDBRANCH  15  22
ENDBRANCH   1  15
TORSDOF 5
