REMARK  Name = ZINCqH00000397Rn.0
REMARK                            x       y       z     vdW  Elec       q    Type
REMARK                         _______ _______ _______ _____ _____    ______ ____
ROOT
ATOM      1  N   LIG    1       -1.647   2.479   1.405  0.00  0.00    -0.730 N 
ATOM      2  H   LIG    1       -1.126   2.115   2.138  0.00  0.00    +0.400 HD
ATOM      3  C   LIG    1       -2.733   3.235   1.661  0.00  0.00    +0.600 C 
ATOM      4  O   LIG    1       -3.387   3.692   0.741  0.00  0.00    -0.520 OA
ENDROOT
BRANCH   3   5
ATOM      5  C   LIG    1       -3.127   3.506   3.044  0.00  0.00    -0.260 A 
ATOM      6  C   LIG    1       -4.202   4.253   3.422  0.00  0.00    +0.130 A 
ATOM      7  C   LIG    1       -4.387   4.379   4.779  0.00  0.00    -0.100 A 
ATOM      8  C   LIG    1       -3.438   3.718   5.529  0.00  0.00    -0.130 A 
ATOM      9  C   LIG    1       -3.403   3.691   7.009  0.00  0.00    +0.010 A 
ATOM     10  C   LIG    1       -2.214   3.393   7.674  0.00  0.00    +0.010 A 
ATOM     11  C   LIG    1       -2.187   3.378   9.056  0.00  0.00    +0.110 A 
ATOM     12  C   LIG    1       -3.336   3.657   9.780  0.00  0.00    +0.020 A 
ATOM     13  C   LIG    1       -4.520   3.951   9.130  0.00  0.00    +0.090 A 
ATOM     14  F   LIG    1       -1.038   3.088   9.703  0.00  0.00    -0.130 F 
ATOM     15  C   LIG    1       -4.564   3.967   7.743  0.00  0.00    -0.090 A 
ATOM     16  S   LIG    1       -6.075   4.323   6.912  0.00  0.00    -0.080 S 
ATOM     17  C   LIG    1       -5.529   5.168   5.403  0.00  0.00    +0.190 C 
ATOM     18  S   LIG    1       -2.290   2.912   4.470  0.00  0.00    +0.200 S 
ENDBRANCH   3   5
BRANCH   1  19
ATOM     19  C   LIG    1       -1.253   2.208   0.020  0.00  0.00    +0.410 C 
BRANCH  19  23
ATOM     20  C   LIG    1        2.094   0.746  -0.014  0.00  0.00    -0.070 A 
ATOM     21  C   LIG    1        1.349  -0.399  -0.013  0.00  0.00    +0.050 A 
ATOM     22  C   LIG    1        0.002  -0.004   0.002  0.00  0.00    -0.030 A 
ATOM     23  C   LIG    1       -0.016   1.347   0.009  0.00  0.00    -0.010 A 
ATOM     24  O   LIG    1        1.246   1.795  -0.000  0.00  0.00    -0.160 OA
BRANCH  20  28
ATOM     25  N   LIG    1        4.171   2.021  -0.027  0.00  0.00    -0.840 N 
ATOM     26  H   LIG    1        5.140   2.071  -0.037  0.00  0.00    +0.410 HD
ATOM     27  H   LIG    1        3.644   2.835  -0.018  0.00  0.00    +0.410 HD
ATOM     28  C   LIG    1        3.558   0.821  -0.028  0.00  0.00    +0.610 C 
ATOM     29  O   LIG    1        4.220  -0.200  -0.040  0.00  0.00    -0.520 OA
ENDBRANCH  20  28
ENDBRANCH  19  23
ENDBRANCH   1  19
TORSDOF 4
