REMARK  Name = ZINCpk000004AOOZ.0
REMARK                            x       y       z     vdW  Elec       q    Type
REMARK                         _______ _______ _______ _____ _____    ______ ____
ROOT
ATOM      1  C   LIG    1        6.417  -3.584   0.738  0.00  0.00    +0.520 C 
ATOM      2  N   LIG    1        5.183  -3.228   1.149  0.00  0.00    -0.610 N 
ATOM      3  C   LIG    1        4.910  -1.854   1.592  0.00  0.00    +0.270 C 
ATOM      4  C   LIG    1        4.314  -1.904   3.004  0.00  0.00    +0.260 C 
ATOM      5  N   LIG    1        3.218  -2.883   3.017  0.00  0.00    -0.610 N 
ATOM      6  C   LIG    1        3.492  -4.259   2.579  0.00  0.00    +0.290 C 
ATOM      7  C   LIG    1        1.985  -2.527   3.428  0.00  0.00    +0.580 C 
ATOM      8  O   LIG    1        1.076  -3.335   3.396  0.00  0.00    -0.530 OA
ATOM      9  C   LIG    1        4.087  -4.207   1.161  0.00  0.00    +0.290 C 
ATOM     10  O   LIG    1        6.607  -4.691   0.278  0.00  0.00    -0.530 OA
ENDROOT
BRANCH   1  16
ATOM     11  C   LIG    1        8.579   0.573  -0.291  0.00  0.00    +0.550 C 
ATOM     12  N   LIG    1        8.701  -0.769  -0.277  0.00  0.00    -0.610 N 
ATOM     13  C   LIG    1       10.026  -1.400  -0.210  0.00  0.00    +0.260 C 
ATOM     14  C   LIG    1       10.046  -2.382   0.965  0.00  0.00    +0.010 C 
ATOM     15  C   LIG    1        8.886  -3.369   0.820  0.00  0.00    +0.050 C 
ATOM     16  C   LIG    1        7.559  -2.608   0.849  0.00  0.00    -0.020 C 
ATOM     17  C   LIG    1        7.511  -1.629  -0.329  0.00  0.00    +0.300 C 
ATOM     18  O   LIG    1        7.477   1.084  -0.250  0.00  0.00    -0.540 OA
BRANCH  11  20
ATOM     19  C   LIG    1        9.668   2.742  -0.259  0.00  0.00    +0.150 C 
ATOM     20  C   LIG    1        9.781   1.420  -0.355  0.00  0.00    -0.090 C 
ENDBRANCH  11  20
ENDBRANCH   1  16
BRANCH   7  21
ATOM     21  C   LIG    1        1.738  -1.160   3.916  0.00  0.00    -0.150 A 
ATOM     22  C   LIG    1        2.693  -0.389   4.500  0.00  0.00    -0.050 A 
ATOM     23  S   LIG    1        2.058   1.131   4.940  0.00  0.00    +0.200 S 
ATOM     24  C   LIG    1        0.465   0.728   4.325  0.00  0.00    -0.060 A 
ATOM     25  C   LIG    1        0.456  -0.501   3.822  0.00  0.00    +0.060 A 
ENDBRANCH   7  21
TORSDOF 3
