REMARK  Name = ZINCpe000027pHjF.0
REMARK                            x       y       z     vdW  Elec       q    Type
REMARK                         _______ _______ _______ _____ _____    ______ ____
ROOT
ATOM      1  C   LIG    1        0.002  -0.004   0.002  0.00  0.00    +0.100 C 
ATOM      2  C   LIG    1        1.239  -0.338   0.862  0.00  0.00    +0.280 C 
ATOM      3  N   LIG    1        2.115   0.844   0.844  0.00  0.00    -0.620 N 
ATOM      4  C   LIG    1        1.494   1.879  -0.002  0.00  0.00    +0.250 C 
ATOM      5  C   LIG    1        3.290   0.960   1.494  0.00  0.00    +0.560 C 
ATOM      6  O   LIG    1        3.706   0.039   2.164  0.00  0.00    -0.530 OA
ATOM      7  C   LIG    1       -0.019   1.547   0.011  0.00  0.00    +0.260 C 
ENDROOT
BRANCH   1  12
ATOM      8  C   LIG    1       -3.382  -1.646   3.326  0.00  0.00    +0.330 C 
ATOM      9  N   LIG    1       -2.720  -1.270   2.074  0.00  0.00    -0.460 N 
ATOM     10  C   LIG    1       -3.243  -1.364   0.832  0.00  0.00    +0.400 A 
ATOM     11  N   LIG    1       -2.361  -0.931  -0.027  0.00  0.00    -0.480 NA
ATOM     12  C   LIG    1       -1.252  -0.558   0.628  0.00  0.00    +0.000 A 
ATOM     13  C   LIG    1       -1.457  -0.759   1.944  0.00  0.00    +0.130 A 
ENDBRANCH   1  12
BRANCH   5  14
ATOM     14  C   LIG    1        4.087   2.235   1.386  0.00  0.00    -0.080 C 
ATOM     15  C   LIG    1        5.410   2.178   0.620  0.00  0.00    +0.060 C 
ATOM     16  C   LIG    1        5.413   2.304   2.145  0.00  0.00    +0.070 C 
ENDBRANCH   5  14
BRANCH   7  17
ATOM     17  N   LIG    1       -0.681   2.070  -1.187  0.00  0.00    -0.690 N 
ATOM     18  H   LIG    1       -0.710   1.537  -1.997  0.00  0.00    +0.420 HD
BRANCH  17  19
ATOM     19  C   LIG    1       -1.268   3.330  -1.163  0.00  0.00    +0.370 A 
ATOM     20  C   LIG    1       -1.232   4.094   0.004  0.00  0.00    +0.190 A 
ATOM     21  N   LIG    1       -1.784   5.293   0.028  0.00  0.00    -0.390 NA
ATOM     22  C   LIG    1       -2.383   5.770  -1.049  0.00  0.00    +0.220 A 
ATOM     23  C   LIG    1       -2.428   5.010  -2.217  0.00  0.00    +0.200 A 
ATOM     24  N   LIG    1       -1.867   3.803  -2.245  0.00  0.00    -0.470 NA
BRANCH  23  25
ATOM     25  C   LIG    1       -3.076   5.527  -3.385  0.00  0.00    +0.260 C 
ATOM     26  N   LIG    1       -3.591   5.937  -4.311  0.00  0.00    -0.370 NA
ENDBRANCH  23  25
ENDBRANCH  17  19
ENDBRANCH   7  17
TORSDOF 5
