REMARK  Name = ZINCvU0000000GPF.0
REMARK                            x       y       z     vdW  Elec       q    Type
REMARK                         _______ _______ _______ _____ _____    ______ ____
ROOT
ATOM      1  N   LIG    1        2.502   2.949  -0.006  0.00  0.00    -0.630 N 
ATOM      2  H   LIG    1        2.071   3.818   0.002  0.00  0.00    +0.430 HD
ATOM      3  C   LIG    1        3.847   2.865  -0.020  0.00  0.00    +0.510 C 
ATOM      4  O   LIG    1        4.387   1.778  -0.030  0.00  0.00    -0.460 OA
ENDROOT
BRANCH   1  10
ATOM      5  C   LIG    1       -0.752  -2.284  -0.003  0.00  0.00    -0.660 A 
ATOM      6  C   LIG    1        0.566  -2.717  -0.018  0.00  0.00    +0.140 A 
ATOM      7  C   LIG    1        1.598  -1.813  -0.023  0.00  0.00    +0.060 A 
ATOM      8  C   LIG    1        1.335  -0.427  -0.013  0.00  0.00    +0.160 A 
ATOM      9  N   LIG    1        2.210   0.598  -0.016  0.00  0.00    -0.480 NA
ATOM     10  C   LIG    1        1.736   1.795  -0.005  0.00  0.00    +0.350 A 
ATOM     11  S   LIG    1       -0.022   1.758   0.012  0.00  0.00    +0.090 S 
ATOM     12  C   LIG    1        0.002  -0.004   0.002  0.00  0.00    -0.210 A 
ATOM     13  C   LIG    1       -1.033  -0.935   0.007  0.00  0.00    +0.190 A 
BRANCH   5  15
ATOM     14  C   LIG    1       -2.420  -3.750  -1.751  0.00  0.00    -0.250 C 
ATOM     15  S   LIG    1       -2.065  -3.458   0.004  0.00  0.00    +2.500 S 
ATOM     16  O   LIG    1       -3.145  -2.772   0.623  0.00  0.00    -0.930 OA
ATOM     17  O   LIG    1       -1.496  -4.617   0.597  0.00  0.00    -0.930 OA
ENDBRANCH   5  15
ENDBRANCH   1  10
BRANCH   3  18
ATOM     18  C   LIG    1        4.681   4.120  -0.021  0.00  0.00    +0.090 C 
BRANCH  18  19
ATOM     19  C   LIG    1        6.165   3.747  -0.037  0.00  0.00    +0.220 C 
BRANCH  19  20
ATOM     20  C   LIG    1        6.999   5.002  -0.039  0.00  0.00    +0.200 A 
ATOM     21  N   LIG    1        7.423   5.630   1.022  0.00  0.00    -0.470 NA
ATOM     22  C   LIG    1        8.134   6.701   0.637  0.00  0.00    +0.190 A 
ATOM     23  C   LIG    1        8.134   6.726  -0.720  0.00  0.00    -0.010 A 
ATOM     24  O   LIG    1        7.419   5.655  -1.131  0.00  0.00    -0.180 OA
BRANCH  23  25
ATOM     25  C   LIG    1        8.790   7.730  -1.583  0.00  0.00    -0.010 A 
ATOM     26  C   LIG    1        8.587   9.092  -1.353  0.00  0.00    +0.080 A 
ATOM     27  C   LIG    1        9.203  10.025  -2.161  0.00  0.00    +0.050 A 
ATOM     28  C   LIG    1       10.022   9.614  -3.199  0.00  0.00    -0.010 A 
ATOM     29  C   LIG    1       10.229   8.264  -3.433  0.00  0.00    +0.050 A 
ATOM     30 CL   LIG    1       10.794  10.794  -4.211  0.00  0.00    -0.050 Cl
ATOM     31  C   LIG    1        9.622   7.321  -2.628  0.00  0.00    -0.010 A 
ATOM     32 CL   LIG    1        9.887   5.630  -2.918  0.00  0.00    -0.040 Cl
ENDBRANCH  23  25
ENDBRANCH  19  20
ENDBRANCH  18  19
ENDBRANCH   3  18
TORSDOF 6
