REMARK  Name = ZINCrg00000Bi2QO.0
REMARK                            x       y       z     vdW  Elec       q    Type
REMARK                         _______ _______ _______ _____ _____    ______ ____
ROOT
ATOM      1  C   LIG    1        4.055  -1.798   0.565  0.00  0.00    +0.240 C 
ATOM      2  C   LIG    1        2.687  -2.253  -0.009  0.00  0.00    +0.050 C 
ATOM      3  C   LIG    1        1.865  -0.948  -0.021  0.00  0.00    +0.250 C 
ATOM      4  N   LIG    1        2.821   0.170  -0.024  0.00  0.00    -0.620 N 
ATOM      5  C   LIG    1        2.499   1.479  -0.014  0.00  0.00    +0.600 C 
ATOM      6  O   LIG    1        3.376   2.321  -0.018  0.00  0.00    -0.520 OA
ATOM      7  C   LIG    1        4.189  -0.378  -0.046  0.00  0.00    +0.260 C 
ENDROOT
BRANCH   5   8
ATOM      8  C   LIG    1        1.084   1.889   0.002  0.00  0.00    -0.190 A 
ATOM      9  C   LIG    1       -0.013   1.076   0.008  0.00  0.00    +0.250 A 
ATOM     10  O   LIG    1       -1.107   1.843   0.017  0.00  0.00    -0.140 OA
ATOM     11  C   LIG    1       -0.782   3.146   0.026  0.00  0.00    -0.070 A 
ATOM     12  C   LIG    1       -1.356   4.546   0.040  0.00  0.00    +0.360 C 
ATOM     13  O   LIG    1       -0.288   5.415  -0.383  0.00  0.00    -0.340 OA
ATOM     14  C   LIG    1        0.910   4.722   0.017  0.00  0.00    +0.310 C 
ATOM     15  C   LIG    1        0.558   3.257   0.014  0.00  0.00    -0.180 A 
ENDBRANCH   5   8
BRANCH   1  18
ATOM     16  O   LIG    1        6.385  -2.173   1.866  0.00  0.00    -0.520 OA
ATOM     17  C   LIG    1        6.265  -2.790   0.829  0.00  0.00    +0.500 C 
ATOM     18  N   LIG    1        5.136  -2.672   0.102  0.00  0.00    -0.720 N 
ATOM     19  H   LIG    1        5.039  -3.165  -0.728  0.00  0.00    +0.400 HD
BRANCH  17  20
ATOM     20  C   LIG    1        7.377  -3.689   0.353  0.00  0.00    +0.320 C 
BRANCH  20  21
ATOM     21  N   LIG    1        8.484  -3.644   1.310  0.00  0.00    -0.590 N 
ATOM     22  C   LIG    1        9.556  -2.649   1.144  0.00  0.00    +0.270 C 
ATOM     23  C   LIG    1        9.402  -1.585   2.241  0.00  0.00    +0.010 C 
ATOM     24  C   LIG    1       10.119  -2.011   3.509  0.00  0.00    +0.010 C 
ATOM     25  C   LIG    1        9.497  -3.217   4.189  0.00  0.00    +0.040 C 
ATOM     26  C   LIG    1        9.655  -4.469   3.323  0.00  0.00    +0.050 C 
ATOM     27  C   LIG    1        8.518  -4.510   2.324  0.00  0.00    +0.520 C 
ATOM     28  O   LIG    1        7.636  -5.333   2.446  0.00  0.00    -0.550 OA
ENDBRANCH  20  21
ENDBRANCH  17  20
ENDBRANCH   1  18
TORSDOF 4
