REMARK  Name = ZINCrD000000Bg8W.0
REMARK                            x       y       z     vdW  Elec       q    Type
REMARK                         _______ _______ _______ _____ _____    ______ ____
ROOT
ATOM      1  O   LIG    1        5.545   0.785  -3.154  0.00  0.00    -0.510 OA
ATOM      2  C   LIG    1        5.757   1.082  -1.994  0.00  0.00    +0.590 C 
ATOM      3  N   LIG    1        7.023   1.235  -1.558  0.00  0.00    -0.700 N 
ATOM      4  H   LIG    1        7.192   1.471  -0.632  0.00  0.00    +0.420 HD
ENDROOT
BRANCH   2   5
ATOM      5  C   LIG    1        4.627   1.274  -1.063  0.00  0.00    +0.050 C 
ATOM      6  N   LIG    1        4.721   1.589   0.184  0.00  0.00    -0.240 NA
ATOM      7  O   LIG    1        3.463   1.710   0.817  0.00  0.00    -0.170 OA
ATOM      8  C   LIG    1        2.490   1.048  -0.016  0.00  0.00    +0.190 C 
ATOM      9  C   LIG    1        3.157   1.136  -1.410  0.00  0.00    +0.100 C 
BRANCH   8  10
ATOM     10  C   LIG    1        1.175   1.783   0.000  0.00  0.00    -0.100 A 
ATOM     11  C   LIG    1       -0.013   1.076   0.008  0.00  0.00    +0.030 A 
ATOM     12  C   LIG    1       -1.219   1.751   0.017  0.00  0.00    +0.010 A 
ATOM     13  C   LIG    1       -1.238   3.133   0.030  0.00  0.00    +0.020 A 
ATOM     14  C   LIG    1       -0.050   3.840   0.022  0.00  0.00    +0.010 A 
ATOM     15  C   LIG    1        1.156   3.165   0.008  0.00  0.00    +0.030 A 
ENDBRANCH   8  10
ENDBRANCH   2   5
BRANCH   3  16
ATOM     16  C   LIG    1        8.144   1.044  -2.482  0.00  0.00    +0.260 C 
BRANCH  16  17
ATOM     17  C   LIG    1        9.461   1.276  -1.739  0.00  0.00    +0.250 C 
BRANCH  17  18
ATOM     18  C   LIG    1       10.614   1.079  -2.690  0.00  0.00    -0.070 A 
ATOM     19  C   LIG    1       11.166   2.167  -3.341  0.00  0.00    +0.030 A 
ATOM     20  C   LIG    1       12.227   1.987  -4.209  0.00  0.00    +0.060 A 
ATOM     21  C   LIG    1       12.730   0.719  -4.433  0.00  0.00    +0.030 A 
ATOM     22  C   LIG    1       12.175  -0.369  -3.786  0.00  0.00    +0.070 A 
ATOM     23  C   LIG    1       11.117  -0.189  -2.914  0.00  0.00    -0.170 A 
BRANCH  23  24
ATOM     24  C   LIG    1       10.512  -1.375  -2.209  0.00  0.00    +0.500 C 
ATOM     25  F   LIG    1        9.160  -1.482  -2.551  0.00  0.00    -0.170 F 
ATOM     26  F   LIG    1       10.630  -1.205  -0.825  0.00  0.00    -0.170 F 
ATOM     27  F   LIG    1       11.184  -2.540  -2.594  0.00  0.00    -0.170 F 
ENDBRANCH  23  24
ENDBRANCH  17  18
BRANCH  17  28
ATOM     28  O   LIG    1        9.490   2.608  -1.224  0.00  0.00    -0.540 OA
ATOM     29  H   LIG    1        9.421   3.294  -1.902  0.00  0.00    +0.380 HD
ENDBRANCH  17  28
ENDBRANCH  16  17
ENDBRANCH   3  16
TORSDOF 7
