REMARK  Name = ZINCkj000005kCrF.0
REMARK                            x       y       z     vdW  Elec       q    Type
REMARK                         _______ _______ _______ _____ _____    ______ ____
ROOT
ATOM      1  N   LIG    1       -0.326   0.859  -1.289  0.00  0.00    -1.140 NA
ATOM      2  H   LIG    1        0.248   1.031  -2.052  0.00  0.00    +0.400 HD
ENDROOT
BRANCH   1   3
ATOM      3  S   LIG    1       -1.653  -0.117  -1.456  0.00  0.00    +2.730 S 
ATOM      4  O   LIG    1       -1.606  -1.046  -0.382  0.00  0.00    -0.940 OA
ATOM      5  O   LIG    1       -1.695  -0.509  -2.821  0.00  0.00    -0.940 OA
BRANCH   3  13
ATOM      6  C   LIG    1       -3.454   1.639  -3.630  0.00  0.00    +0.180 C 
ATOM      7  C   LIG    1       -3.781   1.598  -2.160  0.00  0.00    +0.170 A 
ATOM      8  N   LIG    1       -4.772   2.220  -1.576  0.00  0.00    -0.280 NA
ATOM      9  N   LIG    1       -4.729   1.925  -0.207  0.00  0.00    -0.450 N 
ATOM     10  H   LIG    1       -5.346   2.252   0.467  0.00  0.00    +0.450 HD
ATOM     11  C   LIG    1       -3.683   1.100   0.007  0.00  0.00    +0.220 A 
ATOM     12  C   LIG    1       -3.263   0.524   1.335  0.00  0.00    +0.160 C 
ATOM     13  C   LIG    1       -3.076   0.886  -1.183  0.00  0.00    -0.830 A 
ENDBRANCH   3  13
ENDBRANCH   1   3
BRANCH   1  14
ATOM     14  C   LIG    1       -0.018   1.461   0.010  0.00  0.00    +0.320 C 
BRANCH  14  15
ATOM     15  C   LIG    1        1.418   1.990  -0.001  0.00  0.00    +0.060 C 
ATOM     16  C   LIG    1        2.108   1.605   1.279  0.00  0.00    +0.050 C 
ATOM     17  C   LIG    1        1.117   1.395   2.442  0.00  0.00    +0.050 C 
ATOM     18  C   LIG    1       -0.001   2.454   2.477  0.00  0.00    +0.000 C 
ATOM     19  C   LIG    1        0.511   3.841   2.197  0.00  0.00    +0.030 C 
ATOM     20  C   LIG    1        0.345   4.130   0.691  0.00  0.00    +0.030 C 
ATOM     21  C   LIG    1        1.401   3.529  -0.109  0.00  0.00    +0.070 C 
BRANCH  15  22
ATOM     22  N   LIG    1        2.144   1.423  -1.144  0.00  0.00    -0.630 N 
ATOM     23  H   LIG    1        2.159   0.417  -1.068  0.00  0.00    +0.440 HD
ATOM     24  H   LIG    1        3.090   1.773  -1.149  0.00  0.00    +0.440 HD
ATOM     25  H   LIG    1        1.683   1.688  -2.001  0.00  0.00    +0.430 HD
ENDBRANCH  15  22
ENDBRANCH  14  15
ENDBRANCH   1  14
TORSDOF 5
