REMARK  Name = ZINCpe000000ZgyD.0
REMARK                            x       y       z     vdW  Elec       q    Type
REMARK                         _______ _______ _______ _____ _____    ______ ____
ROOT
ATOM      1  O   LIG    1        2.185  -1.202   3.035  0.00  0.00    -0.500 OA
ATOM      2  C   LIG    1        2.774  -0.436   2.302  0.00  0.00    +0.520 C 
ATOM      3  N   LIG    1        4.006  -0.001   2.633  0.00  0.00    -0.730 N 
ATOM      4  H   LIG    1        4.477   0.612   2.047  0.00  0.00    +0.400 HD
ENDROOT
BRANCH   2   5
ATOM      5  C   LIG    1        2.129   0.029   1.022  0.00  0.00    +0.110 C 
ATOM      6  C   LIG    1        1.407   1.357   1.266  0.00  0.00    +0.260 C 
ATOM      7  O   LIG    1        0.735   1.755   0.068  0.00  0.00    -0.380 OA
ATOM      8  C   LIG    1       -0.221   0.800  -0.401  0.00  0.00    +0.240 C 
ATOM      9  C   LIG    1        0.484  -0.534  -0.661  0.00  0.00    +0.160 C 
ATOM     10  N   LIG    1        1.155  -0.976   0.570  0.00  0.00    -0.510 NA
BRANCH  10  11
ATOM     11  C   LIG    1        1.798  -2.283   0.379  0.00  0.00    +0.180 C 
BRANCH  11  12
ATOM     12  C   LIG    1        0.734  -3.382   0.399  0.00  0.00    +0.390 C 
ATOM     13  F   LIG    1       -0.179  -3.166  -0.639  0.00  0.00    -0.200 F 
ATOM     14  F   LIG    1        0.060  -3.358   1.625  0.00  0.00    -0.190 F 
ENDBRANCH  11  12
ENDBRANCH  10  11
ENDBRANCH   2   5
BRANCH   3  15
ATOM     15  C   LIG    1        4.633  -0.453   3.877  0.00  0.00    +0.410 C 
BRANCH  15  16
ATOM     16  C   LIG    1        5.997   0.176   4.009  0.00  0.00    +0.160 A 
ATOM     17  N   LIG    1        6.273   1.313   4.588  0.00  0.00    -0.260 NA
ATOM     18  N   LIG    1        7.535   1.544   4.518  0.00  0.00    -0.290 NA
ATOM     19  C   LIG    1        8.132   0.566   3.892  0.00  0.00    +0.400 A 
ATOM     20  N   LIG    1        7.173  -0.340   3.553  0.00  0.00    -0.430 N 
BRANCH  20  21
ATOM     21  C   LIG    1        7.357  -1.552   2.871  0.00  0.00    +0.110 A 
ATOM     22  C   LIG    1        6.816  -2.725   3.379  0.00  0.00    +0.020 A 
ATOM     23  C   LIG    1        6.994  -3.916   2.703  0.00  0.00    +0.040 A 
ATOM     24  C   LIG    1        7.720  -3.943   1.526  0.00  0.00    +0.030 A 
ATOM     25  C   LIG    1        8.265  -2.777   1.020  0.00  0.00    +0.040 A 
ATOM     26  C   LIG    1        8.085  -1.582   1.689  0.00  0.00    +0.020 A 
ENDBRANCH  20  21
ENDBRANCH  15  16
ENDBRANCH   3  15
TORSDOF 6
