REMARK  Name = ZINCqH0000032X9V.0
REMARK                            x       y       z     vdW  Elec       q    Type
REMARK                         _______ _______ _______ _____ _____    ______ ____
ROOT
ATOM      1  C   LIG    1        3.711  -0.707  -0.037  0.00  0.00    +0.370 C 
ENDROOT
BRANCH   1   5
ATOM      2  C   LIG    1       -0.017   1.378   0.010  0.00  0.00    -0.070 A 
ATOM      3  C   LIG    1        1.171   2.086   0.002  0.00  0.00    +0.010 A 
ATOM      4  C   LIG    1        2.377   1.411  -0.014  0.00  0.00    +0.010 A 
ATOM      5  C   LIG    1        2.396   0.029  -0.021  0.00  0.00    -0.100 A 
ATOM      6  C   LIG    1        1.208  -0.679  -0.014  0.00  0.00    +0.030 A 
ATOM      7  C   LIG    1        0.002  -0.004   0.002  0.00  0.00    +0.020 A 
BRANCH   2   8
ATOM      8  C   LIG    1       -1.332   2.114   0.020  0.00  0.00    +0.060 C 
BRANCH   8   9
ATOM      9  C   LIG    1       -1.770   2.355   1.466  0.00  0.00    +0.010 C 
BRANCH   9  11
ATOM     10  C   LIG    1       -3.544   3.343   2.922  0.00  0.00    +0.000 C 
ATOM     11  C   LIG    1       -3.105   3.102   1.476  0.00  0.00    -0.010 C 
ENDBRANCH   9  11
ENDBRANCH   8   9
ENDBRANCH   2   8
ENDBRANCH   1   5
BRANCH   1  12
ATOM     12  C   LIG    1        4.283  -0.744   1.357  0.00  0.00    -0.190 A 
ATOM     13  C   LIG    1        4.206  -1.781   2.192  0.00  0.00    +0.020 A 
ATOM     14  C   LIG    1        4.809  -1.585   3.422  0.00  0.00    +0.010 A 
ATOM     15  C   LIG    1        5.369  -0.385   3.589  0.00  0.00    -0.040 A 
ATOM     16  S   LIG    1        5.148   0.576   2.133  0.00  0.00    +0.100 S 
ENDBRANCH   1  12
BRANCH   1  17
ATOM     17  N   LIG    1        4.646  -0.018  -0.930  0.00  0.00    -0.720 N 
ATOM     18  H   LIG    1        4.536   0.929  -1.110  0.00  0.00    +0.400 HD
ATOM     19  C   LIG    1        5.658  -0.699  -1.503  0.00  0.00    +0.530 C 
ATOM     20  O   LIG    1        5.795  -1.883  -1.279  0.00  0.00    -0.520 OA
BRANCH  19  21
ATOM     21  C   LIG    1        6.619   0.010  -2.422  0.00  0.00    +0.020 C 
ATOM     22  C   LIG    1        7.344   1.126  -1.650  0.00  0.00    +0.080 C 
ATOM     23  C   LIG    1        8.528   1.584  -2.539  0.00  0.00    -0.310 C 
ATOM     24  S   LIG    1        9.197  -0.006  -3.157  0.00  0.00    +2.390 S 
ATOM     25  O   LIG    1        9.491   0.113  -4.543  0.00  0.00    -0.930 OA
ATOM     26  O   LIG    1       10.191  -0.480  -2.259  0.00  0.00    -0.930 OA
ATOM     27  C   LIG    1        7.670  -0.989  -2.944  0.00  0.00    -0.270 C 
ENDBRANCH  19  21
ENDBRANCH   1  17
TORSDOF 7
