REMARK  Name = ZINCvU00000008zC.0
REMARK                            x       y       z     vdW  Elec       q    Type
REMARK                         _______ _______ _______ _____ _____    ______ ____
ROOT
ATOM      1  C   LIG    1        5.798   1.638  -0.185  0.00  0.00    +0.150 A 
ATOM      2  C   LIG    1        5.649   3.006  -0.023  0.00  0.00    +0.050 A 
ATOM      3  C   LIG    1        6.751   3.795   0.252  0.00  0.00    +0.020 A 
ATOM      4  C   LIG    1        8.004   3.223   0.366  0.00  0.00    +0.020 A 
ATOM      5  C   LIG    1        8.163   1.859   0.205  0.00  0.00    +0.020 A 
ATOM      6  C   LIG    1        7.062   1.060  -0.066  0.00  0.00    +0.120 A 
ENDROOT
BRANCH   1   9
ATOM      7  O   LIG    1        3.600   2.542  -1.388  0.00  0.00    -0.550 OA
ATOM      8  C   LIG    1        3.585   1.381  -1.027  0.00  0.00    +0.710 C 
ATOM      9  N   LIG    1        4.682   0.837  -0.464  0.00  0.00    -0.680 N 
ATOM     10  H   LIG    1        4.699  -0.110  -0.251  0.00  0.00    +0.410 HD
ATOM     11  N   LIG    1        2.472   0.639  -1.189  0.00  0.00    -0.680 N 
ATOM     12  H   LIG    1        2.436  -0.264  -0.838  0.00  0.00    +0.410 HD
BRANCH  11  13
ATOM     13  C   LIG    1        1.369   1.171  -1.865  0.00  0.00    +0.150 A 
ATOM     14  C   LIG    1        0.582   0.353  -2.665  0.00  0.00    -0.010 A 
ATOM     15  C   LIG    1       -0.504   0.883  -3.334  0.00  0.00    +0.030 A 
ATOM     16  C   LIG    1       -0.814   2.224  -3.201  0.00  0.00    -0.010 A 
ATOM     17  C   LIG    1       -0.032   3.041  -2.405  0.00  0.00    +0.030 A 
ATOM     18  C   LIG    1        1.058   2.519  -1.737  0.00  0.00    +0.020 A 
ENDBRANCH  11  13
ENDBRANCH   1   9
BRANCH   6  19
ATOM     19  N   LIG    1        7.220  -0.322  -0.223  0.00  0.00    -1.050 N 
ATOM     20  H   LIG    1        6.675  -0.802  -0.866  0.00  0.00    +0.420 HD
BRANCH  19  21
ATOM     21  S   LIG    1        8.336  -1.137   0.689  0.00  0.00    +2.700 S 
ATOM     22  O   LIG    1        9.574  -0.466   0.502  0.00  0.00    -0.940 OA
ATOM     23  O   LIG    1        8.151  -2.518   0.409  0.00  0.00    -0.940 OA
BRANCH  21  24
ATOM     24  C   LIG    1        7.896  -0.908   2.379  0.00  0.00    -0.700 A 
ATOM     25  C   LIG    1        8.411   0.162   3.088  0.00  0.00    +0.180 A 
ATOM     26  C   LIG    1        8.063   0.346   4.412  0.00  0.00    -0.060 A 
ATOM     27  C   LIG    1        7.206  -0.550   5.034  0.00  0.00    +0.170 A 
ATOM     28  C   LIG    1        6.696  -1.626   4.323  0.00  0.00    +0.010 A 
ATOM     29  C   LIG    1        7.042  -1.803   2.997  0.00  0.00    +0.180 A 
BRANCH  27  30
ATOM     30  O   LIG    1        6.867  -0.374   6.339  0.00  0.00    -0.310 OA
BRANCH  30  31
ATOM     31  C   LIG    1        7.430   0.756   7.008  0.00  0.00    +0.600 C 
ATOM     32  F   LIG    1        8.826   0.660   6.992  0.00  0.00    -0.160 F 
ATOM     33  F   LIG    1        6.981   0.785   8.333  0.00  0.00    -0.130 F 
ATOM     34  F   LIG    1        7.036   1.929   6.356  0.00  0.00    -0.160 F 
ENDBRANCH  30  31
ENDBRANCH  27  30
ENDBRANCH  21  24
ENDBRANCH  19  21
ENDBRANCH   6  19
TORSDOF 7
