REMARK  Name = ZINCpe00000FRMUW.0
REMARK                            x       y       z     vdW  Elec       q    Type
REMARK                         _______ _______ _______ _____ _____    ______ ____
ROOT
ATOM      1  C   LIG    1        6.825   3.497  -2.621  0.00  0.00    +0.530 C 
ATOM      2  N   LIG    1        5.697   3.169  -1.960  0.00  0.00    -0.620 N 
ATOM      3  C   LIG    1        4.498   4.012  -1.840  0.00  0.00    +0.240 C 
ATOM      4  C   LIG    1        3.459   3.217  -1.021  0.00  0.00    +0.070 C 
ATOM      5  C   LIG    1        3.921   1.747  -1.208  0.00  0.00    -0.020 C 
ATOM      6  C   LIG    1        5.462   1.906  -1.237  0.00  0.00    +0.270 C 
ATOM      7  O   LIG    1        7.756   2.721  -2.655  0.00  0.00    -0.550 OA
ENDROOT
BRANCH   1   8
ATOM      8  C   LIG    1        6.929   4.829  -3.319  0.00  0.00    +0.060 C 
BRANCH   8   9
ATOM      9  C   LIG    1        8.300   4.949  -3.987  0.00  0.00    +0.030 C 
BRANCH   9  10
ATOM     10  C   LIG    1        8.405   6.301  -4.696  0.00  0.00    +0.030 C 
BRANCH  10  11
ATOM     11  C   LIG    1        9.777   6.421  -5.364  0.00  0.00    +0.030 C 
BRANCH  11  12
ATOM     12  C   LIG    1        9.882   7.772  -6.072  0.00  0.00    +0.250 C 
BRANCH  12  14
ATOM     13  C   LIG    1       11.257   9.132  -7.493  0.00  0.00    +0.310 C 
ATOM     14  N   LIG    1       11.199   7.888  -6.714  0.00  0.00    -0.390 N 
ATOM     15  C   LIG    1       12.245   7.907  -5.683  0.00  0.00    +0.320 C 
ATOM     16  H   LIG    1       11.345   7.100  -7.327  0.00  0.00    +0.430 HD
ENDBRANCH  12  14
ENDBRANCH  11  12
ENDBRANCH  10  11
ENDBRANCH   9  10
ENDBRANCH   8   9
ENDBRANCH   1   8
BRANCH   5  17
ATOM     17  C   LIG    1        3.481   0.880  -0.027  0.00  0.00    +0.340 C 
BRANCH  17  18
ATOM     18  N   LIG    1        2.020   0.778  -0.013  0.00  0.00    -0.310 N 
ATOM     19  C   LIG    1        1.305  -0.371  -0.012  0.00  0.00    +0.100 A 
ATOM     20  C   LIG    1        0.002  -0.004   0.002  0.00  0.00    +0.040 A 
ATOM     21  N   LIG    1       -0.016   1.333   0.009  0.00  0.00    -0.230 NA
ATOM     22  N   LIG    1        1.195   1.766   0.000  0.00  0.00    -0.100 NA
BRANCH  20  23
ATOM     23  C   LIG    1       -1.193  -0.922   0.008  0.00  0.00    +0.050 C 
BRANCH  23  24
ATOM     24  C   LIG    1       -2.077  -0.589   1.182  0.00  0.00    +0.500 C 
ATOM     25  O   LIG    1       -3.103  -1.218   1.371  0.00  0.00    -0.700 OA
ATOM     26  O   LIG    1       -1.765   0.311   1.944  0.00  0.00    -0.680 OA
ENDBRANCH  23  24
ENDBRANCH  20  23
ENDBRANCH  17  18
ENDBRANCH   5  17
TORSDOF 10
