REMARK  Name = ZINCrD000007567R.0
REMARK                            x       y       z     vdW  Elec       q    Type
REMARK                         _______ _______ _______ _____ _____    ______ ____
ROOT
ATOM      1  C   LIG    1       -1.015   9.467   0.060  0.00  0.00    +0.330 C 
ATOM      2  C   LIG    1        0.144  10.389   0.454  0.00  0.00    +0.050 C 
ATOM      3  C   LIG    1        1.366  10.044  -0.402  0.00  0.00    +0.030 C 
ATOM      4  C   LIG    1        1.919   8.684   0.027  0.00  0.00    +0.140 C 
ATOM      5  C   LIG    1        0.781   7.671   0.034  0.00  0.00    +0.080 A 
ATOM      6  N   LIG    1        0.972   6.362   0.026  0.00  0.00    -0.460 NA
ATOM      7  C   LIG    1       -0.074   5.595   0.032  0.00  0.00    +0.110 A 
ATOM      8  S   LIG    1       -1.521   6.597   0.043  0.00  0.00    +0.110 S 
ATOM      9  C   LIG    1       -0.515   8.041   0.048  0.00  0.00    -0.230 A 
ENDROOT
BRANCH   7  10
ATOM     10  C   LIG    1       -0.054   4.116   0.024  0.00  0.00    -0.040 A 
ATOM     11  C   LIG    1        1.163   3.433   0.009  0.00  0.00    +0.110 A 
ATOM     12  C   LIG    1        1.176   2.054   0.002  0.00  0.00    -0.010 A 
ATOM     13  C   LIG    1       -0.016   1.347   0.009  0.00  0.00    +0.120 A 
ATOM     14  C   LIG    1       -1.227   2.021   0.019  0.00  0.00    -0.010 A 
ATOM     15  F   LIG    1        0.002  -0.004   0.002  0.00  0.00    -0.130 F 
ATOM     16  C   LIG    1       -1.251   3.400   0.031  0.00  0.00    +0.060 A 
ENDBRANCH   7  10
BRANCH   1  18
ATOM     17  C   LIG    1       -3.369   9.317   0.669  0.00  0.00    +0.610 C 
ATOM     18  N   LIG    1       -2.103   9.602   1.032  0.00  0.00    -0.720 N 
ATOM     19  H   LIG    1       -1.912   9.898   1.936  0.00  0.00    +0.400 HD
ATOM     20  O   LIG    1       -3.609   8.946  -0.465  0.00  0.00    -0.530 OA
BRANCH  17  27
ATOM     21  C   LIG    1       -5.082  11.937   1.183  0.00  0.00    +0.160 C 
ATOM     22  C   LIG    1       -5.233  10.612   1.885  0.00  0.00    +0.140 A 
ATOM     23  N   LIG    1       -6.100  10.335   2.817  0.00  0.00    -0.300 NA
ATOM     24  N   LIG    1       -5.929   9.008   3.226  0.00  0.00    -0.390 N 
ATOM     25  C   LIG    1       -4.925   8.465   2.508  0.00  0.00    +0.410 A 
ATOM     26  C   LIG    1       -6.710   8.323   4.259  0.00  0.00    +0.360 C 
ATOM     27  C   LIG    1       -4.459   9.452   1.643  0.00  0.00    -0.370 A 
BRANCH  25  28
ATOM     28  N   LIG    1       -4.449   7.173   2.611  0.00  0.00    -0.840 N 
ATOM     29  H   LIG    1       -4.845   6.560   3.250  0.00  0.00    +0.400 HD
ATOM     30  H   LIG    1       -3.718   6.879   2.045  0.00  0.00    +0.420 HD
ENDBRANCH  25  28
ENDBRANCH  17  27
ENDBRANCH   1  18
TORSDOF 4
