REMARK  Name = ZINCrD00000F5LsL.0
REMARK                            x       y       z     vdW  Elec       q    Type
REMARK                         _______ _______ _______ _____ _____    ______ ____
ROOT
ATOM      1  N   LIG    1       -3.312   2.747  -2.110  0.00  0.00    -0.980 NA
ENDROOT
BRANCH   1   2
ATOM      2  S   LIG    1       -2.302   2.160  -3.284  0.00  0.00    +2.670 S 
ATOM      3  O   LIG    1       -1.646   3.286  -3.849  0.00  0.00    -0.960 OA
ATOM      4  O   LIG    1       -3.069   1.242  -4.051  0.00  0.00    -0.950 OA
BRANCH   2   6
ATOM      5  C   LIG    1       -0.896  -0.052  -2.775  0.00  0.00    +0.230 C 
ATOM      6  C   LIG    1       -1.057   1.212  -2.474  0.00  0.00    -0.590 C 
ENDBRANCH   2   6
ENDBRANCH   1   2
BRANCH   1   7
ATOM      7  C   LIG    1       -3.037   4.044  -1.488  0.00  0.00    +0.250 C 
ATOM      8  C   LIG    1       -4.175   5.015  -1.809  0.00  0.00    +0.040 C 
BRANCH   7   9
ATOM      9  C   LIG    1       -2.926   3.870   0.028  0.00  0.00    +0.100 C 
BRANCH   9  10
ATOM     10  C   LIG    1       -1.730   3.012   0.349  0.00  0.00    -0.120 A 
ATOM     11  C   LIG    1       -0.549   3.599   0.761  0.00  0.00    +0.090 A 
ATOM     12  C   LIG    1        0.549   2.811   1.056  0.00  0.00    -0.100 A 
ATOM     13  C   LIG    1        0.466   1.435   0.939  0.00  0.00    +0.070 A 
ATOM     14  C   LIG    1       -0.715   0.847   0.527  0.00  0.00    +0.000 A 
ATOM     15 BR   LIG    1        2.165   3.615   1.620  0.00  0.00    -0.040 Br
ATOM     16  C   LIG    1       -1.813   1.635   0.226  0.00  0.00    +0.120 A 
ATOM     17  F   LIG    1       -2.966   1.060  -0.182  0.00  0.00    -0.120 F 
ENDBRANCH   9  10
ENDBRANCH   7   9
ENDBRANCH   1   7
BRANCH   1  18
ATOM     18  C   LIG    1       -4.482   1.968  -1.694  0.00  0.00    +0.390 C 
BRANCH  18  19
ATOM     19  C   LIG    1       -5.683   2.399  -2.495  0.00  0.00    -0.260 A 
ATOM     20  C   LIG    1       -6.624   3.289  -2.103  0.00  0.00    +0.250 A 
ATOM     21  N   LIG    1       -7.526   3.401  -3.101  0.00  0.00    -0.370 N 
ATOM     22  N   LIG    1       -7.130   2.545  -4.137  0.00  0.00    -0.300 NA
ATOM     23  C   LIG    1       -6.026   1.945  -3.773  0.00  0.00    +0.260 A 
BRANCH  21  24
ATOM     24  C   LIG    1       -8.711   4.262  -3.099  0.00  0.00    +0.330 C 
BRANCH  24  25
ATOM     25  C   LIG    1       -8.689   5.164  -4.334  0.00  0.00    +0.170 C 
BRANCH  25  26
ATOM     26  O   LIG    1       -9.845   6.003  -4.332  0.00  0.00    -0.390 OA
ATOM     27  C   LIG    1       -9.922   6.890  -5.449  0.00  0.00    +0.210 C 
ENDBRANCH  25  26
ENDBRANCH  24  25
ENDBRANCH  21  24
ENDBRANCH  18  19
ENDBRANCH   1  18
TORSDOF 10
