REMARK  Name = ZINCnE000001SAgL.0
REMARK                            x       y       z     vdW  Elec       q    Type
REMARK                         _______ _______ _______ _____ _____    ______ ____
ROOT
ATOM      1  O   LIG    1        2.910   3.475  -2.556  0.00  0.00    -0.600 OA
ATOM      2  C   LIG    1        1.938   2.873  -2.977  0.00  0.00    +0.660 C 
ATOM      3  N   LIG    1        1.484   1.779  -2.323  0.00  0.00    -0.610 N 
ATOM      4  C   LIG    1        2.203   1.365  -1.129  0.00  0.00    +0.280 C 
ATOM      5  C   LIG    1        1.419   2.045  -0.001  0.00  0.00    +0.010 C 
ATOM      6  C   LIG    1       -0.018   1.503   0.010  0.00  0.00    +0.060 C 
ATOM      7  C   LIG    1        0.002  -0.004   0.002  0.00  0.00    -0.060 A 
ATOM      8  C   LIG    1       -0.182  -0.602   1.247  0.00  0.00    +0.000 A 
ATOM      9  C   LIG    1       -0.171  -1.970   1.395  0.00  0.00    -0.010 A 
ATOM     10  C   LIG    1        0.025  -2.757   0.275  0.00  0.00    -0.010 A 
ATOM     11  C   LIG    1        0.198  -2.166  -0.950  0.00  0.00    -0.020 A 
ATOM     12  C   LIG    1        0.184  -0.769  -1.122  0.00  0.00    -0.060 A 
ATOM     13  C   LIG    1        0.365  -0.386  -2.568  0.00  0.00    +0.070 C 
ATOM     14  C   LIG    1        0.320   1.104  -2.878  0.00  0.00    +0.280 C 
ENDROOT
BRANCH   2  15
ATOM     15  N   LIG    1        1.321   3.292  -4.085  0.00  0.00    -0.670 NA
ATOM     16  C   LIG    1        1.768   4.369  -4.729  0.00  0.00    +0.350 A 
ATOM     17  N   LIG    1        2.821   5.140  -4.397  0.00  0.00    -0.410 NA
ATOM     18  N   LIG    1        3.089   6.207  -5.226  0.00  0.00    -0.220 NA
ATOM     19  C   LIG    1        2.313   6.377  -6.244  0.00  0.00    -0.130 A 
ATOM     20  S   LIG    1        1.125   5.065  -6.168  0.00  0.00    -0.020 S 
BRANCH  19  21
ATOM     21  C   LIG    1        2.403   7.463  -7.285  0.00  0.00    +0.510 C 
ATOM     22  F   LIG    1        1.914   6.982  -8.504  0.00  0.00    -0.200 F 
ATOM     23  F   LIG    1        3.738   7.852  -7.439  0.00  0.00    -0.190 F 
ENDBRANCH  19  21
ENDBRANCH   2  15
TORSDOF 2
