REMARK  Name = ZINCpe00000c7oP3.0
REMARK                            x       y       z     vdW  Elec       q    Type
REMARK                         _______ _______ _______ _____ _____    ______ ____
ROOT
ATOM      1  N   LIG    1        9.551   2.179  -2.691  0.00  0.00    -0.430 N 
ATOM      2  C   LIG    1        9.564   2.628  -1.278  0.00  0.00    +0.240 C 
ATOM      3  C   LIG    1        8.054   2.426  -1.320  0.00  0.00    -0.120 C 
ATOM      4  C   LIG    1        7.208   3.672  -1.623  0.00  0.00    +0.260 C 
ATOM      5  O   LIG    1        5.874   3.273  -1.232  0.00  0.00    -0.370 OA
ATOM      6  C   LIG    1        5.998   2.477  -0.041  0.00  0.00    +0.150 C 
ATOM      7  C   LIG    1        7.407   1.844  -0.058  0.00  0.00    +0.040 C 
ATOM      8  C   LIG    1        8.272   1.460  -2.479  0.00  0.00    +0.230 C 
ENDROOT
BRANCH   1  13
ATOM      9  C   LIG    1       12.414   0.098  -2.211  0.00  0.00    +0.170 A 
ATOM     10  C   LIG    1       12.570  -0.439  -3.487  0.00  0.00    +0.270 A 
ATOM     11  N   LIG    1       11.735  -0.102  -4.454  0.00  0.00    -0.410 NA
ATOM     12  C   LIG    1       10.751   0.745  -4.216  0.00  0.00    +0.280 A 
ATOM     13  C   LIG    1       10.588   1.288  -2.940  0.00  0.00    +0.240 A 
ATOM     14  N   LIG    1       11.425   0.957  -1.969  0.00  0.00    -0.440 NA
BRANCH   9  16
ATOM     15  N   LIG    1       14.037  -0.557  -0.332  0.00  0.00    -0.370 NA
ATOM     16  C   LIG    1       13.319  -0.267  -1.163  0.00  0.00    +0.260 C 
ENDBRANCH   9  16
ENDBRANCH   1  13
BRANCH   6  17
ATOM     17  C   LIG    1        4.934   1.377  -0.037  0.00  0.00    +0.280 C 
BRANCH  17  18
ATOM     18  N   LIG    1        3.602   1.987  -0.021  0.00  0.00    -0.720 N 
ATOM     19  H   LIG    1        3.511   2.953  -0.015  0.00  0.00    +0.400 HD
ATOM     20  C   LIG    1        2.504   1.207  -0.015  0.00  0.00    +0.590 C 
ATOM     21  O   LIG    1        2.618  -0.004  -0.022  0.00  0.00    -0.530 OA
BRANCH  20  22
ATOM     22  C   LIG    1        1.164   1.820   0.001  0.00  0.00    -0.210 A 
ATOM     23  C   LIG    1        0.961   3.184   0.009  0.00  0.00    +0.010 A 
ATOM     24  S   LIG    1       -0.747   3.390   0.026  0.00  0.00    +0.310 S 
ATOM     25  N   LIG    1       -1.126   1.738   0.017  0.00  0.00    -0.460 NA
ATOM     26  C   LIG    1       -0.013   1.076   0.008  0.00  0.00    +0.340 A 
ENDBRANCH  20  22
ENDBRANCH  17  18
ENDBRANCH   6  17
TORSDOF 5
