REMARK  Name = ZINCpk00000y6wI1.0
REMARK                            x       y       z     vdW  Elec       q    Type
REMARK                         _______ _______ _______ _____ _____    ______ ____
ROOT
ATOM      1  C   LIG    1       -5.773  -4.694   0.847  0.00  0.00    +0.610 C 
ATOM      2  N   LIG    1       -5.673  -3.370   1.072  0.00  0.00    -0.600 N 
ATOM      3  C   LIG    1       -6.796  -2.456   1.325  0.00  0.00    +0.260 C 
ATOM      4  C   LIG    1       -6.202  -1.050   1.551  0.00  0.00    +0.090 C 
ATOM      5  C   LIG    1       -4.740  -1.355   1.974  0.00  0.00    +0.210 C 
ATOM      6  C   LIG    1       -4.417  -2.597   1.107  0.00  0.00    +0.270 C 
ATOM      7  O   LIG    1       -4.782  -5.340   0.564  0.00  0.00    -0.540 OA
ENDROOT
BRANCH   1  11
ATOM      8  C   LIG    1       -9.240  -5.795   1.159  0.00  0.00    +0.030 A 
ATOM      9  N   LIG    1       -8.589  -6.916   0.979  0.00  0.00    -0.270 NA
ATOM     10  N   LIG    1       -7.330  -6.700   0.843  0.00  0.00    -0.260 N 
ATOM     11  C   LIG    1       -7.082  -5.360   0.942  0.00  0.00    -0.040 A 
ATOM     12  C   LIG    1       -6.315  -7.732   0.621  0.00  0.00    +0.360 C 
ATOM     13  C   LIG    1       -8.310  -4.753   1.143  0.00  0.00    -0.020 A 
BRANCH   8  15
ATOM     14  C   LIG    1      -11.049  -5.612   2.845  0.00  0.00    +0.040 C 
ATOM     15  C   LIG    1      -10.728  -5.654   1.349  0.00  0.00    +0.070 C 
ATOM     16  C   LIG    1      -11.206  -4.360   0.688  0.00  0.00    +0.040 C 
ENDBRANCH   8  15
ENDBRANCH   1  11
BRANCH   5  17
ATOM     17  C   LIG    1       -3.828  -0.205   1.633  0.00  0.00    -0.040 A 
ATOM     18  C   LIG    1       -2.486  -0.159   1.802  0.00  0.00    +0.160 A 
ATOM     19  N   LIG    1       -2.093   1.059   1.363  0.00  0.00    -0.280 N 
ATOM     20  N   LIG    1       -3.133   1.695   0.951  0.00  0.00    -0.080 NA
ATOM     21  N   LIG    1       -4.184   0.968   1.099  0.00  0.00    -0.250 NA
BRANCH  19  22
ATOM     22  C   LIG    1       -0.718   1.565   1.352  0.00  0.00    +0.250 C 
ATOM     23  C   LIG    1        0.029   1.038   2.579  0.00  0.00    +0.060 C 
ATOM     24  C   LIG    1       -0.010   1.091   0.081  0.00  0.00    +0.060 C 
ENDBRANCH  19  22
ENDBRANCH   5  17
BRANCH   5  25
ATOM     25  O   LIG    1       -4.665  -1.669   3.367  0.00  0.00    -0.530 OA
ATOM     26  H   LIG    1       -3.780  -1.914   3.667  0.00  0.00    +0.380 HD
ENDBRANCH   5  25
TORSDOF 5
