REMARK  Name = ZINCrg000009CxrP.1
REMARK                            x       y       z     vdW  Elec       q    Type
REMARK                         _______ _______ _______ _____ _____    ______ ____
ROOT
ATOM      1  C   LIG    1       -2.898  -2.987  -1.677  0.00  0.00    +0.210 C 
ATOM      2  C   LIG    1       -4.272  -3.652  -1.782  0.00  0.00    +0.040 C 
ENDROOT
BRANCH   1   3
ATOM      3  N   LIG    1       -2.949  -1.660  -2.296  0.00  0.00    -0.700 N 
ATOM      4  H   LIG    1       -3.113  -0.876  -1.750  0.00  0.00    +0.420 HD
ATOM      5  C   LIG    1       -2.768  -1.530  -3.626  0.00  0.00    +0.570 C 
ATOM      6  O   LIG    1       -2.563  -2.512  -4.310  0.00  0.00    -0.520 OA
BRANCH   5   7
ATOM      7  C   LIG    1       -2.820  -0.184  -4.254  0.00  0.00    +0.160 A 
ATOM      8  C   LIG    1       -2.635  -0.046  -5.615  0.00  0.00    -0.080 A 
ATOM      9  C   LIG    1       -2.691   1.248  -6.178  0.00  0.00    +0.540 A 
ATOM     10  N   LIG    1       -2.923   2.299  -5.363  0.00  0.00    -0.620 N 
ATOM     11  H   LIG    1       -2.965   3.196  -5.730  0.00  0.00    +0.420 HD
ATOM     12  C   LIG    1       -3.096   2.103  -4.030  0.00  0.00    +0.580 A 
ATOM     13  O   LIG    1       -2.534   1.413  -7.375  0.00  0.00    -0.510 OA
ATOM     14  N   LIG    1       -3.052   0.901  -3.502  0.00  0.00    -0.570 NA
BRANCH  12  15
ATOM     15  O   LIG    1       -3.326   3.166  -3.232  0.00  0.00    -0.310 OA
ATOM     16  C   LIG    1       -3.505   2.900  -1.816  0.00  0.00    +0.320 C 
ENDBRANCH  12  15
ENDBRANCH   5   7
ENDBRANCH   1   3
BRANCH   1  17
ATOM     17  C   LIG    1       -2.509  -2.848  -0.204  0.00  0.00    +0.300 C 
BRANCH  17  19
ATOM     18  C   LIG    1       -1.267  -0.763   0.011  0.00  0.00    +0.570 C 
ATOM     19  N   LIG    1       -1.250  -2.106  -0.100  0.00  0.00    -0.610 N 
ATOM     20  C   LIG    1        0.027  -2.823  -0.115  0.00  0.00    +0.280 C 
ATOM     21  O   LIG    1       -2.326  -0.174   0.112  0.00  0.00    -0.530 OA
BRANCH  18  26
ATOM     22  C   LIG    1        1.252   1.982  -0.535  0.00  0.00    +0.010 A 
ATOM     23  C   LIG    1        2.397   1.405   0.017  0.00  0.00    +0.060 A 
ATOM     24  C   LIG    1        2.341   0.136   0.560  0.00  0.00    +0.020 A 
ATOM     25  C   LIG    1        1.155  -0.570   0.560  0.00  0.00    +0.060 A 
ATOM     26  C   LIG    1        0.002  -0.005   0.011  0.00  0.00    -0.130 A 
ATOM     27  C   LIG    1        0.051   1.275  -0.539  0.00  0.00    +0.090 A 
BRANCH  22  29
ATOM     28  C   LIG    1        1.360   4.376  -1.560  0.00  0.00    +0.070 C 
ATOM     29  C   LIG    1        1.311   3.297  -1.098  0.00  0.00    -0.160 C 
ENDBRANCH  22  29
ENDBRANCH  18  26
ENDBRANCH  17  19
ENDBRANCH   1  17
TORSDOF 7
