REMARK  Name = ZINCkj00000GeTCG.0
REMARK                            x       y       z     vdW  Elec       q    Type
REMARK                         _______ _______ _______ _____ _____    ______ ____
ROOT
ATOM      1  C   LIG    1       -1.082   1.370  -1.358  0.00  0.00    +0.140 C 
ATOM      2  C   LIG    1       -0.438   0.743  -0.103  0.00  0.00    +0.100 C 
ATOM      3  C   LIG    1       -1.383   1.193   1.042  0.00  0.00    +0.080 C 
ATOM      4  C   LIG    1       -2.766   1.150   0.334  0.00  0.00    +0.260 C 
ATOM      5  N   LIG    1       -2.501   1.617  -1.043  0.00  0.00    -0.390 N 
ATOM      6  H   LIG    1       -2.697   2.604  -1.111  0.00  0.00    +0.430 HD
ENDROOT
BRANCH   1   7
ATOM      7  C   LIG    1       -0.386   2.691  -1.695  0.00  0.00    +0.380 C 
BRANCH   7  14
ATOM      8  C   LIG    1        0.581   1.878  -4.526  0.00  0.00    +0.150 C 
ATOM      9  C   LIG    1       -0.505   2.869  -4.194  0.00  0.00    +0.090 A 
ATOM     10  C   LIG    1       -1.243   3.572  -5.085  0.00  0.00    -0.100 A 
ATOM     11  C   LIG    1       -2.135   4.374  -4.366  0.00  0.00    +0.110 A 
ATOM     12  N   LIG    1       -1.945   4.156  -3.090  0.00  0.00    -0.320 NA
ATOM     13  C   LIG    1       -3.147   5.321  -4.959  0.00  0.00    +0.160 C 
ATOM     14  N   LIG    1       -0.917   3.214  -2.956  0.00  0.00    -0.410 N 
ENDBRANCH   7  14
ENDBRANCH   1   7
BRANCH   5  15
ATOM     15  C   LIG    1       -3.352   0.877  -1.985  0.00  0.00    +0.260 C 
BRANCH  15  16
ATOM     16  C   LIG    1       -4.819   1.234  -1.735  0.00  0.00    +0.060 C 
BRANCH  16  17
ATOM     17  C   LIG    1       -5.705   0.463  -2.716  0.00  0.00    -0.350 C 
BRANCH  17  18
ATOM     18  S   LIG    1       -7.444   0.885  -2.420  0.00  0.00    +2.420 S 
ATOM     19  O   LIG    1       -7.637   2.257  -2.737  0.00  0.00    -0.930 OA
ATOM     20  O   LIG    1       -7.811   0.412  -1.131  0.00  0.00    -0.930 OA
ATOM     21  C   LIG    1       -8.292  -0.121  -3.668  0.00  0.00    -0.250 C 
ENDBRANCH  17  18
ENDBRANCH  16  17
ENDBRANCH  15  16
ENDBRANCH   5  15
TORSDOF 6
