REMARK  Name = ZINCkj00000GeTCG.1
REMARK                            x       y       z     vdW  Elec       q    Type
REMARK                         _______ _______ _______ _____ _____    ______ ____
ROOT
ATOM      1  C   LIG    1       -7.052   0.817   3.130  0.00  0.00    +0.140 C 
ATOM      2  C   LIG    1       -7.388  -0.034   4.372  0.00  0.00    +0.090 C 
ATOM      3  C   LIG    1       -6.416   0.518   5.448  0.00  0.00    +0.080 C 
ATOM      4  C   LIG    1       -5.159   0.834   4.600  0.00  0.00    +0.260 C 
ATOM      5  N   LIG    1       -5.687   1.341   3.316  0.00  0.00    -0.390 N 
ATOM      6  H   LIG    1       -5.712   2.350   3.334  0.00  0.00    +0.430 HD
ENDROOT
BRANCH   1   7
ATOM      7  C   LIG    1       -7.109  -0.052   1.872  0.00  0.00    +0.350 C 
BRANCH   7  14
ATOM      8  C   LIG    1       -9.224   1.310   0.060  0.00  0.00    +0.140 C 
ATOM      9  C   LIG    1       -9.411   0.059   0.880  0.00  0.00    +0.080 A 
ATOM     10  C   LIG    1      -10.541  -0.680   0.961  0.00  0.00    -0.090 A 
ATOM     11  C   LIG    1      -10.293  -1.752   1.825  0.00  0.00    +0.100 A 
ATOM     12  N   LIG    1       -9.057  -1.662   2.244  0.00  0.00    -0.290 NA
ATOM     13  C   LIG    1      -11.278  -2.828   2.204  0.00  0.00    +0.160 C 
ATOM     14  N   LIG    1       -8.481  -0.523   1.666  0.00  0.00    -0.390 N 
ENDBRANCH   7  14
ENDBRANCH   1   7
BRANCH   5  15
ATOM     15  C   LIG    1       -4.828   0.886   2.214  0.00  0.00    +0.260 C 
BRANCH  15  16
ATOM     16  C   LIG    1       -3.435   1.499   2.367  0.00  0.00    +0.070 C 
BRANCH  16  17
ATOM     17  C   LIG    1       -2.579   1.130   1.154  0.00  0.00    -0.340 C 
BRANCH  17  18
ATOM     18  S   LIG    1       -0.978   1.975   1.264  0.00  0.00    +2.430 S 
ATOM     19  O   LIG    1       -1.196   3.375   1.157  0.00  0.00    -0.930 OA
ATOM     20  O   LIG    1       -0.274   1.466   2.388  0.00  0.00    -0.930 OA
ATOM     21  C   LIG    1       -0.148   1.403  -0.245  0.00  0.00    -0.250 C 
ENDBRANCH  17  18
ENDBRANCH  16  17
ENDBRANCH  15  16
ENDBRANCH   5  15
TORSDOF 6
