REMARK  Name = ZINCpk000000nuoc.0
REMARK                            x       y       z     vdW  Elec       q    Type
REMARK                         _______ _______ _______ _____ _____    ______ ____
ROOT
ATOM      1  C   LIG    1        0.817   0.583  -3.909  0.00  0.00    +0.650 C 
ATOM      2  N   LIG    1        1.329   0.409  -2.675  0.00  0.00    -0.590 N 
ATOM      3  C   LIG    1        1.932   1.567  -1.986  0.00  0.00    +0.270 C 
ATOM      4  C   LIG    1        1.538   1.601  -0.500  0.00  0.00    +0.030 C 
ATOM      5  C   LIG    1        0.084   1.210  -0.351  0.00  0.00    +0.200 C 
ATOM      6  N   LIG    1       -0.003  -0.231  -0.118  0.00  0.00    -0.530 NA
ATOM      7  C   LIG    1       -0.049  -1.051  -1.269  0.00  0.00    +0.180 C 
ATOM      8  C   LIG    1        1.265  -0.908  -2.074  0.00  0.00    +0.320 C 
ATOM      9  O   LIG    1        0.315  -0.354  -4.497  0.00  0.00    -0.570 OA
ENDROOT
BRANCH   1  10
ATOM     10  O   LIG    1        0.863   1.796  -4.491  0.00  0.00    -0.370 OA
BRANCH  10  11
ATOM     11  C   LIG    1        0.293   1.911  -5.822  0.00  0.00    +0.230 C 
BRANCH  11  13
ATOM     12  C   LIG    1        1.919   3.690  -6.480  0.00  0.00    +0.020 C 
ATOM     13  C   LIG    1        0.436   3.352  -6.316  0.00  0.00    -0.020 C 
ATOM     14  C   LIG    1       -0.274   3.502  -7.663  0.00  0.00    +0.040 C 
ENDBRANCH  11  13
ENDBRANCH  10  11
ENDBRANCH   1  10
BRANCH   6  15
ATOM     15  C   LIG    1       -1.103  -0.550   0.801  0.00  0.00    +0.250 C 
BRANCH  15  16
ATOM     16  C   LIG    1       -2.416  -0.184   0.159  0.00  0.00    +0.480 C 
ATOM     17  N   LIG    1       -3.576  -0.492   0.772  0.00  0.00    -0.730 N 
ATOM     18  H   LIG    1       -3.566  -0.950   1.627  0.00  0.00    +0.400 HD
ATOM     19  O   LIG    1       -2.429   0.389  -0.911  0.00  0.00    -0.530 OA
BRANCH  17  20
ATOM     20  C   LIG    1       -4.852  -0.136   0.147  0.00  0.00    +0.330 C 
BRANCH  20  21
ATOM     21  C   LIG    1       -5.987  -0.589   1.030  0.00  0.00    -0.160 A 
ATOM     22  C   LIG    1       -6.537  -1.852   0.872  0.00  0.00    +0.080 A 
ATOM     23  C   LIG    1       -7.576  -2.228   1.711  0.00  0.00    -0.030 A 
ATOM     24  C   LIG    1       -8.033  -1.334   2.660  0.00  0.00    +0.270 A 
ATOM     25  N   LIG    1       -7.489  -0.138   2.777  0.00  0.00    -0.480 NA
ATOM     26  C   LIG    1       -6.496   0.251   2.002  0.00  0.00    +0.280 A 
ENDBRANCH  20  21
ENDBRANCH  17  20
ENDBRANCH  15  16
ENDBRANCH   6  15
TORSDOF 7
