REMARK  Name = ZINCtV00000L6jxT.0
REMARK                            x       y       z     vdW  Elec       q    Type
REMARK                         _______ _______ _______ _____ _____    ______ ____
ROOT
ATOM      1  C   LIG    1       -0.665  -3.121  -1.167  0.00  0.00    +0.440 A 
ATOM      2  C   LIG    1       -1.213  -2.621  -2.330  0.00  0.00    -0.070 A 
ATOM      3  C   LIG    1       -1.448  -1.250  -2.436  0.00  0.00    +0.230 A 
ATOM      4  N   LIG    1       -1.151  -0.445  -1.438  0.00  0.00    -0.460 NA
ATOM      5  C   LIG    1       -0.626  -0.915  -0.303  0.00  0.00    +0.290 A 
ATOM      6  C   LIG    1       -0.221  -0.288   0.882  0.00  0.00    -0.210 A 
ATOM      7  C   LIG    1        0.268  -1.286   1.733  0.00  0.00    +0.130 A 
ATOM      8  N   LIG    1        0.180  -2.443   1.124  0.00  0.00    -0.300 NA
ATOM      9  C   LIG    1        0.807  -1.067   3.123  0.00  0.00    +0.170 C 
ATOM     10  N   LIG    1       -0.369  -2.252  -0.149  0.00  0.00    -0.320 N 
ENDROOT
BRANCH   6  11
ATOM     11  C   LIG    1       -0.301   1.160   1.182  0.00  0.00    +0.010 A 
ATOM     12  C   LIG    1       -1.543   1.790   1.269  0.00  0.00    +0.020 A 
ATOM     13  C   LIG    1       -1.612   3.138   1.552  0.00  0.00    +0.000 A 
ATOM     14  C   LIG    1       -0.452   3.868   1.741  0.00  0.00    +0.000 A 
ATOM     15  C   LIG    1        0.783   3.251   1.651  0.00  0.00    +0.000 A 
ATOM     16  C   LIG    1        0.865   1.902   1.372  0.00  0.00    +0.010 A 
ENDBRANCH   6  11
BRANCH   3  17
ATOM     17  C   LIG    1       -2.046  -0.689  -3.700  0.00  0.00    -0.020 C 
ATOM     18  C   LIG    1       -3.418  -1.322  -3.941  0.00  0.00    +0.050 C 
ATOM     19  C   LIG    1       -1.127  -1.001  -4.882  0.00  0.00    +0.050 C 
ATOM     20  C   LIG    1       -2.202   0.827  -3.561  0.00  0.00    +0.050 C 
ENDBRANCH   3  17
BRANCH   1  21
ATOM     21  N   LIG    1       -0.420  -4.471  -1.031  0.00  0.00    -0.670 N 
ATOM     22  H   LIG    1       -1.147  -5.107  -1.119  0.00  0.00    +0.420 HD
BRANCH  21  27
ATOM     23  C   LIG    1        4.839  -6.303   0.045  0.00  0.00    +0.090 C 
ATOM     24  C   LIG    1        3.442  -5.816  -0.240  0.00  0.00    -0.120 A 
ATOM     25  C   LIG    1        3.222  -4.483  -0.533  0.00  0.00    +0.040 A 
ATOM     26  C   LIG    1        1.943  -4.034  -0.800  0.00  0.00    -0.040 A 
ATOM     27  C   LIG    1        0.876  -4.922  -0.765  0.00  0.00    +0.190 A 
ATOM     28  C   LIG    1        1.100  -6.261  -0.471  0.00  0.00    -0.040 A 
ATOM     29  C   LIG    1        2.382  -6.704  -0.210  0.00  0.00    -0.050 A 
ATOM     30  C   LIG    1        2.626  -8.157   0.109  0.00  0.00    +0.090 C 
ENDBRANCH  21  27
ENDBRANCH   1  21
TORSDOF 4
