REMARK  Name = ZINCtV00000L6jxt.1
REMARK                            x       y       z     vdW  Elec       q    Type
REMARK                         _______ _______ _______ _____ _____    ______ ____
ROOT
ATOM      1  C   LIG    1        7.884   5.017  -0.339  0.00  0.00    +0.200 C 
ATOM      2  C   LIG    1        8.038   3.911   0.673  0.00  0.00    +0.140 A 
ATOM      3  N   LIG    1        9.100   3.679   1.398  0.00  0.00    -0.260 NA
ATOM      4  N   LIG    1        8.856   2.570   2.216  0.00  0.00    -0.310 N 
ATOM      5  C   LIG    1        7.602   2.130   1.973  0.00  0.00    +0.130 A 
ATOM      6 CL   LIG    1        6.819   0.783   2.738  0.00  0.00    +0.010 Cl
ATOM      7  C   LIG    1        7.061   2.948   1.003  0.00  0.00    -0.120 A 
ENDROOT
BRANCH   7   8
ATOM      8  C   LIG    1        5.706   2.840   0.422  0.00  0.00    +0.290 A 
ATOM      9  N   LIG    1        5.201   3.631  -0.499  0.00  0.00    -0.460 NA
ATOM     10  C   LIG    1        3.956   3.243  -0.789  0.00  0.00    +0.040 A 
ATOM     11  C   LIG    1        3.657   2.160  -0.020  0.00  0.00    +0.020 A 
ATOM     12  C   LIG    1        3.039   3.892  -1.794  0.00  0.00    +0.150 C 
ATOM     13  N   LIG    1        4.769   1.906   0.756  0.00  0.00    -0.560 N 
ATOM     14  H   LIG    1        4.867   1.197   1.412  0.00  0.00    +0.420 HD
BRANCH  11  15
ATOM     15  C   LIG    1        2.385   1.407  -0.013  0.00  0.00    -0.020 A 
ATOM     16  C   LIG    1        1.167   2.088   0.002  0.00  0.00    +0.040 A 
ATOM     17  C   LIG    1       -0.017   1.379   0.010  0.00  0.00    +0.020 A 
ATOM     18  C   LIG    1        0.002  -0.004   0.002  0.00  0.00    +0.020 A 
ATOM     19  C   LIG    1        1.206  -0.686  -0.013  0.00  0.00    +0.010 A 
ATOM     20  C   LIG    1        2.397   0.011  -0.020  0.00  0.00    +0.010 A 
ENDBRANCH  11  15
ENDBRANCH   7   8
BRANCH   4  21
ATOM     21  C   LIG    1        9.757   2.013   3.134  0.00  0.00    +0.140 A 
ATOM     22  C   LIG    1        9.293   1.478   4.327  0.00  0.00    +0.050 A 
ATOM     23  C   LIG    1       10.183   0.926   5.228  0.00  0.00    +0.060 A 
ATOM     24  C   LIG    1       11.536   0.916   4.946  0.00  0.00    +0.090 A 
ATOM     25  C   LIG    1       12.003   1.452   3.760  0.00  0.00    -0.160 A 
ATOM     26  C   LIG    1       11.117   2.001   2.853  0.00  0.00    +0.100 A 
BRANCH  25  27
ATOM     27  C   LIG    1       13.479   1.439   3.457  0.00  0.00    +0.510 C 
ATOM     28  F   LIG    1       13.670   1.365   2.073  0.00  0.00    -0.170 F 
ATOM     29  F   LIG    1       14.070   0.329   4.069  0.00  0.00    -0.170 F 
ATOM     30  F   LIG    1       14.066   2.610   3.947  0.00  0.00    -0.170 F 
ENDBRANCH  25  27
ENDBRANCH   4  21
TORSDOF 4
