REMARK  Name = ZINCrg00001JduWb.0
REMARK                            x       y       z     vdW  Elec       q    Type
REMARK                         _______ _______ _______ _____ _____    ______ ____
ROOT
ATOM      1  C   LIG    1       -1.569  -0.702   1.807  0.00  0.00    +0.550 C 
ATOM      2  N   LIG    1       -1.796   0.616   1.634  0.00  0.00    -0.590 N 
ATOM      3  C   LIG    1       -3.091   1.286   1.809  0.00  0.00    +0.230 C 
ATOM      4  C   LIG    1       -2.878   2.783   1.509  0.00  0.00    +0.070 C 
ATOM      5  C   LIG    1       -1.601   2.796   0.632  0.00  0.00    +0.170 C 
ATOM      6  O   LIG    1       -1.951   2.317  -0.683  0.00  0.00    -0.360 OA
ATOM      7  C   LIG    1       -0.806   1.620  -1.201  0.00  0.00    +0.190 C 
ATOM      8  C   LIG    1       -0.013   1.086   0.008  0.00  0.00    +0.010 C 
ATOM      9  C   LIG    1       -0.785   1.608   1.240  0.00  0.00    +0.220 C 
ATOM     10  O   LIG    1       -0.457  -1.153   1.635  0.00  0.00    -0.530 OA
ENDROOT
BRANCH   3  11
ATOM     11  C   LIG    1       -4.101   0.710   0.850  0.00  0.00    +0.520 C 
ATOM     12  N   LIG    1       -5.360   1.190   0.828  0.00  0.00    -0.620 N 
ATOM     13  C   LIG    1       -5.883   2.263   1.686  0.00  0.00    +0.230 C 
ATOM     14  C   LIG    1       -7.371   2.454   1.324  0.00  0.00    +0.030 C 
ATOM     15  C   LIG    1       -7.750   1.091   0.688  0.00  0.00    +0.040 C 
ATOM     16  C   LIG    1       -6.443   0.721  -0.056  0.00  0.00    +0.260 C 
ATOM     17  O   LIG    1       -3.780  -0.185   0.097  0.00  0.00    -0.510 OA
ENDBRANCH   3  11
BRANCH   1  18
ATOM     18  C   LIG    1       -2.698  -1.613   2.215  0.00  0.00    +0.060 C 
BRANCH  18  19
ATOM     19  C   LIG    1       -2.176  -3.046   2.341  0.00  0.00    +0.040 C 
BRANCH  19  20
ATOM     20  C   LIG    1       -3.321  -3.972   2.756  0.00  0.00    +0.280 C 
BRANCH  20  27
ATOM     21  O   LIG    1       -3.294  -5.756   0.743  0.00  0.00    -0.550 OA
ATOM     22  C   LIG    1       -2.851  -6.160   1.807  0.00  0.00    +0.510 A 
ATOM     23  C   LIG    1       -2.369  -7.476   1.912  0.00  0.00    -0.090 A 
ATOM     24  C   LIG    1       -1.883  -7.915   3.109  0.00  0.00    +0.120 A 
ATOM     25  C   LIG    1       -1.871  -7.041   4.205  0.00  0.00    -0.080 A 
ATOM     26  C   LIG    1       -2.338  -5.778   4.069  0.00  0.00    +0.290 A 
ATOM     27  N   LIG    1       -2.821  -5.343   2.877  0.00  0.00    -0.500 N 
ENDBRANCH  20  27
ENDBRANCH  19  20
ENDBRANCH  18  19
ENDBRANCH   1  18
TORSDOF 5
