REMARK  Name = ZINCpe000000TN2j.0
REMARK                            x       y       z     vdW  Elec       q    Type
REMARK                         _______ _______ _______ _____ _____    ______ ____
ROOT
ATOM      1  S   LIG    1        1.729   6.125   2.008  0.00  0.00    +2.690 S 
ATOM      2  O   LIG    1        2.653   5.377   1.230  0.00  0.00    -0.870 OA
ATOM      3  O   LIG    1        1.633   6.014   3.421  0.00  0.00    -0.920 OA
ENDROOT
BRANCH   1   9
ATOM      4  C   LIG    1        2.672   8.332   0.501  0.00  0.00    -0.210 A 
ATOM      5  C   LIG    1        2.723   9.706   0.634  0.00  0.00    +0.340 A 
ATOM      6  N   LIG    1        2.169  10.015   1.817  0.00  0.00    -0.450 N 
ATOM      7  H   LIG    1        2.071  10.909   2.180  0.00  0.00    +0.450 HD
ATOM      8  N   LIG    1        1.758   8.831   2.439  0.00  0.00    -0.180 NA
ATOM      9  C   LIG    1        2.049   7.823   1.663  0.00  0.00    -0.430 A 
BRANCH   4  10
ATOM     10  C   LIG    1        3.169   7.545  -0.640  0.00  0.00    +0.510 C 
ATOM     11  O   LIG    1        3.061   6.334  -0.637  0.00  0.00    -0.440 OA
BRANCH  10  12
ATOM     12  O   LIG    1        3.745   8.167  -1.688  0.00  0.00    -0.360 OA
BRANCH  12  14
ATOM     13  C   LIG    1        4.832   8.205  -3.867  0.00  0.00    +0.070 C 
ATOM     14  C   LIG    1        4.213   7.328  -2.777  0.00  0.00    +0.210 C 
ENDBRANCH  12  14
ENDBRANCH  10  12
ENDBRANCH   4  10
ENDBRANCH   1   9
BRANCH   1  15
ATOM     15  N   LIG    1        0.225   5.778   1.408  0.00  0.00    -0.980 NA
BRANCH  15  16
ATOM     16  C   LIG    1        0.077   5.302   0.031  0.00  0.00    +0.370 C 
BRANCH  16  17
ATOM     17  C   LIG    1        0.033   3.795   0.023  0.00  0.00    +0.110 A 
ATOM     18  C   LIG    1       -1.188   3.148   0.031  0.00  0.00    -0.030 A 
ATOM     19  C   LIG    1       -1.217   1.761   0.017  0.00  0.00    +0.050 A 
ATOM     20  C   LIG    1       -0.013   1.076   0.008  0.00  0.00    -0.040 A 
ATOM     21  C   LIG    1        1.170   1.792   0.001  0.00  0.00    +0.260 A 
ATOM     22  N   LIG    1        1.160   3.110   0.008  0.00  0.00    -0.440 NA
ENDBRANCH  16  17
ENDBRANCH  15  16
BRANCH  15  23
ATOM     23  C   LIG    1       -0.959   5.948   2.255  0.00  0.00    +0.320 C 
BRANCH  23  24
ATOM     24  C   LIG    1       -1.313   4.612   2.911  0.00  0.00    +0.150 C 
BRANCH  24  25
ATOM     25  O   LIG    1       -0.263   4.225   3.801  0.00  0.00    -0.370 OA
ATOM     26  C   LIG    1       -0.496   2.984   4.469  0.00  0.00    +0.200 C 
ENDBRANCH  24  25
ENDBRANCH  23  24
ENDBRANCH  15  23
ENDBRANCH   1  15
TORSDOF 10
