REMARK  Name = ZINCb7000000105d.0
REMARK                            x       y       z     vdW  Elec       q    Type
REMARK                         _______ _______ _______ _____ _____    ______ ____
ROOT
ATOM      1  C   LIG    1       -0.013   1.086   0.008  0.00  0.00    -0.020 C 
ATOM      2  C   LIG    1       -0.725   1.581   1.270  0.00  0.00    +0.040 C 
ATOM      3  C   LIG    1        0.069   1.133   2.501  0.00  0.00    +0.050 C 
ATOM      4  C   LIG    1        1.501   1.661   2.398  0.00  0.00    +0.250 C 
ATOM      5  N   LIG    1        2.136   1.132   1.185  0.00  0.00    -0.500 N 
ATOM      6  H   LIG    1        3.096   1.439   1.147  0.00  0.00    +0.440 HD
ATOM      7  H   LIG    1        2.108   0.123   1.205  0.00  0.00    +0.430 HD
ATOM      8  C   LIG    1        1.423   1.616  -0.003  0.00  0.00    +0.280 C 
ENDROOT
BRANCH   1   9
ATOM      9  C   LIG    1       -0.754   1.593  -1.230  0.00  0.00    +0.280 C 
BRANCH   9  12
ATOM     10  C   LIG    1       -4.301   0.677  -2.343  0.00  0.00    +0.100 C 
ATOM     11  C   LIG    1       -2.928   1.296  -2.291  0.00  0.00    +0.510 C 
ATOM     12  N   LIG    1       -2.089   0.992  -1.281  0.00  0.00    -0.740 N 
ATOM     13  H   LIG    1       -2.370   0.375  -0.587  0.00  0.00    +0.400 HD
ATOM     14  O   LIG    1       -2.577   2.067  -3.159  0.00  0.00    -0.530 OA
ENDBRANCH   9  12
ENDBRANCH   1   9
TORSDOF 2
