REMARK  Name = ZINCvU00000009td.0
REMARK                            x       y       z     vdW  Elec       q    Type
REMARK                         _______ _______ _______ _____ _____    ______ ____
ROOT
ATOM      1  N   LIG    1       -2.409  -6.827  -1.179  0.00  0.00    -0.710 N 
ATOM      2  H   LIG    1       -2.369  -6.340  -2.017  0.00  0.00    +0.410 HD
ATOM      3  C   LIG    1       -2.331  -6.162  -0.009  0.00  0.00    +0.570 C 
ATOM      4  O   LIG    1       -2.382  -6.773   1.041  0.00  0.00    -0.530 OA
ENDROOT
BRANCH   3   5
ATOM      5  C   LIG    1       -2.184  -4.691  -0.002  0.00  0.00    -0.130 A 
ATOM      6  C   LIG    1       -2.103  -4.000   1.208  0.00  0.00    +0.080 A 
ATOM      7  C   LIG    1       -1.966  -2.627   1.207  0.00  0.00    +0.020 A 
ATOM      8  C   LIG    1       -1.909  -1.936   0.010  0.00  0.00    -0.050 A 
ATOM      9  C   LIG    1       -1.995  -2.614  -1.193  0.00  0.00    +0.020 A 
ATOM     10  C   LIG    1       -2.126  -3.987  -1.206  0.00  0.00    +0.050 A 
BRANCH   8  11
ATOM     11  C   LIG    1       -1.760  -0.436   0.017  0.00  0.00    +0.120 C 
BRANCH  11  12
ATOM     12  S   LIG    1        0.002  -0.004   0.002  0.00  0.00    -0.090 S 
BRANCH  12  13
ATOM     13  C   LIG    1       -0.022   1.758   0.012  0.00  0.00    -0.090 A 
ATOM     14  C   LIG    1       -1.234   2.438   0.021  0.00  0.00    +0.010 A 
ATOM     15  C   LIG    1       -1.249   3.818   0.034  0.00  0.00    +0.050 A 
ATOM     16  C   LIG    1       -0.059   4.525   0.027  0.00  0.00    -0.040 A 
ATOM     17  C   LIG    1        1.149   3.851   0.012  0.00  0.00    +0.050 A 
ATOM     18 CL   LIG    1       -0.083   6.261   0.037  0.00  0.00    -0.070 Cl
ATOM     19  C   LIG    1        1.171   2.470   0.004  0.00  0.00    +0.050 A 
ENDBRANCH  12  13
ENDBRANCH  11  12
ENDBRANCH   8  11
ENDBRANCH   3   5
BRANCH   1  20
ATOM     20  C   LIG    1       -2.555  -8.284  -1.185  0.00  0.00    +0.390 C 
BRANCH  20  26
ATOM     21  C   LIG    1       -1.777 -10.656   0.650  0.00  0.00    +0.330 C 
ATOM     22  N   LIG    1       -0.875  -9.960  -0.271  0.00  0.00    -0.450 N 
ATOM     23  C   LIG    1        0.450 -10.237  -0.475  0.00  0.00    +0.130 A 
ATOM     24  C   LIG    1        0.893  -9.363  -1.399  0.00  0.00    +0.140 A 
ATOM     25  N   LIG    1       -0.134  -8.577  -1.752  0.00  0.00    -0.470 NA
ATOM     26  C   LIG    1       -1.195  -8.926  -1.078  0.00  0.00    +0.190 A 
ENDBRANCH  20  26
BRANCH  20  27
ATOM     27  C   LIG    1       -3.214  -8.717  -2.469  0.00  0.00    -0.100 A 
ATOM     28  C   LIG    1       -2.875  -8.105  -3.661  0.00  0.00    +0.040 A 
ATOM     29  C   LIG    1       -3.477  -8.506  -4.840  0.00  0.00    +0.010 A 
ATOM     30  C   LIG    1       -4.425  -9.512  -4.825  0.00  0.00    +0.020 A 
ATOM     31  C   LIG    1       -4.768 -10.121  -3.632  0.00  0.00    +0.010 A 
ATOM     32  C   LIG    1       -4.163  -9.723  -2.454  0.00  0.00    +0.020 A 
ENDBRANCH  20  27
ENDBRANCH   1  20
TORSDOF 7
