REMARK  Name = ZINCvU0000000GwE.0
REMARK                            x       y       z     vdW  Elec       q    Type
REMARK                         _______ _______ _______ _____ _____    ______ ____
ROOT
ATOM      1  C   LIG    1        3.783  -0.983  -0.039  0.00  0.00    +0.320 C 
ENDROOT
BRANCH   1   2
ATOM      2  C   LIG    1        4.296  -1.125   1.371  0.00  0.00    -0.100 A 
ATOM      3  C   LIG    1        3.419  -1.415   2.399  0.00  0.00    +0.020 A 
ATOM      4  C   LIG    1        3.890  -1.550   3.692  0.00  0.00    +0.000 A 
ATOM      5  C   LIG    1        5.237  -1.387   3.957  0.00  0.00    +0.000 A 
ATOM      6  C   LIG    1        6.113  -1.092   2.929  0.00  0.00    +0.000 A 
ATOM      7  C   LIG    1        5.642  -0.961   1.636  0.00  0.00    +0.020 A 
ENDBRANCH   1   2
BRANCH   1   8
ATOM      8  N   LIG    1        2.502  -0.272  -0.023  0.00  0.00    -0.710 N 
ATOM      9  H   LIG    1        1.670  -0.772  -0.018  0.00  0.00    +0.390 HD
ATOM     10  C   LIG    1        2.478   1.075  -0.016  0.00  0.00    +0.560 C 
ATOM     11  O   LIG    1        3.520   1.701  -0.022  0.00  0.00    -0.500 OA
BRANCH  10  12
ATOM     12  C   LIG    1        1.186   1.792   0.000  0.00  0.00    -0.130 A 
ATOM     13  C   LIG    1       -0.013   1.076   0.008  0.00  0.00    +0.060 A 
ATOM     14  C   LIG    1       -1.216   1.751   0.017  0.00  0.00    +0.020 A 
ATOM     15  C   LIG    1       -1.237   3.134   0.030  0.00  0.00    +0.060 A 
ATOM     16  C   LIG    1       -0.054   3.851   0.022  0.00  0.00    +0.020 A 
ATOM     17  C   LIG    1        1.158   3.189   0.008  0.00  0.00    +0.010 A 
ATOM     18 CL   LIG    1        2.642   4.089  -0.001  0.00  0.00    -0.030 Cl
ENDBRANCH  10  12
ENDBRANCH   1   8
BRANCH   1  19
ATOM     19  C   LIG    1        3.589  -2.370  -0.654  0.00  0.00    +0.090 C 
BRANCH  19  21
ATOM     20  O   LIG    1        3.079  -1.124  -2.593  0.00  0.00    -0.450 OA
ATOM     21  C   LIG    1        3.195  -2.227  -2.102  0.00  0.00    +0.500 C 
ATOM     22  N   LIG    1        2.970  -3.325  -2.851  0.00  0.00    -0.630 N 
ATOM     23  H   LIG    1        3.062  -4.207  -2.458  0.00  0.00    +0.430 HD
BRANCH  22  24
ATOM     24  C   LIG    1        2.607  -3.193  -4.181  0.00  0.00    +0.340 A 
ATOM     25  N   LIG    1        2.453  -2.071  -4.794  0.00  0.00    -0.460 NA
ATOM     26  C   LIG    1        2.100  -2.106  -6.095  0.00  0.00    +0.100 A 
ATOM     27  C   LIG    1        1.876  -1.028  -6.977  0.00  0.00    +0.110 A 
ATOM     28  C   LIG    1        1.514  -1.259  -8.280  0.00  0.00    +0.020 A 
ATOM     29  C   LIG    1        1.361  -2.557  -8.751  0.00  0.00    +0.110 A 
ATOM     30  C   LIG    1        1.575  -3.625  -7.906  0.00  0.00    +0.040 A 
ATOM     31  F   LIG    1        1.005  -2.772 -10.037  0.00  0.00    -0.130 F 
ATOM     32  C   LIG    1        1.944  -3.407  -6.581  0.00  0.00    -0.160 A 
ATOM     33  S   LIG    1        2.284  -4.535  -5.271  0.00  0.00    +0.080 S 
ENDBRANCH  22  24
ENDBRANCH  19  21
ENDBRANCH   1  19
TORSDOF 6
