REMARK  Name = ZINCrD00000hQ62S.0
REMARK                            x       y       z     vdW  Elec       q    Type
REMARK                         _______ _______ _______ _____ _____    ______ ____
ROOT
ATOM      1  C   LIG    1       -2.333   9.990  -0.842  0.00  0.00    +0.260 A 
ATOM      2  N   LIG    1       -2.298   9.416  -2.021  0.00  0.00    -0.390 NA
ATOM      3  O   LIG    1       -2.715   8.280  -1.942  0.00  0.00    +0.090 OA
ATOM      4  C   LIG    1       -3.073   8.008  -0.684  0.00  0.00    +0.200 A 
ATOM      5  N   LIG    1       -2.835   9.080   0.028  0.00  0.00    -0.460 NA
ENDROOT
BRANCH   1   8
ATOM      6  C   LIG    1       -2.441  11.329   1.975  0.00  0.00    +0.170 C 
ATOM      7  C   LIG    1       -1.947  11.961   0.700  0.00  0.00    +0.130 A 
ATOM      8  C   LIG    1       -1.906  11.365  -0.522  0.00  0.00    +0.020 A 
ATOM      9  N   LIG    1       -1.387  12.305  -1.420  0.00  0.00    -0.400 N 
ATOM     10  C   LIG    1       -1.082  12.401  -2.757  0.00  0.00    +0.220 A 
ATOM     11  C   LIG    1       -0.583  13.536  -3.214  0.00  0.00    +0.020 A 
ATOM     12  S   LIG    1       -0.484  14.612  -1.809  0.00  0.00    +0.190 S 
ATOM     13  C   LIG    1       -1.141  13.418  -0.679  0.00  0.00    +0.180 A 
ATOM     14  N   LIG    1       -1.473  13.201   0.575  0.00  0.00    -0.450 NA
ENDBRANCH   1   8
BRANCH   4  15
ATOM     15  C   LIG    1       -3.640   6.707  -0.177  0.00  0.00    +0.140 C 
ATOM     16  C   LIG    1       -4.952   6.404  -0.906  0.00  0.00    +0.050 C 
ATOM     17  C   LIG    1       -5.658   5.224  -0.226  0.00  0.00    +0.160 C 
ATOM     18  C   LIG    1       -4.662   4.106  -0.062  0.00  0.00    -0.020 A 
ATOM     19  C   LIG    1       -3.319   4.263  -0.159  0.00  0.00    -0.020 A 
ATOM     20  N   LIG    1       -2.778   3.049   0.042  0.00  0.00    -0.270 N 
ATOM     21  N   LIG    1       -3.741   2.213   0.244  0.00  0.00    -0.080 NA
ATOM     22  N   LIG    1       -4.878   2.820   0.192  0.00  0.00    -0.260 NA
ATOM     23  C   LIG    1       -2.636   5.576  -0.436  0.00  0.00    +0.150 C 
BRANCH  20  24
ATOM     24  C   LIG    1       -1.349   2.730   0.028  0.00  0.00    +0.240 C 
ATOM     25  C   LIG    1       -0.959   1.695  -1.040  0.00  0.00    +0.040 C 
ATOM     26  C   LIG    1       -0.013   1.086   0.008  0.00  0.00    +0.040 C 
ATOM     27  C   LIG    1       -0.939   1.683   1.080  0.00  0.00    +0.040 C 
ENDBRANCH  20  24
ENDBRANCH   4  15
TORSDOF 3
