REMARK  Name = ZINCpe00000MJKgg.0
REMARK                            x       y       z     vdW  Elec       q    Type
REMARK                         _______ _______ _______ _____ _____    ______ ____
ROOT
ATOM      1  O   LIG    1        1.930   0.451  -3.330  0.00  0.00    -0.540 OA
ATOM      2  C   LIG    1        1.317   0.681  -2.309  0.00  0.00    +0.490 C 
ATOM      3  C   LIG    1        2.046   0.600  -0.998  0.00  0.00    +0.290 C 
ATOM      4  O   LIG    1        1.274   1.207   0.043  0.00  0.00    -0.360 OA
ATOM      5  C   LIG    1       -0.090   0.786   0.033  0.00  0.00    +0.150 C 
ATOM      6  C   LIG    1       -0.834   1.294   1.267  0.00  0.00    +0.070 C 
ATOM      7  C   LIG    1       -2.273   0.764   1.227  0.00  0.00    +0.280 C 
ATOM      8  N   LIG    1       -2.885   1.133  -0.055  0.00  0.00    -0.630 N 
ATOM      9  C   LIG    1       -2.188   0.798  -1.307  0.00  0.00    +0.310 C 
ATOM     10  C   LIG    1       -4.072   1.772  -0.086  0.00  0.00    +0.710 C 
ATOM     11  N   LIG    1       -4.753   1.983   1.058  0.00  0.00    -0.740 N 
ATOM     12  H   LIG    1       -4.357   1.741   1.910  0.00  0.00    +0.400 HD
ATOM     13  O   LIG    1       -4.528   2.157  -1.145  0.00  0.00    -0.580 OA
ATOM     14  C   LIG    1       -0.765   1.351  -1.220  0.00  0.00    +0.190 C 
ATOM     15  N   LIG    1        0.016   0.997  -2.398  0.00  0.00    -0.710 N 
ATOM     16  H   LIG    1       -0.414   0.989  -3.267  0.00  0.00    +0.410 HD
ENDROOT
BRANCH  11  17
ATOM     17  C   LIG    1       -6.090   2.579   1.015  0.00  0.00    +0.300 C 
BRANCH  17  18
ATOM     18  C   LIG    1       -6.585   2.826   2.442  0.00  0.00    +0.040 C 
ATOM     19  C   LIG    1       -5.667   3.839   3.131  0.00  0.00    +0.000 C 
ATOM     20  C   LIG    1       -6.340   4.291   4.433  0.00  0.00    +0.240 C 
ATOM     21  O   LIG    1       -7.540   4.990   4.100  0.00  0.00    -0.310 OA
ATOM     22  C   LIG    1       -8.394   4.402   3.221  0.00  0.00    +0.140 A 
ATOM     23  C   LIG    1       -9.703   4.867   3.156  0.00  0.00    -0.020 A 
ATOM     24  C   LIG    1      -10.598   4.299   2.272  0.00  0.00    +0.050 A 
ATOM     25  C   LIG    1      -10.194   3.264   1.450  0.00  0.00    -0.020 A 
ATOM     26  C   LIG    1       -8.895   2.799   1.513  0.00  0.00    +0.050 A 
ATOM     27  C   LIG    1       -7.993   3.364   2.398  0.00  0.00    -0.160 A 
ENDBRANCH  17  18
ENDBRANCH  11  17
TORSDOF 2
