REMARK  Name = ZINCvU0000000GxG.0
REMARK                            x       y       z     vdW  Elec       q    Type
REMARK                         _______ _______ _______ _____ _____    ______ ____
ROOT
ATOM      1  O   LIG    1        2.778   1.237  -4.120  0.00  0.00    -0.520 OA
ATOM      2  C   LIG    1        3.089   2.201  -3.454  0.00  0.00    +0.540 C 
ATOM      3  N   LIG    1        3.188   2.091  -2.115  0.00  0.00    -0.710 N 
ATOM      4  H   LIG    1        3.437   2.862  -1.581  0.00  0.00    +0.400 HD
ENDROOT
BRANCH   3   5
ATOM      5  C   LIG    1        2.922   0.806  -1.464  0.00  0.00    +0.300 C 
BRANCH   5   6
ATOM      6  C   LIG    1        4.172  -0.035  -1.481  0.00  0.00    -0.100 A 
ATOM      7  C   LIG    1        5.403   0.551  -1.254  0.00  0.00    +0.010 A 
ATOM      8  C   LIG    1        6.549  -0.221  -1.266  0.00  0.00    +0.000 A 
ATOM      9  C   LIG    1        6.466  -1.579  -1.514  0.00  0.00    +0.000 A 
ATOM     10  C   LIG    1        5.235  -2.164  -1.746  0.00  0.00    +0.000 A 
ATOM     11  C   LIG    1        4.088  -1.393  -1.730  0.00  0.00    +0.020 A 
ENDBRANCH   5   6
BRANCH   5  12
ATOM     12  C   LIG    1        2.490   1.048  -0.016  0.00  0.00    +0.090 C 
BRANCH  12  13
ATOM     13  C   LIG    1        1.175   1.783   0.000  0.00  0.00    -0.090 A 
ATOM     14  C   LIG    1       -0.013   1.076   0.008  0.00  0.00    +0.010 A 
ATOM     15  C   LIG    1       -1.219   1.751   0.017  0.00  0.00    +0.000 A 
ATOM     16  C   LIG    1       -1.238   3.133   0.029  0.00  0.00    +0.000 A 
ATOM     17  C   LIG    1       -0.050   3.840   0.022  0.00  0.00    +0.000 A 
ATOM     18  C   LIG    1        1.156   3.165   0.008  0.00  0.00    +0.000 A 
ENDBRANCH  12  13
ENDBRANCH   5  12
ENDBRANCH   3   5
BRANCH   2  19
ATOM     19  C   LIG    1        3.363   3.523  -4.124  0.00  0.00    +0.090 C 
BRANCH  19  20
ATOM     20  S   LIG    1        3.147   3.350  -5.912  0.00  0.00    +0.160 S 
BRANCH  20  21
ATOM     21  C   LIG    1        3.519   4.994  -6.426  0.00  0.00    +0.120 A 
ATOM     22  N   LIG    1        3.845   5.997  -5.645  0.00  0.00    -0.290 NA
ATOM     23  N   LIG    1        4.051   7.047  -6.359  0.00  0.00    -0.260 NA
ATOM     24  C   LIG    1        3.856   6.759  -7.623  0.00  0.00    +0.210 A 
ATOM     25  O   LIG    1        3.515   5.453  -7.692  0.00  0.00    -0.190 OA
BRANCH  24  26
ATOM     26  C   LIG    1        3.986   7.690  -8.762  0.00  0.00    -0.060 A 
ATOM     27  C   LIG    1        4.347   9.021  -8.543  0.00  0.00    +0.110 A 
ATOM     28  C   LIG    1        4.466   9.885  -9.611  0.00  0.00    +0.010 A 
ATOM     29  C   LIG    1        4.229   9.438 -10.899  0.00  0.00    +0.080 A 
ATOM     30  C   LIG    1        3.871   8.121 -11.126  0.00  0.00    +0.000 A 
ATOM     31  C   LIG    1        3.753   7.242 -10.066  0.00  0.00    +0.130 A 
ATOM     32  F   LIG    1        3.409   5.955 -10.289  0.00  0.00    -0.120 F 
ENDBRANCH  24  26
ENDBRANCH  20  21
ENDBRANCH  19  20
ENDBRANCH   2  19
TORSDOF 8
