REMARK  Name = ZINCpk00000y6xPz.0
REMARK                            x       y       z     vdW  Elec       q    Type
REMARK                         _______ _______ _______ _____ _____    ______ ____
ROOT
ATOM      1  C   LIG    1       -4.475   1.431  -1.573  0.00  0.00    +0.600 C 
ATOM      2  N   LIG    1       -3.188   1.047  -1.456  0.00  0.00    -0.700 N 
ATOM      3  H   LIG    1       -2.889   0.223  -1.870  0.00  0.00    +0.420 HD
ATOM      4  O   LIG    1       -4.851   2.464  -1.054  0.00  0.00    -0.520 OA
ENDROOT
BRANCH   1  14
ATOM      5  C   LIG    1       -7.546   2.076  -2.014  0.00  0.00    +0.130 C 
ATOM      6  C   LIG    1       -6.799   0.876  -2.534  0.00  0.00    -0.190 A 
ATOM      7  C   LIG    1       -7.317  -0.124  -3.275  0.00  0.00    +0.260 A 
ATOM      8  O   LIG    1       -8.594  -0.280  -3.718  0.00  0.00    -0.280 OA
ATOM      9  C   LIG    1       -8.759  -1.248  -4.764  0.00  0.00    +0.240 C 
ATOM     10  C   LIG    1       -8.012  -2.532  -4.388  0.00  0.00    +0.020 C 
ATOM     11  C   LIG    1       -6.506  -2.241  -4.319  0.00  0.00    +0.330 C 
ATOM     12  N   LIG    1       -6.317  -1.014  -3.537  0.00  0.00    -0.390 N 
ATOM     13  N   LIG    1       -5.147  -0.541  -2.945  0.00  0.00    -0.240 NA
ATOM     14  C   LIG    1       -5.429   0.596  -2.332  0.00  0.00    +0.050 A 
ENDBRANCH   1  14
BRANCH   2  15
ATOM     15  C   LIG    1       -2.243   1.875  -0.703  0.00  0.00    +0.250 C 
ATOM     16  C   LIG    1       -2.268   1.485   0.789  0.00  0.00    +0.020 C 
ATOM     17  C   LIG    1       -0.789   1.611   1.242  0.00  0.00    +0.030 C 
ATOM     18  C   LIG    1       -0.013   1.086   0.008  0.00  0.00    +0.000 C 
ATOM     19  C   LIG    1       -0.809   1.622  -1.200  0.00  0.00    +0.160 C 
BRANCH  19  20
ATOM     20  O   LIG    1       -0.819   0.651  -2.249  0.00  0.00    -0.300 OA
BRANCH  20  21
ATOM     21  C   LIG    1        0.176   0.733  -3.176  0.00  0.00    -0.020 A 
ATOM     22  C   LIG    1        0.346  -0.091  -4.239  0.00  0.00    +0.200 A 
ATOM     23  N   LIG    1        1.448   0.330  -4.913  0.00  0.00    -0.370 N 
ATOM     24  N   LIG    1        1.969   1.439  -4.234  0.00  0.00    -0.270 NA
ATOM     25  C   LIG    1        1.998  -0.272  -6.130  0.00  0.00    +0.370 C 
ATOM     26  C   LIG    1        1.209   1.680  -3.196  0.00  0.00    +0.180 A 
ENDBRANCH  20  21
ENDBRANCH  19  20
ENDBRANCH   2  15
TORSDOF 4
