REMARK  Name = ZINCvU00000007O0.0
REMARK                            x       y       z     vdW  Elec       q    Type
REMARK                         _______ _______ _______ _____ _____    ______ ____
ROOT
ATOM      1  C   LIG    1        2.549   1.262  -0.745  0.00  0.00    +0.550 C 
ATOM      2  N   LIG    1        3.582   1.740  -0.023  0.00  0.00    -0.670 N 
ATOM      3  H   LIG    1        3.498   2.586   0.443  0.00  0.00    +0.420 HD
ATOM      4  O   LIG    1        2.685   0.250  -1.406  0.00  0.00    -0.520 OA
ENDROOT
BRANCH   2   5
ATOM      5  C   LIG    1        4.773   1.016   0.054  0.00  0.00    +0.170 A 
ATOM      6  C   LIG    1        4.741  -0.375   0.045  0.00  0.00    +0.020 A 
ATOM      7  C   LIG    1        5.915  -1.092   0.116  0.00  0.00    +0.060 A 
ATOM      8  C   LIG    1        7.137  -0.422   0.209  0.00  0.00    -0.050 A 
ATOM      9  C   LIG    1        7.165   0.974   0.223  0.00  0.00    +0.100 A 
ATOM     10  C   LIG    1        5.988   1.686   0.146  0.00  0.00    -0.010 A 
BRANCH   8  11
ATOM     11  C   LIG    1        8.397  -1.189   0.291  0.00  0.00    +0.160 A 
ATOM     12  N   LIG    1        9.574  -0.665   0.379  0.00  0.00    -0.460 NA
ATOM     13  C   LIG    1       10.629  -1.496   0.447  0.00  0.00    +0.080 A 
ATOM     14  C   LIG    1       12.001  -1.177   0.547  0.00  0.00    +0.080 A 
ATOM     15  C   LIG    1       12.938  -2.163   0.605  0.00  0.00    +0.030 A 
ATOM     16  C   LIG    1       12.566  -3.499   0.566  0.00  0.00    -0.060 A 
ATOM     17  C   LIG    1       11.236  -3.841   0.469  0.00  0.00    +0.050 A 
ATOM     18  C   LIG    1       13.619  -4.576   0.630  0.00  0.00    +0.100 C 
ATOM     19  C   LIG    1       10.262  -2.846   0.409  0.00  0.00    -0.170 A 
ATOM     20  S   LIG    1        8.507  -2.943   0.290  0.00  0.00    +0.070 S 
ENDBRANCH   8  11
ENDBRANCH   2   5
BRANCH   1  22
ATOM     21  C   LIG    1        0.228   1.486  -1.454  0.00  0.00    +0.130 C 
ATOM     22  C   LIG    1        1.261   1.963  -0.733  0.00  0.00    -0.070 C 
BRANCH  21  26
ATOM     23  C   LIG    1       -3.498   3.524  -1.432  0.00  0.00    -0.110 A 
ATOM     24  C   LIG    1       -3.342   2.362  -2.193  0.00  0.00    +0.080 A 
ATOM     25  C   LIG    1       -2.135   1.701  -2.200  0.00  0.00    +0.040 A 
ATOM     26  C   LIG    1       -1.064   2.192  -1.447  0.00  0.00    -0.040 A 
ATOM     27  C   LIG    1       -1.222   3.353  -0.682  0.00  0.00    +0.030 A 
ATOM     28  C   LIG    1       -2.429   4.016  -0.679  0.00  0.00    +0.080 A 
BRANCH  23  29
ATOM     29  C   LIG    1       -4.794   4.233  -1.425  0.00  0.00    +0.510 C 
ATOM     30  O   LIG    1       -5.724   3.806  -2.080  0.00  0.00    -0.500 OA
BRANCH  29  32
ATOM     31  C   LIG    1       -6.245   5.997  -0.733  0.00  0.00    +0.290 C 
ATOM     32  O   LIG    1       -4.945   5.353  -0.692  0.00  0.00    -0.350 OA
ENDBRANCH  29  32
ENDBRANCH  23  29
ENDBRANCH  21  26
ENDBRANCH   1  22
TORSDOF 6
