REMARK  Name = ZINCqH0000005ltZ.0
REMARK                            x       y       z     vdW  Elec       q    Type
REMARK                         _______ _______ _______ _____ _____    ______ ____
ROOT
ATOM      1  C   LIG    1       -4.045   6.209   0.145  0.00  0.00    +0.250 C 
ATOM      2  C   LIG    1       -4.795   4.890   0.441  0.00  0.00    +0.080 C 
ATOM      3  C   LIG    1       -3.779   3.834  -0.054  0.00  0.00    +0.270 C 
ATOM      4  N   LIG    1       -2.466   4.480   0.048  0.00  0.00    -0.560 N 
ATOM      5  C   LIG    1       -2.584   5.815   0.152  0.00  0.00    +0.500 C 
ATOM      6  O   LIG    1       -1.656   6.590   0.239  0.00  0.00    -0.480 OA
ENDROOT
BRANCH   4   7
ATOM      7  C   LIG    1       -1.245   3.795   0.033  0.00  0.00    +0.180 A 
ATOM      8  C   LIG    1       -0.051   4.502   0.010  0.00  0.00    +0.030 A 
ATOM      9  C   LIG    1        1.153   3.824  -0.004  0.00  0.00    +0.080 A 
ATOM     10  C   LIG    1        1.169   2.440   0.004  0.00  0.00    -0.060 A 
ATOM     11  C   LIG    1       -0.021   1.732   0.027  0.00  0.00    -0.000 A 
ATOM     12 CL   LIG    1        0.003  -0.004   0.037  0.00  0.00    -0.040 Cl
ATOM     13 CL   LIG    1        2.683   1.591  -0.015  0.00  0.00    -0.050 Cl
ATOM     14  C   LIG    1       -1.228   2.406   0.036  0.00  0.00    +0.010 A 
ENDBRANCH   4   7
BRANCH   1  15
ATOM     15  N   LIG    1       -4.313   7.200   1.191  0.00  0.00    -0.730 N 
ATOM     16  H   LIG    1       -4.621   6.912   2.064  0.00  0.00    +0.410 HD
BRANCH  15  23
ATOM     17  C   LIG    1       -3.198  13.426  -0.784  0.00  0.00    +0.310 C 
ATOM     18  N   LIG    1       -3.639  12.661   0.385  0.00  0.00    -0.550 N 
ATOM     19  C   LIG    1       -3.981  13.217   1.559  0.00  0.00    +0.520 C 
ATOM     20  C   LIG    1       -4.371  12.088   2.490  0.00  0.00    +0.130 C 
ATOM     21  C   LIG    1       -4.191  10.842   1.654  0.00  0.00    -0.090 A 
ATOM     22  C   LIG    1       -4.378   9.505   1.919  0.00  0.00    +0.000 A 
ATOM     23  C   LIG    1       -4.125   8.562   0.929  0.00  0.00    +0.200 A 
ATOM     24  C   LIG    1       -3.679   8.977  -0.319  0.00  0.00    -0.010 A 
ATOM     25  C   LIG    1       -3.498  10.319  -0.582  0.00  0.00    +0.040 A 
ATOM     26  O   LIG    1       -3.978  14.400   1.824  0.00  0.00    -0.510 OA
ATOM     27  C   LIG    1       -3.751  11.268   0.407  0.00  0.00    +0.090 A 
ENDBRANCH  15  23
ENDBRANCH   1  15
TORSDOF 3
