REMARK  Name = ZINCnE000001O2Gu.0
REMARK                            x       y       z     vdW  Elec       q    Type
REMARK                         _______ _______ _______ _____ _____    ______ ____
ROOT
ATOM      1  C   LIG    1       -3.189  -5.128  -0.059  0.00  0.00    +0.050 C 
ATOM      2  C   LIG    1       -4.652  -4.684  -0.112  0.00  0.00    +0.210 C 
ATOM      3  C   LIG    1       -5.470  -5.489   0.903  0.00  0.00    +0.000 C 
ATOM      4  C   LIG    1       -6.901  -4.946   0.945  0.00  0.00    +0.030 C 
ATOM      5  C   LIG    1       -6.880  -3.483   1.392  0.00  0.00    -0.110 C 
ATOM      6  C   LIG    1       -6.079  -2.657   0.387  0.00  0.00    +0.270 C 
ATOM      7  N   LIG    1       -4.747  -3.258   0.228  0.00  0.00    -0.600 N 
ATOM      8  C   LIG    1       -3.635  -2.517   0.396  0.00  0.00    +0.520 C 
ATOM      9  O   LIG    1       -2.543  -3.044   0.357  0.00  0.00    -0.550 OA
ENDROOT
BRANCH   5  10
ATOM     10  C   LIG    1       -8.292  -2.959   1.463  0.00  0.00    +0.500 C 
ATOM     11  O   LIG    1       -9.102  -3.271   0.607  0.00  0.00    -0.690 OA
ATOM     12  O   LIG    1       -8.623  -2.223   2.377  0.00  0.00    -0.700 OA
ENDBRANCH   5  10
BRANCH   8  13
ATOM     13  C   LIG    1       -3.746  -1.032   0.631  0.00  0.00    +0.070 C 
BRANCH  13  14
ATOM     14  C   LIG    1       -2.347  -0.434   0.788  0.00  0.00    +0.230 C 
BRANCH  14  15
ATOM     15  O   LIG    1       -2.453   0.974   1.012  0.00  0.00    -0.300 OA
BRANCH  15  16
ATOM     16  C   LIG    1       -1.292   1.662   1.173  0.00  0.00    +0.150 A 
ATOM     17  C   LIG    1       -0.077   0.997   1.117  0.00  0.00    -0.040 A 
ATOM     18  C   LIG    1        1.103   1.699   1.276  0.00  0.00    +0.080 A 
ATOM     19  C   LIG    1        1.072   3.065   1.496  0.00  0.00    -0.070 A 
ATOM     20  C   LIG    1       -0.140   3.730   1.558  0.00  0.00    +0.090 A 
ATOM     21 CL   LIG    1        2.555   3.944   1.694  0.00  0.00    -0.060 Cl
ATOM     22  C   LIG    1       -1.322   3.032   1.400  0.00  0.00    -0.060 A 
ATOM     23 CL   LIG    1       -2.842   3.867   1.477  0.00  0.00    -0.040 Cl
ENDBRANCH  15  16
ENDBRANCH  14  15
ENDBRANCH  13  14
ENDBRANCH   8  13
TORSDOF 5
