REMARK  Name = ZINCvU0000000CxP.0
REMARK                            x       y       z     vdW  Elec       q    Type
REMARK                         _______ _______ _______ _____ _____    ______ ____
ROOT
ATOM      1  C   LIG    1       -1.915   5.103  -1.039  0.00  0.00    +0.010 A 
ATOM      2  N   LIG    1       -2.945   4.660  -1.690  0.00  0.00    -0.260 NA
ATOM      3  N   LIG    1       -4.123   5.343  -1.476  0.00  0.00    -0.330 NA
ATOM      4  C   LIG    1       -4.049   6.346  -0.658  0.00  0.00    +0.300 A 
ATOM      5  S   LIG    1       -2.396   6.493  -0.072  0.00  0.00    +0.100 S 
ENDROOT
BRANCH   4   6
ATOM      6  N   LIG    1       -5.107   7.173  -0.301  0.00  0.00    -0.620 N 
ATOM      7  H   LIG    1       -4.946   7.960   0.243  0.00  0.00    +0.430 HD
BRANCH   6   8
ATOM      8  C   LIG    1       -6.406   6.871  -0.726  0.00  0.00    +0.160 A 
ATOM      9  C   LIG    1       -7.318   7.894  -0.952  0.00  0.00    +0.010 A 
ATOM     10  C   LIG    1       -8.598   7.595  -1.376  0.00  0.00    +0.040 A 
ATOM     11  C   LIG    1       -8.976   6.274  -1.567  0.00  0.00    +0.070 A 
ATOM     12  C   LIG    1       -8.066   5.252  -1.337  0.00  0.00    +0.050 A 
ATOM     13  C   LIG    1       -6.785   5.548  -0.917  0.00  0.00    +0.030 A 
BRANCH  11  14
ATOM     14  O   LIG    1      -10.238   5.980  -1.979  0.00  0.00    -0.260 OA
BRANCH  14  15
ATOM     15  C   LIG    1      -10.533   6.144  -3.295  0.00  0.00    +0.120 A 
ATOM     16  C   LIG    1       -9.537   6.505  -4.191  0.00  0.00    -0.060 A 
ATOM     17  C   LIG    1       -9.839   6.666  -5.529  0.00  0.00    +0.050 A 
ATOM     18  C   LIG    1      -11.135   6.479  -5.974  0.00  0.00    -0.020 A 
ATOM     19  C   LIG    1      -12.130   6.125  -5.082  0.00  0.00    +0.050 A 
ATOM     20  C   LIG    1      -11.833   5.957  -3.744  0.00  0.00    -0.020 A 
ENDBRANCH  14  15
ENDBRANCH  11  14
ENDBRANCH   6   8
ENDBRANCH   4   6
BRANCH   1  21
ATOM     21  S   LIG    1       -0.290   4.426  -1.116  0.00  0.00    +0.070 S 
BRANCH  21  22
ATOM     22  C   LIG    1       -0.480   3.040  -2.271  0.00  0.00    +0.110 C 
BRANCH  22  31
ATOM     23  C   LIG    1        3.416   1.756  -2.967  0.00  0.00    +0.060 C 
ATOM     24  C   LIG    1        2.388   1.153  -3.926  0.00  0.00    +0.230 C 
ATOM     25  C   LIG    1        2.529  -0.372  -3.942  0.00  0.00    +0.020 C 
ATOM     26  C   LIG    1        1.411  -0.975  -4.796  0.00  0.00    +0.020 C 
ATOM     27  C   LIG    1        0.053  -0.621  -4.185  0.00  0.00    +0.020 C 
ATOM     28  C   LIG    1       -0.116   0.897  -4.168  0.00  0.00    +0.220 C 
ATOM     29  C   LIG    1       -1.406   1.259  -3.430  0.00  0.00    +0.040 C 
ATOM     30  N   LIG    1        1.033   1.498  -3.477  0.00  0.00    -0.610 N 
ATOM     31  C   LIG    1        0.846   2.346  -2.446  0.00  0.00    +0.540 C 
ATOM     32  O   LIG    1        1.748   2.555  -1.661  0.00  0.00    -0.510 OA
ENDBRANCH  22  31
ENDBRANCH  21  22
ENDBRANCH   1  21
TORSDOF 7
