REMARK  Name = ZINCvU00000004Tv.0
REMARK                            x       y       z     vdW  Elec       q    Type
REMARK                         _______ _______ _______ _____ _____    ______ ____
ROOT
ATOM      1  C   LIG    1       -7.071   6.993  -0.680  0.00  0.00    +0.070 C 
ATOM      2  C   LIG    1       -6.280   7.544   0.507  0.00  0.00    +0.180 C 
ENDROOT
BRANCH   2   3
ATOM      3  C   LIG    1       -7.207   8.306   1.418  0.00  0.00    +0.520 C 
ATOM      4  N   LIG    1       -8.196   7.660   2.067  0.00  0.00    -0.660 N 
ATOM      5  H   LIG    1       -8.260   6.694   2.014  0.00  0.00    +0.420 HD
ATOM      6  O   LIG    1       -7.063   9.501   1.568  0.00  0.00    -0.470 OA
BRANCH   4   7
ATOM      7  C   LIG    1       -9.129   8.383   2.819  0.00  0.00    +0.220 A 
ATOM      8  C   LIG    1       -9.341   9.729   2.556  0.00  0.00    +0.050 A 
ATOM      9  C   LIG    1      -10.267  10.439   3.296  0.00  0.00    +0.150 A 
ATOM     10  C   LIG    1      -10.974   9.813   4.305  0.00  0.00    -0.060 A 
ATOM     11  C   LIG    1      -10.762   8.474   4.575  0.00  0.00    +0.150 A 
ATOM     12  C   LIG    1       -9.841   7.756   3.835  0.00  0.00    -0.080 A 
ATOM     13 CL   LIG    1       -9.574   6.075   4.174  0.00  0.00    -0.030 Cl
BRANCH  10  14
ATOM     14  N   LIG    1      -11.961  10.579   5.100  0.00  0.00    +0.030 N 
ATOM     15  O   LIG    1      -12.149  11.759   4.864  0.00  0.00    -0.150 OA
ATOM     16  O   LIG    1      -12.584  10.029   5.990  0.00  0.00    -0.150 OA
ENDBRANCH  10  14
ENDBRANCH   4   7
ENDBRANCH   2   3
BRANCH   2  17
ATOM     17  O   LIG    1       -5.254   8.418   0.032  0.00  0.00    -0.280 OA
BRANCH  17  18
ATOM     18  C   LIG    1       -4.096   7.843  -0.378  0.00  0.00    +0.160 A 
ATOM     19  C   LIG    1       -3.996   6.458  -0.447  0.00  0.00    -0.080 A 
ATOM     20  C   LIG    1       -2.822   5.870  -0.863  0.00  0.00    +0.130 A 
ATOM     21  C   LIG    1       -1.730   6.668  -1.215  0.00  0.00    -0.200 A 
ATOM     22  C   LIG    1       -1.832   8.061  -1.139  0.00  0.00    +0.110 A 
ATOM     23  C   LIG    1       -3.011   8.640  -0.728  0.00  0.00    -0.020 A 
BRANCH  21  24
ATOM     24  C   LIG    1       -0.470   6.043  -1.661  0.00  0.00    +0.440 C 
ATOM     25  O   LIG    1       -0.324   4.839  -1.572  0.00  0.00    -0.450 OA
BRANCH  24  26
ATOM     26  C   LIG    1        0.614   6.879  -2.215  0.00  0.00    -0.170 A 
ATOM     27  C   LIG    1        0.308   7.995  -2.998  0.00  0.00    +0.090 A 
ATOM     28  C   LIG    1        1.323   8.772  -3.512  0.00  0.00    -0.010 A 
ATOM     29  C   LIG    1        2.647   8.447  -3.255  0.00  0.00    +0.130 A 
ATOM     30  C   LIG    1        2.956   7.338  -2.483  0.00  0.00    -0.020 A 
ATOM     31  F   LIG    1        3.638   9.212  -3.762  0.00  0.00    -0.130 F 
ATOM     32  C   LIG    1        1.949   6.557  -1.959  0.00  0.00    +0.100 A 
ENDBRANCH  24  26
ENDBRANCH  21  24
ENDBRANCH  17  18
ENDBRANCH   2  17
TORSDOF 7
