REMARK  Name = ZINCnE000007KQDI.0
REMARK                            x       y       z     vdW  Elec       q    Type
REMARK                         _______ _______ _______ _____ _____    ______ ____
ROOT
ATOM      1  C   LIG    1       -1.392   1.970   0.012  0.00  0.00    +0.540 C 
ATOM      2  N   LIG    1       -0.142   1.464   0.039  0.00  0.00    -0.720 N 
ATOM      3  H   LIG    1        0.622   2.061   0.059  0.00  0.00    +0.390 HD
ATOM      4  O   LIG    1       -2.348   1.226   0.071  0.00  0.00    -0.530 OA
ENDROOT
BRANCH   1   7
ATOM      5  C   LIG    1       -3.042   3.970  -0.113  0.00  0.00    +0.090 C 
ATOM      6  C   LIG    1       -2.176   4.177   1.132  0.00  0.00    +0.070 C 
ATOM      7  C   LIG    1       -1.600   3.459  -0.090  0.00  0.00    -0.050 C 
BRANCH   5  12
ATOM      8  C   LIG    1       -3.461   8.814  -2.629  0.00  0.00    +0.140 C 
ATOM      9  C   LIG    1       -3.530   7.399  -2.116  0.00  0.00    -0.190 A 
ATOM     10  C   LIG    1       -4.305   6.436  -2.617  0.00  0.00    +0.000 A 
ATOM     11  C   LIG    1       -4.199   5.211  -1.981  0.00  0.00    +0.010 A 
ATOM     12  C   LIG    1       -3.337   5.179  -0.964  0.00  0.00    -0.140 A 
ATOM     13  S   LIG    1       -2.604   6.765  -0.761  0.00  0.00    +0.100 S 
ENDBRANCH   5  12
ENDBRANCH   1   7
BRANCH   2  14
ATOM     14  C   LIG    1        0.061   0.013   0.031  0.00  0.00    +0.300 C 
BRANCH  14  15
ATOM     15  C   LIG    1        1.379  -0.305  -0.626  0.00  0.00    -0.070 A 
ATOM     16  C   LIG    1        2.482   0.492  -0.385  0.00  0.00    -0.010 A 
ATOM     17  C   LIG    1        3.693   0.196  -0.983  0.00  0.00    -0.020 A 
ATOM     18  C   LIG    1        3.797  -0.890  -1.832  0.00  0.00    -0.020 A 
ATOM     19  C   LIG    1        2.693  -1.684  -2.077  0.00  0.00    -0.010 A 
ATOM     20  C   LIG    1        1.484  -1.392  -1.474  0.00  0.00    +0.080 A 
ENDBRANCH  14  15
BRANCH  14  21
ATOM     21  C   LIG    1        0.068  -0.508   1.469  0.00  0.00    -0.060 C 
BRANCH  21  22
ATOM     22  C   LIG    1        0.110  -2.015   1.457  0.00  0.00    +0.500 C 
ATOM     23  O   LIG    1        0.242  -2.630   2.501  0.00  0.00    -0.700 OA
ATOM     24  O   LIG    1        0.011  -2.619   0.402  0.00  0.00    -0.690 OA
ENDBRANCH  21  22
ENDBRANCH  14  21
ENDBRANCH   2  14
TORSDOF 6
