REMARK  Name = ZINCpk00000e9PCs.0
REMARK                            x       y       z     vdW  Elec       q    Type
REMARK                         _______ _______ _______ _____ _____    ______ ____
ROOT
ATOM      1  C   LIG    1       -1.194   3.623   0.285  0.00  0.00    +0.010 C 
ATOM      2  C   LIG    1       -0.366   4.155   1.458  0.00  0.00    +0.040 C 
ATOM      3  C   LIG    1       -0.415   5.686   1.454  0.00  0.00    +0.050 C 
ATOM      4  C   LIG    1       -1.873   6.145   1.538  0.00  0.00    +0.190 C 
ATOM      5  N   LIG    1       -2.622   5.611   0.394  0.00  0.00    -0.510 N 
ATOM      6  C   LIG    1       -2.629   4.142   0.403  0.00  0.00    +0.220 C 
ENDROOT
BRANCH   1  13
ATOM      7  C   LIG    1        1.783  -0.655  -3.274  0.00  0.00    +0.190 C 
ATOM      8  N   LIG    1        1.384   0.004  -2.023  0.00  0.00    -0.540 NA
ATOM      9  C   LIG    1        1.179   1.444  -2.228  0.00  0.00    +0.170 C 
ATOM     10  C   LIG    1        0.944   2.122  -0.874  0.00  0.00    +0.280 C 
ATOM     11  N   LIG    1       -0.157   1.428  -0.190  0.00  0.00    -0.610 N 
ATOM     12  C   LIG    1       -0.088  -0.036  -0.067  0.00  0.00    +0.300 C 
ATOM     13  C   LIG    1       -1.200   2.117   0.316  0.00  0.00    +0.520 C 
ATOM     14  O   LIG    1       -2.143   1.523   0.796  0.00  0.00    -0.540 OA
ATOM     15  C   LIG    1        0.187  -0.628  -1.453  0.00  0.00    +0.170 C 
ENDBRANCH   1  13
BRANCH   5  16
ATOM     16  C   LIG    1       -3.912   6.112   0.368  0.00  0.00    +0.180 A 
ATOM     17  C   LIG    1       -4.355   6.867  -0.730  0.00  0.00    -0.000 A 
ATOM     18  C   LIG    1       -5.660   7.363  -0.747  0.00  0.00    +0.110 A 
ATOM     19  C   LIG    1       -6.510   7.124   0.315  0.00  0.00    +0.030 A 
ATOM     20  C   LIG    1       -6.084   6.388   1.402  0.00  0.00    +0.110 A 
ATOM     21  C   LIG    1       -4.785   5.876   1.441  0.00  0.00    -0.060 A 
BRANCH  17  22
ATOM     22  C   LIG    1       -3.474   7.122  -1.830  0.00  0.00    +0.260 C 
ATOM     23  N   LIG    1       -2.775   7.324  -2.702  0.00  0.00    -0.400 NA
ENDBRANCH  17  22
BRANCH  21  24
ATOM     24  C   LIG    1       -4.346   5.114   2.571  0.00  0.00    +0.240 C 
ATOM     25  N   LIG    1       -3.997   4.510   3.467  0.00  0.00    -0.390 NA
ENDBRANCH  21  24
ENDBRANCH   5  16
TORSDOF 4
