REMARK  Name = ZINCpk00000xI6qW.0
REMARK                            x       y       z     vdW  Elec       q    Type
REMARK                         _______ _______ _______ _____ _____    ______ ____
ROOT
ATOM      1  O   LIG    1        0.131   7.866   0.039  0.00  0.00    -0.320 OA
ENDROOT
BRANCH   1   2
ATOM      2  C   LIG    1       -0.771   8.866   0.052  0.00  0.00    +0.550 C 
ATOM      3  O   LIG    1       -1.959   8.613   0.062  0.00  0.00    -0.490 OA
BRANCH   2   6
ATOM      4  N   LIG    1        1.416  11.748   0.045  0.00  0.00    -0.330 N 
ATOM      5  N   LIG    1        0.971  10.544   0.048  0.00  0.00    -0.140 NA
ATOM      6  C   LIG    1       -0.316  10.272   0.054  0.00  0.00    +0.020 A 
ATOM      7  C   LIG    1       -1.266  11.322   0.068  0.00  0.00    +0.140 A 
ATOM      8  C   LIG    1       -0.808  12.606   0.070  0.00  0.00    +0.000 A 
ATOM      9  C   LIG    1        0.590  12.810   0.058  0.00  0.00    +0.480 A 
ATOM     10  O   LIG    1        1.045  13.942   0.059  0.00  0.00    -0.510 OA
BRANCH   4  11
ATOM     11  C   LIG    1        2.864  11.971   0.032  0.00  0.00    +0.320 C 
BRANCH  11  13
ATOM     12  C   LIG    1        4.894  12.276   1.457  0.00  0.00    +0.030 C 
ATOM     13  C   LIG    1        3.382  12.042   1.470  0.00  0.00    +0.000 C 
ENDBRANCH  11  13
ENDBRANCH   4  11
ENDBRANCH   2   6
ENDBRANCH   1   2
BRANCH   1  14
ATOM     14  C   LIG    1       -0.389   6.510   0.038  0.00  0.00    +0.240 C 
BRANCH  14  15
ATOM     15  C   LIG    1        0.758   5.532   0.022  0.00  0.00    +0.400 C 
ATOM     16  O   LIG    1        1.901   5.939   0.013  0.00  0.00    -0.420 OA
BRANCH  15  17
ATOM     17  C   LIG    1        0.492   4.088   0.018  0.00  0.00    -0.160 A 
ATOM     18  C   LIG    1       -0.826   3.617   0.028  0.00  0.00    +0.090 A 
ATOM     19  C   LIG    1       -1.072   2.262   0.019  0.00  0.00    +0.040 A 
ATOM     20  C   LIG    1       -0.016   1.359   0.009  0.00  0.00    +0.070 A 
ATOM     21  O   LIG    1        0.002  -0.004   0.002  0.00  0.00    -0.300 OA
ATOM     22  C   LIG    1        1.335  -0.374   0.401  0.00  0.00    +0.440 C 
ATOM     23  O   LIG    1        2.140   0.745  -0.014  0.00  0.00    -0.300 OA
ATOM     24  C   LIG    1        1.301   1.822  -0.001  0.00  0.00    +0.020 A 
ATOM     25  C   LIG    1        1.557   3.178   0.004  0.00  0.00    +0.110 A 
ENDBRANCH  15  17
ENDBRANCH  14  15
ENDBRANCH   1  14
TORSDOF 7
