REMARK  Name = ZINCrD00000F5LqS.0
REMARK                            x       y       z     vdW  Elec       q    Type
REMARK                         _______ _______ _______ _____ _____    ______ ____
ROOT
ATOM      1  C   LIG    1        2.384   7.387  -1.099  0.00  0.00    +0.040 C 
ATOM      2  C   LIG    1        2.189   6.479   0.117  0.00  0.00    +0.250 C 
ENDROOT
BRANCH   2   3
ATOM      3  C   LIG    1        2.358   7.299   1.398  0.00  0.00    -0.010 C 
ATOM      4  C   LIG    1        3.745   7.995   1.433  0.00  0.00    +0.070 C 
ATOM      5  C   LIG    1        3.491   9.225   2.330  0.00  0.00    +0.240 C 
ATOM      6  N   LIG    1        2.046   9.497   2.299  0.00  0.00    -0.610 N 
ATOM      7  C   LIG    1        1.418  10.482   2.971  0.00  0.00    +0.610 C 
ATOM      8  O   LIG    1        0.212  10.615   2.869  0.00  0.00    -0.510 OA
ATOM      9  C   LIG    1        1.399   8.515   1.410  0.00  0.00    +0.290 C 
BRANCH   7  10
ATOM     10  C   LIG    1        2.186  11.393   3.823  0.00  0.00    -0.250 A 
ATOM     11  C   LIG    1        1.665  12.429   4.547  0.00  0.00    +0.130 A 
ATOM     12  C   LIG    1        2.612  13.120   5.264  0.00  0.00    -0.050 A 
ATOM     13  C   LIG    1        3.869  12.674   5.125  0.00  0.00    -0.180 A 
ATOM     14 CL   LIG    1        5.253  13.367   5.911  0.00  0.00    +0.020 Cl
ATOM     15 CL   LIG    1        2.212  14.477   6.271  0.00  0.00    -0.020 Cl
ATOM     16  S   LIG    1        3.925  11.332   4.072  0.00  0.00    +0.300 S 
ENDBRANCH   7  10
ENDBRANCH   2   3
BRANCH   2  17
ATOM     17  N   LIG    1        0.844   5.900   0.082  0.00  0.00    -1.120 NA
ATOM     18  H   LIG    1        0.093   6.394   0.447  0.00  0.00    +0.420 HD
BRANCH  17  19
ATOM     19  S   LIG    1        0.605   4.401  -0.580  0.00  0.00    +2.610 S 
ATOM     20  O   LIG    1       -0.795   4.185  -0.462  0.00  0.00    -0.930 OA
ATOM     21  O   LIG    1        1.230   4.476  -1.853  0.00  0.00    -0.950 OA
BRANCH  19  22
ATOM     22  C   LIG    1        1.516   3.274   0.511  0.00  0.00    -0.350 C 
BRANCH  22  23
ATOM     23  C   LIG    1        1.370   1.839  -0.001  0.00  0.00    +0.170 C 
ATOM     24  C   LIG    1        2.073   0.852   0.957  0.00  0.00    +0.020 C 
ATOM     25  C   LIG    1        1.152  -0.389   0.959  0.00  0.00    +0.010 C 
ATOM     26  C   LIG    1        0.002  -0.004   0.002  0.00  0.00    +0.140 C 
ATOM     27  C   LIG    1       -1.329  -0.558   0.515  0.00  0.00    +0.060 C 
ATOM     28  O   LIG    1       -0.018   1.440   0.010  0.00  0.00    -0.360 OA
ENDBRANCH  22  23
ENDBRANCH  19  22
ENDBRANCH  17  19
ENDBRANCH   2  17
TORSDOF 6
