REMARK  Name = ZINCzw00000004cR.1
REMARK                            x       y       z     vdW  Elec       q    Type
REMARK                         _______ _______ _______ _____ _____    ______ ____
ROOT
ATOM      1  C   LIG    1       -9.616  -4.755  -7.665  0.00  0.00    +0.150 C 
ATOM      2  C   LIG    1       -8.225  -4.225  -7.426  0.00  0.00    -0.110 A 
ATOM      3  C   LIG    1       -7.747  -4.128  -6.165  0.00  0.00    +0.310 A 
ATOM      4  N   LIG    1       -6.493  -3.650  -5.929  0.00  0.00    -0.430 N 
ATOM      5  C   LIG    1       -6.054  -3.551  -4.654  0.00  0.00    +0.560 A 
ATOM      6  C   LIG    1       -4.751  -3.041  -4.424  0.00  0.00    -0.350 A 
ATOM      7  C   LIG    1       -3.954  -2.698  -5.542  0.00  0.00    +0.500 A 
ATOM      8  N   LIG    1       -2.666  -2.247  -5.342  0.00  0.00    -0.500 N 
ATOM      9  C   LIG    1       -2.385  -1.639  -4.125  0.00  0.00    +0.590 C 
ATOM     10  C   LIG    1       -3.069  -2.177  -2.930  0.00  0.00    -0.290 C 
ATOM     11  N   LIG    1       -4.451  -2.817  -6.762  0.00  0.00    -0.560 NA
ATOM     12  C   LIG    1       -4.263  -2.867  -3.121  0.00  0.00    +0.330 C 
ATOM     13  O   LIG    1       -6.762  -3.893  -3.724  0.00  0.00    -0.460 OA
ATOM     14  C   LIG    1       -5.689  -3.271  -6.968  0.00  0.00    +0.440 A 
ATOM     15  C   LIG    1       -6.171  -3.360  -8.286  0.00  0.00    +0.040 A 
ATOM     16  C   LIG    1       -7.430  -3.834  -8.511  0.00  0.00    +0.190 A 
ENDROOT
BRANCH  10  17
ATOM     17  C   LIG    1       -2.505  -1.996  -1.588  0.00  0.00    +0.580 C 
ATOM     18  N   LIG    1       -3.199  -2.399  -0.505  0.00  0.00    -0.710 N 
ATOM     19  H   LIG    1       -4.106  -2.729  -0.605  0.00  0.00    +0.400 HD
ATOM     20  O   LIG    1       -1.411  -1.482  -1.452  0.00  0.00    -0.540 OA
BRANCH  18  21
ATOM     21  C   LIG    1       -2.584  -2.340   0.823  0.00  0.00    +0.340 C 
BRANCH  21  22
ATOM     22  C   LIG    1       -3.563  -2.844   1.853  0.00  0.00    -0.120 A 
ATOM     23  C   LIG    1       -3.592  -4.187   2.180  0.00  0.00    +0.020 A 
ATOM     24  C   LIG    1       -4.489  -4.649   3.125  0.00  0.00    +0.010 A 
ATOM     25  C   LIG    1       -5.359  -3.768   3.741  0.00  0.00    +0.030 A 
ATOM     26  C   LIG    1       -5.329  -2.425   3.414  0.00  0.00    +0.010 A 
ATOM     27  C   LIG    1       -4.431  -1.963   2.470  0.00  0.00    +0.020 A 
ENDBRANCH  21  22
ENDBRANCH  18  21
ENDBRANCH  10  17
BRANCH   9  28
ATOM     28  N   LIG    1       -1.550  -0.633  -4.039  0.00  0.00    -0.700 NA
ATOM     29  H   LIG    1       -1.052  -0.349  -4.822  0.00  0.00    +0.430 HD
ATOM     30  H   LIG    1       -1.430  -0.173  -3.194  0.00  0.00    +0.460 HD
ENDBRANCH   9  28
BRANCH   8  31
ATOM     31  C   LIG    1       -1.636  -2.403  -6.372  0.00  0.00    +0.330 C 
BRANCH  31  32
ATOM     32  C   LIG    1       -0.914  -3.737  -6.175  0.00  0.00    +0.010 C 
BRANCH  32  33
ATOM     33  C   LIG    1        0.162  -3.900  -7.250  0.00  0.00    +0.310 C 
BRANCH  33  34
ATOM     34  N   LIG    1        0.852  -5.178  -7.061  0.00  0.00    -0.470 N 
ATOM     35  C   LIG    1        0.502  -6.380  -7.614  0.00  0.00    +0.120 A 
ATOM     36  C   LIG    1        1.401  -7.285  -7.181  0.00  0.00    +0.150 A 
ATOM     37  N   LIG    1        2.275  -6.652  -6.384  0.00  0.00    -0.490 NA
ATOM     38  C   LIG    1        1.956  -5.389  -6.313  0.00  0.00    +0.380 A 
ENDBRANCH  33  34
ENDBRANCH  32  33
ENDBRANCH  31  32
ENDBRANCH   8  31
TORSDOF 8
