REMARK  Name = ZINCvU00000008Dd.0
REMARK                            x       y       z     vdW  Elec       q    Type
REMARK                         _______ _______ _______ _____ _____    ______ ____
ROOT
ATOM      1  O   LIG    1        0.964   5.922   0.024  0.00  0.00    -0.330 OA
ENDROOT
BRANCH   1   2
ATOM      2  C   LIG    1        1.522   4.695   0.013  0.00  0.00    +0.540 C 
ATOM      3  O   LIG    1        2.731   4.577   0.001  0.00  0.00    -0.520 OA
BRANCH   2   4
ATOM      4  C   LIG    1        0.666   3.498   0.014  0.00  0.00    -0.220 A 
ATOM      5  C   LIG    1        1.079   2.183   0.004  0.00  0.00    +0.130 A 
ATOM      6  N   LIG    1       -0.017   1.397   0.010  0.00  0.00    -0.390 N 
ATOM      7  C   LIG    1       -1.149   2.163   0.019  0.00  0.00    +0.010 A 
ATOM      8  C   LIG    1       -2.561   1.636   0.022  0.00  0.00    +0.130 C 
ATOM      9  C   LIG    1        2.509   1.706  -0.013  0.00  0.00    +0.150 C 
ATOM     10  C   LIG    1       -0.801   3.461   0.028  0.00  0.00    +0.030 A 
BRANCH   6  11
ATOM     11  C   LIG    1        0.002  -0.004   0.002  0.00  0.00    +0.110 A 
ATOM     12  C   LIG    1        0.504  -0.687  -1.098  0.00  0.00    +0.020 A 
ATOM     13  C   LIG    1        0.526  -2.068  -1.100  0.00  0.00    +0.020 A 
ATOM     14  C   LIG    1        0.039  -2.771  -0.013  0.00  0.00    +0.020 A 
ATOM     15  C   LIG    1       -0.466  -2.093   1.081  0.00  0.00    +0.020 A 
ATOM     16  C   LIG    1       -0.486  -0.712   1.092  0.00  0.00    +0.020 A 
ENDBRANCH   6  11
ENDBRANCH   2   4
ENDBRANCH   1   2
BRANCH   1  17
ATOM     17  C   LIG    1        1.869   7.057   0.022  0.00  0.00    +0.230 C 
BRANCH  17  18
ATOM     18  C   LIG    1        1.071   8.336   0.035  0.00  0.00    +0.430 C 
ATOM     19  O   LIG    1       -0.141   8.294   0.046  0.00  0.00    -0.450 OA
BRANCH  18  23
ATOM     20  C   LIG    1        4.711  11.901   0.020  0.00  0.00    +0.120 C 
ATOM     21  C   LIG    1        3.382  11.191   0.029  0.00  0.00    +0.010 A 
ATOM     22  C   LIG    1        3.211   9.859   0.024  0.00  0.00    +0.000 A 
ATOM     23  C   LIG    1        1.760   9.628   0.036  0.00  0.00    -0.270 A 
ATOM     24  C   LIG    1        1.178  10.882   0.042  0.00  0.00    +0.120 A 
ATOM     25  C   LIG    1       -0.301  11.170   0.050  0.00  0.00    +0.150 C 
ATOM     26  N   LIG    1        2.160  11.800   0.044  0.00  0.00    -0.430 N 
BRANCH  26  27
ATOM     27  C   LIG    1        1.949  13.250   0.053  0.00  0.00    +0.280 C 
BRANCH  27  28
ATOM     28  C   LIG    1        1.863  13.762  -1.386  0.00  0.00    +0.010 C 
BRANCH  28  29
ATOM     29  C   LIG    1        1.642  15.276  -1.376  0.00  0.00    -0.020 C 
ATOM     30  C   LIG    1        0.281  15.589  -0.753  0.00  0.00    +0.030 C 
ATOM     31  C   LIG    1        1.680  15.806  -2.811  0.00  0.00    +0.030 C 
ENDBRANCH  28  29
ENDBRANCH  27  28
ENDBRANCH  26  27
ENDBRANCH  18  23
ENDBRANCH  17  18
ENDBRANCH   1  17
TORSDOF 9
