REMARK  Name = ZINCvU0000000Gir.0
REMARK                            x       y       z     vdW  Elec       q    Type
REMARK                         _______ _______ _______ _____ _____    ______ ____
ROOT
ATOM      1  C   LIG    1       -2.443   2.041  -1.942  0.00  0.00    +0.260 C 
ATOM      2  C   LIG    1       -1.736   2.283  -0.591  0.00  0.00    +0.020 C 
ATOM      3  C   LIG    1       -0.408   2.974  -1.009  0.00  0.00    +0.040 C 
ATOM      4  C   LIG    1       -0.088   2.250  -2.341  0.00  0.00    +0.200 C 
ATOM      5  N   LIG    1       -1.402   2.043  -2.986  0.00  0.00    -0.460 N 
ENDROOT
BRANCH   1  12
ATOM      6  C   LIG    1       -1.099  -0.772  -1.376  0.00  0.00    +0.140 C 
ATOM      7  C   LIG    1       -2.557  -0.532  -1.674  0.00  0.00    +0.080 A 
ATOM      8  N   LIG    1       -3.487  -1.450  -1.743  0.00  0.00    -0.260 NA
ATOM      9  N   LIG    1       -4.703  -0.820  -2.039  0.00  0.00    -0.350 N 
ATOM     10  C   LIG    1       -4.471   0.506  -2.140  0.00  0.00    +0.170 A 
ATOM     11 CL   LIG    1       -5.652   1.729  -2.489  0.00  0.00    -0.000 Cl
ATOM     12  C   LIG    1       -3.149   0.710  -1.923  0.00  0.00    -0.210 A 
BRANCH   9  13
ATOM     13  C   LIG    1       -5.999  -1.483  -2.204  0.00  0.00    +0.320 C 
BRANCH  13  14
ATOM     14  C   LIG    1       -6.647  -1.686  -0.833  0.00  0.00    -0.030 C 
ATOM     15  C   LIG    1       -7.933  -2.499  -0.992  0.00  0.00    +0.040 C 
ATOM     16  C   LIG    1       -6.977  -0.324  -0.219  0.00  0.00    +0.020 C 
ENDBRANCH  13  14
ENDBRANCH   9  13
ENDBRANCH   1  12
BRANCH   5  17
ATOM     17  C   LIG    1       -1.420   0.856  -3.709  0.00  0.00    +0.350 A 
ATOM     18  C   LIG    1       -0.231   0.176  -3.946  0.00  0.00    -0.070 A 
ATOM     19  C   LIG    1       -0.260  -1.008  -4.663  0.00  0.00    +0.110 A 
ATOM     20  C   LIG    1       -1.480  -1.470  -5.130  0.00  0.00    -0.060 A 
ATOM     21  C   LIG    1       -2.631  -0.740  -4.863  0.00  0.00    +0.360 A 
ATOM     22  N   LIG    1       -2.570   0.387  -4.170  0.00  0.00    -0.480 NA
BRANCH  21  23
ATOM     23  N   LIG    1       -3.864  -1.199  -5.330  0.00  0.00    -0.430 N 
ATOM     24  C   LIG    1       -4.812  -0.458  -5.971  0.00  0.00    +0.500 A 
ATOM     25  N   LIG    1       -5.838  -1.203  -6.265  0.00  0.00    -0.490 NA
ATOM     26  C   LIG    1       -5.620  -2.472  -5.833  0.00  0.00    +0.050 A 
ATOM     27  C   LIG    1       -6.372  -3.648  -5.885  0.00  0.00    +0.060 A 
ATOM     28  C   LIG    1       -5.866  -4.808  -5.344  0.00  0.00    +0.010 A 
ATOM     29  C   LIG    1       -4.614  -4.819  -4.747  0.00  0.00    +0.030 A 
ATOM     30  C   LIG    1       -3.858  -3.667  -4.687  0.00  0.00    +0.020 A 
ATOM     31  C   LIG    1       -4.350  -2.490  -5.232  0.00  0.00    +0.060 A 
ENDBRANCH  21  23
ENDBRANCH   5  17
TORSDOF 5
