REMARK  Name = ZINCrD000000fB6Y.0
REMARK                            x       y       z     vdW  Elec       q    Type
REMARK                         _______ _______ _______ _____ _____    ______ ____
ROOT
ATOM      1  S   LIG    1       -1.583   1.726  -0.020  0.00  0.00    +2.700 S 
ATOM      2  O   LIG    1       -1.229   2.662   0.988  0.00  0.00    -0.950 OA
ATOM      3  O   LIG    1       -2.738   0.901   0.056  0.00  0.00    -0.960 OA
ENDROOT
BRANCH   1  12
ATOM      4  C   LIG    1       -1.615   6.840  -6.412  0.00  0.00    +0.120 C 
ATOM      5  C   LIG    1       -1.628   6.094  -5.103  0.00  0.00    +0.510 C 
ATOM      6  N   LIG    1       -2.047   4.814  -5.060  0.00  0.00    -0.560 N 
ATOM      7  C   LIG    1       -2.620   4.176  -6.253  0.00  0.00    +0.280 C 
ATOM      8  C   LIG    1       -3.874   3.407  -5.818  0.00  0.00    +0.030 C 
ATOM      9  C   LIG    1       -3.464   2.302  -4.846  0.00  0.00    +0.090 C 
ATOM     10  C   LIG    1       -2.613   2.863  -3.737  0.00  0.00    -0.140 A 
ATOM     11  C   LIG    1       -2.498   2.152  -2.555  0.00  0.00    +0.150 A 
ATOM     12  C   LIG    1       -1.721   2.638  -1.521  0.00  0.00    -0.700 A 
ATOM     13  C   LIG    1       -1.056   3.843  -1.659  0.00  0.00    +0.130 A 
ATOM     14  C   LIG    1       -1.162   4.556  -2.837  0.00  0.00    +0.000 A 
ATOM     15  C   LIG    1       -1.944   4.069  -3.877  0.00  0.00    +0.210 A 
ATOM     16  O   LIG    1       -1.261   6.646  -4.087  0.00  0.00    -0.510 OA
ENDBRANCH   1  12
BRANCH   1  17
ATOM     17  N   LIG    1       -0.290   0.704  -0.185  0.00  0.00    -1.110 NA
ATOM     18  H   LIG    1       -0.428  -0.256  -0.189  0.00  0.00    +0.420 HD
BRANCH  17  19
ATOM     19  C   LIG    1        1.061   1.251  -0.329  0.00  0.00    +0.300 C 
ATOM     20  C   LIG    1        1.743   1.295   1.040  0.00  0.00    +0.050 C 
BRANCH  19  21
ATOM     21  C   LIG    1        1.860   0.377  -1.261  0.00  0.00    -0.070 A 
ATOM     22  C   LIG    1        1.740  -0.998  -1.190  0.00  0.00    +0.050 A 
ATOM     23  C   LIG    1        2.468  -1.802  -2.047  0.00  0.00    +0.030 A 
ATOM     24  C   LIG    1        3.326  -1.231  -2.970  0.00  0.00    +0.070 A 
ATOM     25  C   LIG    1        3.451   0.148  -3.038  0.00  0.00    +0.070 A 
ATOM     26  F   LIG    1        4.288   0.709  -3.938  0.00  0.00    -0.130 F 
ATOM     27  F   LIG    1        4.041  -2.017  -3.805  0.00  0.00    -0.130 F 
ATOM     28  C   LIG    1        2.717   0.951  -2.182  0.00  0.00    +0.030 A 
ENDBRANCH  19  21
ENDBRANCH  17  19
ENDBRANCH   1  17
TORSDOF 4
