REMARK  Name = ZINCvU0000000A8Y.0
REMARK                            x       y       z     vdW  Elec       q    Type
REMARK                         _______ _______ _______ _____ _____    ______ ____
ROOT
ATOM      1  N   LIG    1        8.845   1.660  -0.645  0.00  0.00    -0.510 N 
ATOM      2  C   LIG    1        9.905   0.836  -0.747  0.00  0.00    +0.560 A 
ATOM      3  C   LIG    1        9.688  -0.573  -0.732  0.00  0.00    -0.230 A 
ATOM      4  C   LIG    1        8.380  -1.032  -0.607  0.00  0.00    +0.090 A 
ATOM      5  S   LIG    1        8.361  -2.790  -0.613  0.00  0.00    +0.210 S 
ATOM      6  C   LIG    1       10.103  -2.881  -0.783  0.00  0.00    -0.040 A 
ATOM      7  N   LIG    1        7.370  -0.145  -0.504  0.00  0.00    -0.520 NA
ATOM      8  C   LIG    1       10.647  -1.667  -0.831  0.00  0.00    +0.010 A 
ATOM      9  O   LIG    1       11.033   1.287  -0.855  0.00  0.00    -0.500 OA
ATOM     10  C   LIG    1        7.586   1.149  -0.519  0.00  0.00    +0.360 A 
ENDROOT
BRANCH   8  11
ATOM     11  C   LIG    1       12.105  -1.445  -0.972  0.00  0.00    -0.030 A 
ATOM     12  C   LIG    1       12.590  -0.574  -1.947  0.00  0.00    +0.080 A 
ATOM     13  C   LIG    1       13.948  -0.367  -2.070  0.00  0.00    +0.020 A 
ATOM     14  C   LIG    1       14.831  -1.032  -1.235  0.00  0.00    -0.030 A 
ATOM     15  C   LIG    1       14.355  -1.902  -0.269  0.00  0.00    +0.020 A 
ATOM     16 CL   LIG    1       16.539  -0.772  -1.400  0.00  0.00    -0.070 Cl
ATOM     17  C   LIG    1       12.998  -2.112  -0.134  0.00  0.00    +0.040 A 
ENDBRANCH   8  11
BRANCH   1  19
ATOM     18  C   LIG    1        9.258   3.615   0.765  0.00  0.00    +0.050 C 
ATOM     19  C   LIG    1        9.045   3.111  -0.663  0.00  0.00    +0.290 C 
ENDBRANCH   1  19
BRANCH  10  20
ATOM     20  S   LIG    1        6.219   2.251  -0.381  0.00  0.00    +0.100 S 
BRANCH  20  21
ATOM     21  C   LIG    1        4.864   1.058  -0.255  0.00  0.00    +0.120 C 
BRANCH  21  22
ATOM     22  C   LIG    1        3.556   1.795  -0.124  0.00  0.00    +0.530 C 
ATOM     23  N   LIG    1        2.402   1.106  -0.015  0.00  0.00    -0.660 N 
ATOM     24  H   LIG    1        2.419   0.139   0.046  0.00  0.00    +0.420 HD
ATOM     25  O   LIG    1        3.541   3.008  -0.118  0.00  0.00    -0.500 OA
BRANCH  23  26
ATOM     26  C   LIG    1        1.181   1.788   0.008  0.00  0.00    +0.130 A 
ATOM     27  C   LIG    1        0.059   1.225  -0.586  0.00  0.00    -0.010 A 
ATOM     28  C   LIG    1       -1.145   1.903  -0.566  0.00  0.00    +0.030 A 
ATOM     29  C   LIG    1       -1.235   3.136   0.054  0.00  0.00    -0.090 A 
ATOM     30  C   LIG    1       -0.120   3.698   0.647  0.00  0.00    +0.030 A 
ATOM     31  C   LIG    1       -2.551   3.870   0.079  0.00  0.00    +0.090 C 
ATOM     32  C   LIG    1        1.087   3.028   0.626  0.00  0.00    +0.030 A 
ENDBRANCH  23  26
ENDBRANCH  21  22
ENDBRANCH  20  21
ENDBRANCH  10  20
TORSDOF 6
