REMARK  Name = ZINCrD000000CslE.0
REMARK                            x       y       z     vdW  Elec       q    Type
REMARK                         _______ _______ _______ _____ _____    ______ ____
ROOT
ATOM      1  C   LIG    1       -4.830   4.170   0.515  0.00  0.00    +0.050 C 
ATOM      2  C   LIG    1       -4.034   5.445   0.151  0.00  0.00    +0.110 C 
ATOM      3  C   LIG    1       -2.588   5.004   0.204  0.00  0.00    +0.520 C 
ATOM      4  N   LIG    1       -2.511   3.663   0.175  0.00  0.00    -0.560 N 
ATOM      5  O   LIG    1       -1.635   5.753   0.263  0.00  0.00    -0.490 OA
ATOM      6  C   LIG    1       -3.845   3.054   0.101  0.00  0.00    +0.320 C 
ENDROOT
BRANCH   4   7
ATOM      7  C   LIG    1       -1.313   2.938   0.215  0.00  0.00    +0.170 A 
ATOM      8  C   LIG    1       -1.342   1.552   0.300  0.00  0.00    -0.010 A 
ATOM      9  C   LIG    1       -0.161   0.838   0.346  0.00  0.00    +0.060 A 
ATOM     10  C   LIG    1        1.057   1.500   0.297  0.00  0.00    +0.030 A 
ATOM     11  O   LIG    1        2.211   0.778   0.343  0.00  0.00    -0.310 OA
ATOM     12  C   LIG    1        3.404   1.445  -0.083  0.00  0.00    +0.220 C 
ATOM     13  C   LIG    1        3.438   2.833   0.571  0.00  0.00    +0.220 C 
ATOM     14  O   LIG    1        2.274   3.554   0.152  0.00  0.00    -0.300 OA
ATOM     15  C   LIG    1        1.089   2.887   0.205  0.00  0.00    +0.080 A 
ATOM     16  C   LIG    1       -0.097   3.604   0.166  0.00  0.00    +0.020 A 
ENDBRANCH   4   7
BRANCH   1  18
ATOM     17  O   LIG    1       -6.243   3.220  -1.114  0.00  0.00    -0.470 OA
ATOM     18  C   LIG    1       -6.106   4.086  -0.282  0.00  0.00    +0.470 C 
BRANCH  18  19
ATOM     19  O   LIG    1       -7.091   4.972  -0.068  0.00  0.00    -0.280 OA
BRANCH  19  20
ATOM     20  C   LIG    1       -8.255   4.776  -0.743  0.00  0.00    +0.060 A 
ATOM     21  C   LIG    1       -8.474   5.419  -1.952  0.00  0.00    +0.070 A 
ATOM     22  C   LIG    1       -9.655   5.215  -2.639  0.00  0.00    +0.060 A 
ATOM     23  C   LIG    1      -10.625   4.378  -2.117  0.00  0.00    -0.060 A 
ATOM     24  C   LIG    1      -10.414   3.739  -0.908  0.00  0.00    +0.050 A 
ATOM     25 BR   LIG    1      -12.243   4.107  -3.058  0.00  0.00    -0.020 Br
ATOM     26  C   LIG    1       -9.230   3.936  -0.220  0.00  0.00    +0.110 A 
ATOM     27  F   LIG    1       -9.023   3.312   0.960  0.00  0.00    -0.120 F 
ENDBRANCH  19  20
ENDBRANCH  18  19
ENDBRANCH   1  18
TORSDOF 4
