REMARK  Name = ZINCrH000004uA5n.0
REMARK                            x       y       z     vdW  Elec       q    Type
REMARK                         _______ _______ _______ _____ _____    ______ ____
ROOT
ATOM      1  O   LIG    1        5.794  -1.890  -1.278  0.00  0.00    -0.580 OA
ATOM      2  C   LIG    1        5.658  -0.703  -1.502  0.00  0.00    +0.710 C 
ATOM      3  N   LIG    1        4.647  -0.021  -0.929  0.00  0.00    -0.740 N 
ATOM      4  H   LIG    1        4.538   0.926  -1.108  0.00  0.00    +0.400 HD
ATOM      5  N   LIG    1        6.519  -0.069  -2.324  0.00  0.00    -0.740 N 
ATOM      6  H   LIG    1        6.410   0.878  -2.502  0.00  0.00    +0.390 HD
ENDROOT
BRANCH   3   7
ATOM      7  C   LIG    1        3.712  -0.710  -0.037  0.00  0.00    +0.350 C 
BRANCH   7   8
ATOM      8  C   LIG    1        2.397   0.027  -0.020  0.00  0.00    -0.050 A 
ATOM      9  C   LIG    1        2.381   1.409  -0.013  0.00  0.00    +0.010 A 
ATOM     10  C   LIG    1        1.173   2.087   0.002  0.00  0.00    +0.110 A 
ATOM     11  C   LIG    1       -0.017   1.379   0.010  0.00  0.00    +0.020 A 
ATOM     12  C   LIG    1        0.002  -0.004   0.002  0.00  0.00    -0.060 A 
ATOM     13 BR   LIG    1       -1.623  -0.972   0.013  0.00  0.00    -0.030 Br
ATOM     14  F   LIG    1        1.156   3.437   0.010  0.00  0.00    -0.130 F 
ATOM     15  C   LIG    1        1.209  -0.679  -0.013  0.00  0.00    +0.060 A 
ENDBRANCH   7   8
BRANCH   7  16
ATOM     16  C   LIG    1        4.292  -0.749   1.378  0.00  0.00    -0.060 C 
ATOM     17  C   LIG    1        5.558   0.067   1.645  0.00  0.00    +0.010 C 
ATOM     18  C   LIG    1        5.634  -1.459   1.572  0.00  0.00    +0.030 C 
ENDBRANCH   7  16
ENDBRANCH   3   7
BRANCH   5  19
ATOM     19  C   LIG    1        7.618  -0.811  -2.947  0.00  0.00    +0.370 C 
BRANCH  19  20
ATOM     20  C   LIG    1        8.427   0.122  -3.811  0.00  0.00    -0.240 A 
ATOM     21  C   LIG    1        9.543   0.727  -3.317  0.00  0.00    +0.170 A 
ATOM     22  C   LIG    1       10.287   1.589  -4.140  0.00  0.00    -0.210 A 
ATOM     23  C   LIG    1        9.884   1.820  -5.412  0.00  0.00    +0.150 A 
ATOM     24  N   LIG    1        8.764   1.217  -5.899  0.00  0.00    -0.600 N 
ATOM     25  H   LIG    1        8.487   1.392  -6.811  0.00  0.00    +0.410 HD
ATOM     26  C   LIG    1       10.837   2.781  -6.093  0.00  0.00    +0.100 C 
ATOM     27  C   LIG    1       11.627   3.445  -4.944  0.00  0.00    +0.050 C 
ATOM     28  C   LIG    1       11.548   2.370  -3.839  0.00  0.00    +0.090 C 
ATOM     29  C   LIG    1        8.036   0.383  -5.136  0.00  0.00    +0.530 A 
ATOM     30  O   LIG    1        7.036  -0.147  -5.593  0.00  0.00    -0.540 OA
ENDBRANCH  19  20
ENDBRANCH   5  19
TORSDOF 5
