REMARK  Name = ZINCqH0000004w09.0
REMARK                            x       y       z     vdW  Elec       q    Type
REMARK                         _______ _______ _______ _____ _____    ______ ____
ROOT
ATOM      1  C   LIG    1       -1.332   2.113   0.020  0.00  0.00    +0.170 C 
ATOM      2  N   LIG    1       -2.374   1.320  -0.654  0.00  0.00    -0.720 N 
ATOM      3  H   LIG    1       -2.377   1.035  -1.581  0.00  0.00    +0.440 HD
ATOM      4  C   LIG    1       -3.323   1.069   0.266  0.00  0.00    +0.700 C 
ATOM      5  N   LIG    1       -3.030   1.600   1.459  0.00  0.00    -0.580 N 
ATOM      6  O   LIG    1       -4.332   0.431   0.040  0.00  0.00    -0.540 OA
ATOM      7  C   LIG    1       -1.853   2.255   1.436  0.00  0.00    +0.540 C 
ATOM      8  O   LIG    1       -1.321   2.836   2.357  0.00  0.00    -0.440 OA
ENDROOT
BRANCH   1   9
ATOM      9  C   LIG    1       -0.017   1.378   0.010  0.00  0.00    -0.110 A 
ATOM     10  C   LIG    1        1.170   2.087   0.002  0.00  0.00    +0.080 A 
ATOM     11  C   LIG    1        2.377   1.414  -0.013  0.00  0.00    -0.010 A 
ATOM     12  C   LIG    1        2.397   0.029  -0.021  0.00  0.00    +0.110 A 
ATOM     13  C   LIG    1        1.208  -0.679  -0.013  0.00  0.00    -0.010 A 
ATOM     14  F   LIG    1        3.577  -0.630  -0.035  0.00  0.00    -0.130 F 
ATOM     15  C   LIG    1        0.002  -0.004   0.002  0.00  0.00    +0.060 A 
ENDBRANCH   1   9
BRANCH   1  17
ATOM     16  C   LIG    1       -2.534   4.209  -0.620  0.00  0.00    +0.020 C 
ATOM     17  C   LIG    1       -1.186   3.484  -0.643  0.00  0.00    +0.060 C 
ENDBRANCH   1  17
BRANCH   5  18
ATOM     18  C   LIG    1       -3.884   1.482   2.644  0.00  0.00    +0.350 C 
BRANCH  18  19
ATOM     19  C   LIG    1       -3.498   0.227   3.428  0.00  0.00    +0.200 C 
BRANCH  19  20
ATOM     20  O   LIG    1       -2.168   0.371   3.933  0.00  0.00    -0.300 OA
BRANCH  20  21
ATOM     21  C   LIG    1       -1.668  -0.664   4.658  0.00  0.00    +0.140 A 
ATOM     22  C   LIG    1       -2.443  -1.792   4.884  0.00  0.00    -0.060 A 
ATOM     23  C   LIG    1       -1.931  -2.845   5.618  0.00  0.00    +0.070 A 
ATOM     24  C   LIG    1       -0.650  -2.771   6.136  0.00  0.00    -0.070 A 
ATOM     25  C   LIG    1        0.122  -1.644   5.916  0.00  0.00    +0.070 A 
ATOM     26 CL   LIG    1       -0.012  -4.093   7.062  0.00  0.00    -0.070 Cl
ATOM     27  C   LIG    1       -0.384  -0.592   5.178  0.00  0.00    +0.000 A 
ENDBRANCH  20  21
ENDBRANCH  19  20
ENDBRANCH  18  19
ENDBRANCH   5  18
TORSDOF 6
