REMARK  Name = ZINCpk00000jdSUn.0
REMARK                            x       y       z     vdW  Elec       q    Type
REMARK                         _______ _______ _______ _____ _____    ______ ____
ROOT
ATOM      1  C   LIG    1        6.806   2.551   0.476  0.00  0.00    +0.520 C 
ATOM      2  N   LIG    1        5.525   2.134   0.532  0.00  0.00    -0.620 N 
ATOM      3  C   LIG    1        4.446   2.952  -0.039  0.00  0.00    +0.270 C 
ATOM      4  C   LIG    1        3.396   3.207   1.050  0.00  0.00    +0.270 C 
ATOM      5  N   LIG    1        3.054   1.925   1.682  0.00  0.00    -0.610 N 
ATOM      6  C   LIG    1        4.133   1.109   2.258  0.00  0.00    +0.300 C 
ATOM      7  C   LIG    1        1.774   1.507   1.738  0.00  0.00    +0.490 C 
ATOM      8  O   LIG    1        1.491   0.499   2.350  0.00  0.00    -0.500 OA
ATOM      9  C   LIG    1        5.184   0.852   1.164  0.00  0.00    +0.290 C 
ATOM     10  O   LIG    1        7.688   1.868   0.951  0.00  0.00    -0.530 OA
ENDROOT
BRANCH   6  11
ATOM     11  C   LIG    1        3.572  -0.203   2.742  0.00  0.00    -0.220 A 
ATOM     12  C   LIG    1        3.648  -0.684   4.004  0.00  0.00    +0.240 A 
ATOM     13  N   LIG    1        3.027  -1.881   4.026  0.00  0.00    -0.480 N 
ATOM     14  H   LIG    1        2.926  -2.458   4.800  0.00  0.00    +0.440 HD
ATOM     15  N   LIG    1        2.552  -2.145   2.735  0.00  0.00    -0.300 NA
ATOM     16  C   LIG    1        2.874  -1.135   1.967  0.00  0.00    +0.280 A 
ENDBRANCH   6  11
BRANCH   1  17
ATOM     17  C   LIG    1        7.141   3.868  -0.176  0.00  0.00    +0.090 C 
BRANCH  17  20
ATOM     18  C   LIG    1        8.601   4.391  -2.530  0.00  0.00    +0.070 C 
ATOM     19  C   LIG    1        9.314   4.289  -1.206  0.00  0.00    -0.120 C 
ATOM     20  C   LIG    1        8.629   4.099  -0.106  0.00  0.00    -0.030 C 
ATOM     21  C   LIG    1       10.815   4.406  -1.148  0.00  0.00    +0.080 C 
ENDBRANCH  17  20
ENDBRANCH   1  17
BRANCH   7  22
ATOM     22  C   LIG    1        0.694   2.293   1.040  0.00  0.00    +0.210 C 
BRANCH  22  23
ATOM     23  C   LIG    1        0.864   2.158  -0.475  0.00  0.00    -0.050 C 
ATOM     24  C   LIG    1       -0.199   3.000  -1.184  0.00  0.00    +0.050 C 
ATOM     25  C   LIG    1        0.703   0.690  -0.877  0.00  0.00    +0.020 C 
ENDBRANCH  22  23
BRANCH  22  26
ATOM     26  O   LIG    1       -0.586   1.787   1.423  0.00  0.00    -0.530 OA
ATOM     27  H   LIG    1       -0.723   0.856   1.202  0.00  0.00    +0.380 HD
ENDBRANCH  22  26
ENDBRANCH   7  22
TORSDOF 6
