REMARK  Name = ZINCqH0000004Eip.0
REMARK                            x       y       z     vdW  Elec       q    Type
REMARK                         _______ _______ _______ _____ _____    ______ ____
ROOT
ATOM      1  C   LIG    1       -0.004   1.489   0.171  0.00  0.00    +0.180 C 
ATOM      2  C   LIG    1       -0.888   1.995   1.312  0.00  0.00    +0.030 C 
ENDROOT
BRANCH   1   3
ATOM      3  N   LIG    1        1.367   1.982   0.358  0.00  0.00    -0.520 NA
ATOM      4  C   LIG    1        1.916   1.533   1.645  0.00  0.00    +0.190 C 
ATOM      5  C   LIG    1        3.369   1.998   1.767  0.00  0.00    +0.210 C 
ATOM      6  N   LIG    1        3.423   3.463   1.657  0.00  0.00    -0.490 N 
ATOM      7  C   LIG    1        2.873   3.912   0.370  0.00  0.00    +0.200 C 
ATOM      8  C   LIG    1        1.420   3.446   0.248  0.00  0.00    +0.190 C 
BRANCH   6   9
ATOM      9  C   LIG    1        4.726   3.931   1.835  0.00  0.00    +0.120 A 
ATOM     10  C   LIG    1        5.326   4.712   0.856  0.00  0.00    -0.050 A 
ATOM     11  C   LIG    1        6.615   5.174   1.035  0.00  0.00    +0.030 A 
ATOM     12  C   LIG    1        7.309   4.859   2.189  0.00  0.00    -0.030 A 
ATOM     13  C   LIG    1        6.715   4.081   3.167  0.00  0.00    -0.060 A 
ATOM     14  C   LIG    1        7.476   3.741   4.422  0.00  0.00    +0.090 C 
ATOM     15  C   LIG    1        5.425   3.621   2.996  0.00  0.00    -0.020 A 
ENDBRANCH   6   9
ENDBRANCH   1   3
BRANCH   1  18
ATOM     16  N   LIG    1       -1.156  -0.694   0.009  0.00  0.00    -0.670 N 
ATOM     17  H   LIG    1       -1.998  -0.214  -0.026  0.00  0.00    +0.410 HD
ATOM     18  C   LIG    1       -0.001  -0.018   0.168  0.00  0.00    +0.520 C 
ATOM     19  O   LIG    1        1.041  -0.622   0.308  0.00  0.00    -0.500 OA
BRANCH  16  23
ATOM     20  C   LIG    1       -1.110  -4.846  -0.329  0.00  0.00    -0.100 A 
ATOM     21  C   LIG    1       -2.174  -4.216   0.289  0.00  0.00    +0.030 A 
ATOM     22  C   LIG    1       -2.192  -2.840   0.403  0.00  0.00    -0.020 A 
ATOM     23  C   LIG    1       -1.140  -2.088  -0.104  0.00  0.00    +0.140 A 
ATOM     24  C   LIG    1       -0.075  -2.724  -0.729  0.00  0.00    +0.010 A 
ATOM     25  C   LIG    1       -0.061  -4.101  -0.835  0.00  0.00    +0.020 A 
BRANCH  20  27
ATOM     26  C   LIG    1       -1.768  -6.759  -1.763  0.00  0.00    +0.030 C 
ATOM     27  C   LIG    1       -1.094  -6.348  -0.452  0.00  0.00    +0.050 C 
ENDBRANCH  20  27
ENDBRANCH  16  23
ENDBRANCH   1  18
TORSDOF 5
