REMARK  Name = ZINCpk00000y6yE0.1
REMARK                            x       y       z     vdW  Elec       q    Type
REMARK                         _______ _______ _______ _____ _____    ______ ____
ROOT
ATOM      1  O   LIG    1        2.766  -2.853  -1.902  0.00  0.00    -0.530 OA
ATOM      2  C   LIG    1        2.861  -2.021  -1.025  0.00  0.00    +0.520 C 
ATOM      3  N   LIG    1        3.969  -1.260  -0.934  0.00  0.00    -0.620 N 
ATOM      4  C   LIG    1        4.147  -0.328   0.188  0.00  0.00    +0.260 C 
ATOM      5  C   LIG    1        5.499  -0.620   0.856  0.00  0.00    +0.040 C 
ATOM      6  C   LIG    1        6.607  -0.555  -0.197  0.00  0.00    +0.060 C 
ATOM      7  C   LIG    1        6.360  -1.620  -1.267  0.00  0.00    +0.040 C 
ATOM      8  C   LIG    1        5.020  -1.343  -1.957  0.00  0.00    +0.280 C 
ENDROOT
BRANCH   2   9
ATOM      9  C   LIG    1        1.738  -1.838  -0.036  0.00  0.00    +0.070 C 
ATOM     10  C   LIG    1        1.878  -2.860   1.099  0.00  0.00    +0.040 C 
ATOM     11  C   LIG    1        0.610  -2.847   1.957  0.00  0.00    +0.040 C 
ATOM     12  C   LIG    1       -0.553  -3.455   1.163  0.00  0.00    +0.110 C 
ATOM     13  C   LIG    1       -0.604  -2.790  -0.189  0.00  0.00    +0.100 A 
ATOM     14  N   LIG    1       -1.617  -2.786  -1.072  0.00  0.00    -0.470 N 
ATOM     15  H   LIG    1       -2.474  -3.227  -0.960  0.00  0.00    +0.440 HD
ATOM     16  N   LIG    1       -1.212  -2.036  -2.187  0.00  0.00    -0.300 NA
ATOM     17  C   LIG    1        0.007  -1.607  -1.972  0.00  0.00    +0.260 A 
ATOM     18  C   LIG    1        0.414  -2.068  -0.722  0.00  0.00    -0.230 A 
ENDBRANCH   2   9
BRANCH   6  19
ATOM     19  C   LIG    1        7.940  -0.805   0.461  0.00  0.00    +0.090 A 
ATOM     20  C   LIG    1        8.493  -2.015   0.710  0.00  0.00    -0.110 A 
ATOM     21  C   LIG    1        9.729  -1.804   1.329  0.00  0.00    +0.230 A 
ATOM     22  N   LIG    1        9.912  -0.514   1.448  0.00  0.00    -0.290 NA
ATOM     23  N   LIG    1        8.799   0.138   0.902  0.00  0.00    -0.370 N 
BRANCH  23  24
ATOM     24  C   LIG    1        8.600   1.587   0.827  0.00  0.00    +0.330 C 
BRANCH  24  25
ATOM     25  C   LIG    1        7.890   2.071   2.093  0.00  0.00    +0.170 C 
BRANCH  25  26
ATOM     26  O   LIG    1        7.697   3.485   2.020  0.00  0.00    -0.570 OA
ATOM     27  H   LIG    1        7.251   3.862   2.791  0.00  0.00    +0.390 HD
ENDBRANCH  25  26
ENDBRANCH  24  25
ENDBRANCH  23  24
ENDBRANCH   6  19
TORSDOF 5
