REMARK  Name = ZINCpk00000y6yE0.0
REMARK                            x       y       z     vdW  Elec       q    Type
REMARK                         _______ _______ _______ _____ _____    ______ ____
ROOT
ATOM      1  O   LIG    1        4.154   4.351  -7.128  0.00  0.00    -0.530 OA
ATOM      2  C   LIG    1        3.931   3.380  -6.436  0.00  0.00    +0.520 C 
ATOM      3  N   LIG    1        3.224   3.512  -5.296  0.00  0.00    -0.610 N 
ATOM      4  C   LIG    1        2.805   4.839  -4.825  0.00  0.00    +0.280 C 
ATOM      5  C   LIG    1        3.279   5.020  -3.379  0.00  0.00    +0.040 C 
ATOM      6  C   LIG    1        2.762   3.858  -2.528  0.00  0.00    +0.060 C 
ATOM      7  C   LIG    1        3.330   2.541  -3.060  0.00  0.00    +0.030 C 
ATOM      8  C   LIG    1        2.857   2.331  -4.502  0.00  0.00    +0.260 C 
ENDROOT
BRANCH   2   9
ATOM      9  C   LIG    1        4.445   2.025  -6.851  0.00  0.00    +0.080 C 
ATOM     10  C   LIG    1        5.800   1.759  -6.184  0.00  0.00    +0.030 C 
ATOM     11  C   LIG    1        6.436   0.505  -6.788  0.00  0.00    +0.040 C 
ATOM     12  C   LIG    1        6.911   0.800  -8.216  0.00  0.00    +0.140 C 
ATOM     13  C   LIG    1        5.769   1.435  -8.972  0.00  0.00    +0.090 A 
ATOM     14  N   LIG    1        5.630   1.569 -10.258  0.00  0.00    -0.290 NA
ATOM     15  N   LIG    1        4.407   2.214 -10.500  0.00  0.00    -0.480 N 
ATOM     16  H   LIG    1        4.046   2.443 -11.371  0.00  0.00    +0.440 HD
ATOM     17  C   LIG    1        3.822   2.460  -9.307  0.00  0.00    +0.260 A 
ATOM     18  C   LIG    1        4.641   1.992  -8.347  0.00  0.00    -0.230 A 
ENDBRANCH   2   9
BRANCH   6  19
ATOM     19  C   LIG    1        3.198   4.051  -1.098  0.00  0.00    +0.090 A 
ATOM     20  C   LIG    1        4.367   4.594  -0.686  0.00  0.00    -0.110 A 
ATOM     21  C   LIG    1        4.376   4.588   0.712  0.00  0.00    +0.230 A 
ATOM     22  N   LIG    1        3.250   4.065   1.126  0.00  0.00    -0.290 NA
ATOM     23  N   LIG    1        2.492   3.713   0.002  0.00  0.00    -0.370 N 
BRANCH  23  24
ATOM     24  C   LIG    1        1.165   3.093   0.017  0.00  0.00    +0.330 C 
BRANCH  24  25
ATOM     25  C   LIG    1        1.313   1.571   0.011  0.00  0.00    +0.170 C 
BRANCH  25  26
ATOM     26  O   LIG    1        0.018   0.966   0.026  0.00  0.00    -0.570 OA
ATOM     27  H   LIG    1        0.035  -0.001   0.024  0.00  0.00    +0.390 HD
ENDBRANCH  25  26
ENDBRANCH  24  25
ENDBRANCH  23  24
ENDBRANCH   6  19
TORSDOF 5
