REMARK  Name = ZINCpe0000120uWA.0
REMARK                            x       y       z     vdW  Elec       q    Type
REMARK                         _______ _______ _______ _____ _____    ______ ____
ROOT
ATOM      1  C   LIG    1        1.356  -3.807  -2.788  0.00  0.00    +0.240 C 
ENDROOT
BRANCH   1   2
ATOM      2  C   LIG    1        1.962  -4.291  -4.107  0.00  0.00    -0.020 C 
ATOM      3  C   LIG    1        0.992  -4.212  -5.297  0.00  0.00    +0.010 C 
ATOM      4  C   LIG    1        1.562  -5.565  -5.752  0.00  0.00    -0.000 C 
ATOM      5  C   LIG    1        1.923  -5.819  -4.279  0.00  0.00    +0.020 C 
ENDBRANCH   1   2
BRANCH   1   6
ATOM      6  N   LIG    1       -0.048  -4.219  -2.715  0.00  0.00    -0.710 N 
ATOM      7  H   LIG    1       -0.748  -3.608  -2.994  0.00  0.00    +0.410 HD
ATOM      8  C   LIG    1       -0.366  -5.448  -2.261  0.00  0.00    +0.610 C 
ATOM      9  O   LIG    1        0.511  -6.214  -1.912  0.00  0.00    -0.520 OA
BRANCH   8  10
ATOM     10  C   LIG    1       -1.781  -5.863  -2.188  0.00  0.00    +0.000 A 
ATOM     11  C   LIG    1       -2.238  -7.072  -1.750  0.00  0.00    +0.190 A 
ATOM     12  N   LIG    1       -3.598  -7.044  -1.843  0.00  0.00    -0.370 N 
ATOM     13  C   LIG    1       -4.559  -7.969  -1.546  0.00  0.00    +0.270 A 
ATOM     14  C   LIG    1       -5.864  -7.689  -1.733  0.00  0.00    +0.010 A 
ATOM     15  C   LIG    1       -6.257  -6.436  -2.240  0.00  0.00    +0.130 A 
ATOM     16  C   LIG    1       -5.310  -5.504  -2.541  0.00  0.00    +0.050 A 
ATOM     17  F   LIG    1       -7.566  -6.158  -2.427  0.00  0.00    -0.120 F 
ATOM     18  C   LIG    1       -3.948  -5.813  -2.339  0.00  0.00    +0.250 A 
ATOM     19  N   LIG    1       -2.843  -5.113  -2.536  0.00  0.00    -0.460 NA
ENDBRANCH   8  10
ENDBRANCH   1   6
BRANCH   1  20
ATOM     20  C   LIG    1        1.444  -2.281  -2.716  0.00  0.00    +0.280 C 
BRANCH  20  22
ATOM     21  C   LIG    1        0.707  -0.490  -1.238  0.00  0.00    +0.490 C 
ATOM     22  N   LIG    1        0.759  -1.809  -1.511  0.00  0.00    -0.730 N 
ATOM     23  H   LIG    1        0.341  -2.445  -0.909  0.00  0.00    +0.400 HD
ATOM     24  O   LIG    1        1.229   0.306  -1.990  0.00  0.00    -0.530 OA
BRANCH  21  26
ATOM     25  C   LIG    1        0.742  -0.511   1.242  0.00  0.00    +0.040 C 
ATOM     26  C   LIG    1        0.002  -0.004   0.002  0.00  0.00    +0.210 C 
BRANCH  26  27
ATOM     27  O   LIG    1       -0.017   1.425   0.010  0.00  0.00    -0.540 OA
ATOM     28  H   LIG    1        0.861   1.830   0.004  0.00  0.00    +0.390 HD
ENDBRANCH  26  27
ENDBRANCH  21  26
ENDBRANCH  20  22
ENDBRANCH   1  20
TORSDOF 7
