REMARK  Name = ZINCrH00000loNIf.0
REMARK                            x       y       z     vdW  Elec       q    Type
REMARK                         _______ _______ _______ _____ _____    ______ ____
ROOT
ATOM      1  C   LIG    1       -2.437   4.483  -0.799  0.00  0.00    -0.200 A 
ATOM      2  C   LIG    1       -1.451   3.614  -0.303  0.00  0.00    +0.260 A 
ATOM      3  C   LIG    1       -1.862   2.330   0.125  0.00  0.00    -0.210 A 
ATOM      4  C   LIG    1       -0.941   1.401   0.633  0.00  0.00    +0.100 A 
ATOM      5  C   LIG    1       -1.409   0.178   1.030  0.00  0.00    -0.030 A 
ATOM      6  C   LIG    1       -2.764  -0.111   0.918  0.00  0.00    +0.200 A 
ATOM      7  N   LIG    1       -3.620   0.763   0.441  0.00  0.00    -0.470 NA
ATOM      8  C   LIG    1       -3.264  -1.463   1.358  0.00  0.00    +0.150 C 
ATOM      9  C   LIG    1       -3.229   1.975   0.038  0.00  0.00    +0.350 A 
ATOM     10  N   LIG    1       -4.119   2.852  -0.446  0.00  0.00    -0.480 NA
ATOM     11  C   LIG    1       -3.771   4.049  -0.845  0.00  0.00    +0.400 A 
ENDROOT
BRANCH   1  12
ATOM     12  C   LIG    1       -2.076   5.832  -1.260  0.00  0.00    +0.510 C 
ATOM     13  O   LIG    1       -0.941   6.241  -1.115  0.00  0.00    -0.470 OA
BRANCH  12  14
ATOM     14  O   LIG    1       -3.007   6.618  -1.839  0.00  0.00    -0.360 OA
BRANCH  14  16
ATOM     15  C   LIG    1       -3.765   8.678  -2.893  0.00  0.00    +0.070 C 
ATOM     16  C   LIG    1       -2.582   7.939  -2.264  0.00  0.00    +0.210 C 
ENDBRANCH  14  16
ENDBRANCH  12  14
ENDBRANCH   1  12
BRANCH   2  17
ATOM     17  N   LIG    1       -0.132   3.999  -0.236  0.00  0.00    -0.610 N 
ATOM     18  H   LIG    1        0.347   3.519   0.512  0.00  0.00    +0.360 HD
BRANCH  17  19
ATOM     19  C   LIG    1        0.546   3.781  -1.521  0.00  0.00    +0.180 C 
ATOM     20  C   LIG    1        1.430   2.515  -1.456  0.00  0.00    -0.010 C 
ATOM     21  C   LIG    1        2.882   3.035  -1.683  0.00  0.00    +0.030 C 
ATOM     22  C   LIG    1        2.593   4.205  -2.716  0.00  0.00    +0.020 C 
ATOM     23  C   LIG    1        3.231   3.849  -0.400  0.00  0.00    +0.110 C 
ATOM     24  C   LIG    1        2.889   3.041   0.854  0.00  0.00    +0.020 C 
ATOM     25  C   LIG    1        2.345   5.113  -0.485  0.00  0.00    +0.020 C 
ATOM     26  C   LIG    1        1.544   4.943  -1.812  0.00  0.00    +0.040 C 
BRANCH  23  27
ATOM     27  O   LIG    1        4.614   4.210  -0.399  0.00  0.00    -0.370 OA
ATOM     28  C   LIG    1        5.002   5.024   0.709  0.00  0.00    +0.190 C 
ENDBRANCH  23  27
ENDBRANCH  17  19
ENDBRANCH   2  17
TORSDOF 6
