REMARK  Name = ZINCkj00000y7w96.0
REMARK                            x       y       z     vdW  Elec       q    Type
REMARK                         _______ _______ _______ _____ _____    ______ ____
ROOT
ATOM      1  C   LIG    1       -2.791   4.952   0.729  0.00  0.00    +0.530 C 
ATOM      2  N   LIG    1       -3.832   5.759   1.014  0.00  0.00    -0.710 N 
ATOM      3  H   LIG    1       -4.720   5.384   1.123  0.00  0.00    +0.400 HD
ATOM      4  O   LIG    1       -1.677   5.422   0.592  0.00  0.00    -0.530 OA
ENDROOT
BRANCH   1   6
ATOM      5  C   LIG    1       -1.972   2.708   0.304  0.00  0.00    -0.010 C 
ATOM      6  C   LIG    1       -3.000   3.503   0.585  0.00  0.00    +0.020 C 
BRANCH   5   7
ATOM      7  C   LIG    1       -2.187   1.224   0.156  0.00  0.00    +0.310 C 
BRANCH   7   9
ATOM      8  C   LIG    1       -1.994  -0.638  -1.345  0.00  0.00    +0.320 C 
ATOM      9  N   LIG    1       -1.677   0.783  -1.150  0.00  0.00    -0.390 N 
ATOM     10  C   LIG    1       -0.222   0.972  -1.197  0.00  0.00    +0.330 C 
ATOM     11  H   LIG    1       -2.111   1.327  -1.881  0.00  0.00    +0.430 HD
ENDBRANCH   7   9
ENDBRANCH   5   7
ENDBRANCH   1   6
BRANCH   2  12
ATOM     12  C   LIG    1       -3.624   7.202   1.158  0.00  0.00    +0.320 C 
BRANCH  12  13
ATOM     13  C   LIG    1       -4.973   7.895   1.356  0.00  0.00    -0.180 C 
ATOM     14  C   LIG    1       -5.119   9.322   0.823  0.00  0.00    +0.080 C 
ATOM     15  C   LIG    1       -5.817   8.164   0.112  0.00  0.00    -0.100 C 
ATOM     16  C   LIG    1       -7.340   8.057   0.242  0.00  0.00    +0.040 C 
ATOM     17  C   LIG    1       -7.981   8.747  -0.968  0.00  0.00    +0.220 C 
ATOM     18  O   LIG    1       -7.440   8.194  -2.169  0.00  0.00    -0.380 OA
ATOM     19  C   LIG    1       -6.042   8.429  -2.352  0.00  0.00    +0.220 C 
ATOM     20  C   LIG    1       -5.259   7.715  -1.243  0.00  0.00    +0.040 C 
BRANCH  13  21
ATOM     21  C   LIG    1       -5.712   7.544   2.649  0.00  0.00    +0.250 C 
ATOM     22  F   LIG    1       -4.877   7.787   3.744  0.00  0.00    -0.210 F 
ENDBRANCH  13  21
ENDBRANCH  12  13
ENDBRANCH   2  12
TORSDOF 6
