REMARK  Name = ZINCbw0000000Hc4.0
REMARK                            x       y       z     vdW  Elec       q    Type
REMARK                         _______ _______ _______ _____ _____    ______ ____
ROOT
ATOM      1  C   LIG    1        0.403  -0.244   1.484  0.00  0.00    +0.060 C 
ENDROOT
BRANCH   1   2
ATOM      2  C   LIG    1        0.545   0.622   0.260  0.00  0.00    -0.110 C 
ATOM      3  C   LIG    1        0.423   0.096  -0.933  0.00  0.00    -0.050 C 
ATOM      4  C   LIG    1        0.829   2.095   0.408  0.00  0.00    +0.080 C 
BRANCH   3   5
ATOM      5  C   LIG    1        0.566   0.962  -2.158  0.00  0.00    +0.210 C 
BRANCH   5   6
ATOM      6  O   LIG    1        1.391   0.299  -3.117  0.00  0.00    -0.570 OA
ATOM      7  H   LIG    1        1.527   0.800  -3.933  0.00  0.00    +0.380 HD
ENDBRANCH   5   6
ENDBRANCH   3   5
ENDBRANCH   1   2
BRANCH   1   8
ATOM      8  C   LIG    1        1.786  -0.707   1.946  0.00  0.00    +0.050 C 
BRANCH   8  11
ATOM      9  C   LIG    1        2.994  -3.253   2.024  0.00  0.00    +0.080 C 
ATOM     10  C   LIG    1        2.158  -2.778   3.184  0.00  0.00    -0.130 C 
ATOM     11  C   LIG    1        1.643  -1.574   3.170  0.00  0.00    -0.060 C 
ATOM     12  C   LIG    1        1.914  -3.688   4.360  0.00  0.00    +0.070 C 
ENDBRANCH   8  11
ENDBRANCH   1   8
TORSDOF 5
