REMARK  Name = ZINCpk00001AZiRG.0
REMARK                            x       y       z     vdW  Elec       q    Type
REMARK                         _______ _______ _______ _____ _____    ______ ____
ROOT
ATOM      1  N   LIG    1       -0.506   1.352  -2.056  0.00  0.00    -0.510 NA
ENDROOT
BRANCH   1   2
ATOM      2  C   LIG    1       -1.450   2.165  -1.278  0.00  0.00    +0.170 C 
BRANCH   2   3
ATOM      3  C   LIG    1       -2.559   1.267  -0.724  0.00  0.00    +0.250 C 
BRANCH   3   4
ATOM      4  N   LIG    1       -3.422   2.051   0.170  0.00  0.00    -0.380 N 
ATOM      5  H   LIG    1       -2.859   2.489   0.883  0.00  0.00    +0.420 HD
BRANCH   4   7
ATOM      6  C   LIG    1       -4.923   3.979   0.342  0.00  0.00    +0.070 C 
ATOM      7  C   LIG    1       -4.120   3.084  -0.606  0.00  0.00    +0.240 C 
ENDBRANCH   4   7
BRANCH   4   8
ATOM      8  C   LIG    1       -4.408   1.163   0.801  0.00  0.00    +0.250 C 
ATOM      9  C   LIG    1       -3.690   0.185   1.734  0.00  0.00    +0.080 C 
ENDBRANCH   4   8
ENDBRANCH   3   4
ENDBRANCH   2   3
ENDBRANCH   1   2
BRANCH   1  10
ATOM     10  C   LIG    1       -1.068   1.005  -3.369  0.00  0.00    +0.210 C 
BRANCH  10  11
ATOM     11  C   LIG    1       -0.189  -0.021  -4.036  0.00  0.00    +0.520 C 
ATOM     12  N   LIG    1       -0.509  -0.491  -5.258  0.00  0.00    -1.130 NA
ATOM     13  O   LIG    1        0.808  -0.423  -3.474  0.00  0.00    -0.610 OA
BRANCH  12  14
ATOM     14  S   LIG    1        0.457  -1.618  -5.991  0.00  0.00    +2.600 S 
ATOM     15  O   LIG    1        0.370  -2.757  -5.146  0.00  0.00    -1.010 OA
ATOM     16  O   LIG    1        1.692  -0.945  -6.190  0.00  0.00    -1.010 OA
BRANCH  14  17
ATOM     17  C   LIG    1       -0.354  -1.944  -7.581  0.00  0.00    -0.490 C 
ATOM     18  C   LIG    1       -1.091  -3.275  -7.739  0.00  0.00    +0.080 C 
ATOM     19  C   LIG    1        0.237  -3.045  -8.463  0.00  0.00    -0.010 C 
ATOM     20  C   LIG    1        0.190  -2.838  -9.979  0.00  0.00    +0.070 C 
ENDBRANCH  14  17
ENDBRANCH  12  14
ENDBRANCH  10  11
ENDBRANCH   1  10
BRANCH   1  21
ATOM     21  C   LIG    1        0.784   2.039  -2.201  0.00  0.00    +0.220 C 
BRANCH  21  22
ATOM     22  C   LIG    1        1.570   1.929  -0.893  0.00  0.00    +0.060 C 
BRANCH  22  23
ATOM     23  C   LIG    1        2.889   2.692  -1.024  0.00  0.00    +0.450 C 
ATOM     24  F   LIG    1        3.643   2.145  -2.068  0.00  0.00    -0.170 F 
ATOM     25  F   LIG    1        3.608   2.592   0.172  0.00  0.00    -0.190 F 
ATOM     26  F   LIG    1        2.624   4.038  -1.297  0.00  0.00    -0.190 F 
ENDBRANCH  22  23
ENDBRANCH  21  22
ENDBRANCH   1  21
TORSDOF 12
