REMARK  Name = ZINCkj000005lfMr.0
REMARK                            x       y       z     vdW  Elec       q    Type
REMARK                         _______ _______ _______ _____ _____    ______ ____
ROOT
ATOM      1  N   LIG    1       -3.465  -2.113   1.123  0.00  0.00    -0.520 NA
ATOM      2  C   LIG    1       -2.795  -2.504  -0.125  0.00  0.00    +0.220 C 
ATOM      3  C   LIG    1       -1.359  -1.976  -0.117  0.00  0.00    +0.280 C 
ATOM      4  N   LIG    1       -1.376  -0.512   0.012  0.00  0.00    -0.390 N 
ATOM      5  C   LIG    1       -2.026  -0.139   1.276  0.00  0.00    +0.280 C 
ATOM      6  H   LIG    1       -1.888  -0.113  -0.760  0.00  0.00    +0.420 HD
ATOM      7  C   LIG    1       -3.468  -0.652   1.279  0.00  0.00    +0.220 C 
ENDROOT
BRANCH   1   8
ATOM      8  C   LIG    1       -4.831  -2.651   1.179  0.00  0.00    +0.230 C 
BRANCH   8  12
ATOM      9  N   LIG    1       -6.646  -2.862   2.846  0.00  0.00    -0.850 N 
ATOM     10  H   LIG    1       -7.010  -2.729   3.735  0.00  0.00    +0.410 HD
ATOM     11  H   LIG    1       -7.180  -3.296   2.163  0.00  0.00    +0.410 HD
ATOM     12  C   LIG    1       -5.396  -2.444   2.560  0.00  0.00    +0.520 C 
ATOM     13  O   LIG    1       -4.728  -1.902   3.414  0.00  0.00    -0.530 OA
ENDBRANCH   8  12
ENDBRANCH   1   8
BRANCH   4  14
ATOM     14  C   LIG    1        0.002  -0.004   0.002  0.00  0.00    +0.250 C 
BRANCH  14  15
ATOM     15  C   LIG    1       -0.019   1.526   0.010  0.00  0.00    +0.030 C 
BRANCH  15  16
ATOM     16  C   LIG    1        1.417   2.055  -0.000  0.00  0.00    +0.110 C 
BRANCH  16  17
ATOM     17  C   LIG    1        1.396   3.562   0.008  0.00  0.00    -0.100 A 
ATOM     18  C   LIG    1        1.381   4.260  -1.186  0.00  0.00    +0.030 A 
ATOM     19  C   LIG    1        1.358   5.641  -1.179  0.00  0.00    +0.030 A 
ATOM     20  C   LIG    1        1.360   6.327   0.023  0.00  0.00    -0.030 A 
ATOM     21  C   LIG    1        1.381   5.629   1.217  0.00  0.00    +0.030 A 
ATOM     22 CL   LIG    1        1.338   8.063   0.033  0.00  0.00    -0.060 Cl
ATOM     23  C   LIG    1        1.398   4.247   1.209  0.00  0.00    +0.030 A 
ENDBRANCH  16  17
ENDBRANCH  15  16
ENDBRANCH  14  15
ENDBRANCH   4  14
TORSDOF 6
