REMARK  Name = ZINCkj000005gFaV.1
REMARK                            x       y       z     vdW  Elec       q    Type
REMARK                         _______ _______ _______ _____ _____    ______ ____
ROOT
ATOM      1  N   LIG    1       -0.021   0.017   0.076  0.00  0.00    -0.380 N 
ATOM      2  C   LIG    1        0.798  -0.429   1.210  0.00  0.00    +0.260 C 
ATOM      3  C   LIG    1        0.700  -1.952   1.343  0.00  0.00    +0.350 C 
ATOM      4  N   LIG    1        1.069  -2.557   0.053  0.00  0.00    -0.640 N 
ATOM      5  C   LIG    1        0.411  -2.053  -1.162  0.00  0.00    +0.300 C 
ATOM      6  C   LIG    1        1.983  -3.546  -0.013  0.00  0.00    +0.710 C 
ATOM      7  N   LIG    1        2.229  -4.158  -1.187  0.00  0.00    -0.630 N 
ATOM      8  H   LIG    1        1.804  -3.840  -1.999  0.00  0.00    +0.410 HD
ATOM      9  O   LIG    1        2.585  -3.884   0.988  0.00  0.00    -0.530 OA
ATOM     10  C   LIG    1        0.523  -0.525  -1.176  0.00  0.00    +0.280 C 
ATOM     11  H   LIG    1       -0.968  -0.310   0.199  0.00  0.00    +0.420 HD
ENDROOT
BRANCH   7  12
ATOM     12  C   LIG    1        3.096  -5.250  -1.236  0.00  0.00    +0.040 A 
ATOM     13  C   LIG    1        3.448  -5.973  -2.332  0.00  0.00    -0.090 A 
ATOM     14  C   LIG    1        4.328  -7.002  -2.081  0.00  0.00    +0.140 A 
ATOM     15  N   LIG    1        4.714  -7.160  -0.849  0.00  0.00    -0.480 NA
ATOM     16  C   LIG    1        4.822  -7.903  -3.183  0.00  0.00    +0.160 C 
ATOM     17  S   LIG    1        3.952  -5.960   0.076  0.00  0.00    +0.350 S 
ENDBRANCH   7  12
BRANCH   1  18
ATOM     18  C   LIG    1       -0.015   1.484   0.016  0.00  0.00    +0.180 C 
BRANCH  18  20
ATOM     19  C   LIG    1       -2.348   1.572  -0.872  0.00  0.00    +0.030 C 
ATOM     20  C   LIG    1       -0.892   1.951  -1.147  0.00  0.00    +0.070 C 
ENDBRANCH  18  20
BRANCH  18  21
ATOM     21  C   LIG    1        1.417   1.980  -0.193  0.00  0.00    +0.220 C 
BRANCH  21  22
ATOM     22  O   LIG    1        1.869   1.596  -1.493  0.00  0.00    -0.570 OA
ATOM     23  H   LIG    1        2.772   1.878  -1.695  0.00  0.00    +0.410 HD
ENDBRANCH  21  22
ENDBRANCH  18  21
ENDBRANCH   1  18
TORSDOF 5
