REMARK  Name = ZINCtV00000L6kTv.0
REMARK                            x       y       z     vdW  Elec       q    Type
REMARK                         _______ _______ _______ _____ _____    ______ ____
ROOT
ATOM      1  C   LIG    1        2.381   1.863   1.602  0.00  0.00    +0.270 A 
ATOM      2  N   LIG    1        1.884   3.027   1.906  0.00  0.00    -0.460 NA
ATOM      3  C   LIG    1        2.685   4.008   1.416  0.00  0.00    +0.040 A 
ATOM      4  C   LIG    1        2.629   5.403   1.450  0.00  0.00    +0.070 A 
ATOM      5  C   LIG    1        3.612   6.138   0.849  0.00  0.00    +0.000 A 
ATOM      6  C   LIG    1        4.668   5.513   0.203  0.00  0.00    +0.030 A 
ATOM      7  C   LIG    1        4.743   4.137   0.156  0.00  0.00    +0.010 A 
ATOM      8  C   LIG    1        3.754   3.374   0.761  0.00  0.00    +0.070 A 
ATOM      9  N   LIG    1        3.534   2.018   0.896  0.00  0.00    -0.470 N 
ENDROOT
BRANCH   9  10
ATOM     10  C   LIG    1        4.384   0.944   0.376  0.00  0.00    +0.290 C 
ATOM     11  C   LIG    1        5.809   1.121   0.903  0.00  0.00    +0.060 C 
BRANCH  10  12
ATOM     12  C   LIG    1        4.395   0.997  -1.130  0.00  0.00    -0.110 A 
ATOM     13  C   LIG    1        3.364   1.619  -1.808  0.00  0.00    +0.020 A 
ATOM     14  C   LIG    1        3.376   1.671  -3.189  0.00  0.00    +0.010 A 
ATOM     15  C   LIG    1        4.416   1.093  -3.893  0.00  0.00    +0.010 A 
ATOM     16  C   LIG    1        5.445   0.466  -3.215  0.00  0.00    +0.010 A 
ATOM     17  C   LIG    1        5.435   0.418  -1.834  0.00  0.00    +0.020 A 
ENDBRANCH  10  12
ENDBRANCH   9  10
BRANCH   1  18
ATOM     18  C   LIG    1        1.768   0.538   1.975  0.00  0.00    +0.320 C 
BRANCH  18  19
ATOM     19  O   LIG    1        2.354   0.069   3.191  0.00  0.00    -0.310 OA
BRANCH  19  25
ATOM     20  C   LIG    1       -1.076  -3.403   3.127  0.00  0.00    +0.090 C 
ATOM     21  C   LIG    1        0.085  -2.710   3.794  0.00  0.00    -0.050 A 
ATOM     22  C   LIG    1        0.543  -3.156   5.019  0.00  0.00    -0.030 A 
ATOM     23  C   LIG    1        1.608  -2.522   5.634  0.00  0.00    +0.060 A 
ATOM     24  C   LIG    1        2.216  -1.442   5.024  0.00  0.00    -0.110 A 
ATOM     25  C   LIG    1        1.758  -0.994   3.793  0.00  0.00    +0.130 A 
ATOM     26  C   LIG    1        0.686  -1.627   3.182  0.00  0.00    -0.080 A 
BRANCH  24  27
ATOM     27  C   LIG    1        3.375  -0.752   5.694  0.00  0.00    +0.030 C 
ATOM     28  C   LIG    1        4.499  -1.761   5.938  0.00  0.00    +0.030 C 
ATOM     29  C   LIG    1        2.916  -0.167   7.032  0.00  0.00    +0.040 C 
ENDBRANCH  24  27
ENDBRANCH  19  25
ENDBRANCH  18  19
ENDBRANCH   1  18
TORSDOF 6
