REMARK  Name = ZINCrH00000No51Y.0
REMARK                            x       y       z     vdW  Elec       q    Type
REMARK                         _______ _______ _______ _____ _____    ______ ____
ROOT
ATOM      1  C   LIG    1        2.385   1.075  -0.015  0.00  0.00    +0.550 C 
ATOM      2  N   LIG    1        3.543   1.765  -0.022  0.00  0.00    -0.730 N 
ATOM      3  H   LIG    1        3.530   2.735  -0.017  0.00  0.00    +0.400 HD
ATOM      4  O   LIG    1        2.402  -0.142  -0.022  0.00  0.00    -0.550 OA
ENDROOT
BRANCH   1   6
ATOM      5  C   LIG    1       -0.013   1.076   0.008  0.00  0.00    +0.180 C 
ATOM      6  C   LIG    1        1.148   1.767   0.001  0.00  0.00    -0.100 C 
BRANCH   5  14
ATOM      7  C   LIG    1       -2.448   0.548  -1.956  0.00  0.00    +0.170 C 
ATOM      8  C   LIG    1       -2.389   1.570  -0.850  0.00  0.00    +0.110 A 
ATOM      9  N   LIG    1       -3.338   2.403  -0.525  0.00  0.00    -0.270 NA
ATOM     10  N   LIG    1       -2.908   3.189   0.549  0.00  0.00    -0.350 N 
ATOM     11  C   LIG    1       -1.661   2.811   0.882  0.00  0.00    +0.140 A 
ATOM     12 CL   LIG    1       -0.691   3.477   2.158  0.00  0.00    +0.010 Cl
ATOM     13  C   LIG    1       -3.686   4.244   1.204  0.00  0.00    +0.360 C 
ATOM     14  C   LIG    1       -1.294   1.793   0.018  0.00  0.00    -0.210 A 
ENDBRANCH   5  14
ENDBRANCH   1   6
BRANCH   2  15
ATOM     15  C   LIG    1        4.822   1.050  -0.038  0.00  0.00    +0.270 C 
BRANCH  15  16
ATOM     16  C   LIG    1        5.971   2.060  -0.044  0.00  0.00    +0.130 C 
BRANCH  16  17
ATOM     17  C   LIG    1        7.286   1.324  -0.060  0.00  0.00    -0.010 A 
ATOM     18  C   LIG    1        7.991   0.936   1.018  0.00  0.00    -0.030 A 
ATOM     19  O   LIG    1        9.097   0.311   0.570  0.00  0.00    -0.190 OA
ATOM     20  C   LIG    1        9.062   0.331  -0.774  0.00  0.00    +0.230 A 
ATOM     21  C   LIG    1        7.611   1.157   2.460  0.00  0.00    +0.190 C 
ATOM     22  N   LIG    1        7.965   0.945  -1.153  0.00  0.00    -0.460 NA
BRANCH  20  23
ATOM     23  C   LIG    1       10.085  -0.242  -1.673  0.00  0.00    -0.020 A 
ATOM     24  C   LIG    1        9.927  -0.160  -3.057  0.00  0.00    +0.070 A 
ATOM     25  C   LIG    1       10.889  -0.693  -3.891  0.00  0.00    +0.010 A 
ATOM     26  C   LIG    1       12.003  -1.316  -3.358  0.00  0.00    +0.030 A 
ATOM     27  C   LIG    1       12.163  -1.405  -1.986  0.00  0.00    +0.010 A 
ATOM     28  C   LIG    1       11.212  -0.872  -1.141  0.00  0.00    +0.040 A 
ENDBRANCH  20  23
ENDBRANCH  16  17
ENDBRANCH  15  16
ENDBRANCH   2  15
TORSDOF 6
