REMARK  Name = ZINCrH00000tj15h.0
REMARK                            x       y       z     vdW  Elec       q    Type
REMARK                         _______ _______ _______ _____ _____    ______ ____
ROOT
ATOM      1  C   LIG    1        3.577   6.638  -0.380  0.00  0.00    -0.050 A 
ATOM      2  C   LIG    1        3.697   7.995  -0.332  0.00  0.00    +0.170 A 
ATOM      3  C   LIG    1        5.069   8.298  -0.244  0.00  0.00    -0.310 A 
ATOM      4  C   LIG    1        5.770   7.073  -0.249  0.00  0.00    +0.360 A 
ATOM      5  N   LIG    1        7.098   7.082  -0.177  0.00  0.00    -0.550 NA
ATOM      6  C   LIG    1        7.783   8.220  -0.101  0.00  0.00    +0.430 A 
ATOM      7  C   LIG    1        9.189   8.168  -0.028  0.00  0.00    -0.110 A 
ATOM      8  C   LIG    1        9.900   9.326   0.050  0.00  0.00    +0.120 A 
ATOM      9  C   LIG    1        9.224  10.556   0.057  0.00  0.00    -0.010 A 
ATOM     10  C   LIG    1        7.876  10.589  -0.015  0.00  0.00    +0.280 A 
ATOM     11  C   LIG    1        9.901   6.840  -0.036  0.00  0.00    +0.130 C 
ATOM     12  N   LIG    1        7.152   9.435  -0.092  0.00  0.00    -0.450 N 
ATOM     13  C   LIG    1        5.804   9.504  -0.162  0.00  0.00    +0.560 A 
ATOM     14  O   LIG    1        5.234  10.581  -0.155  0.00  0.00    -0.500 OA
ATOM     15  N   LIG    1        4.843   6.072  -0.332  0.00  0.00    -0.430 N 
ATOM     16  C   LIG    1        5.138   4.638  -0.366  0.00  0.00    +0.350 C 
ENDROOT
BRANCH   1  19
ATOM     17  N   LIG    1        2.332   4.562  -0.660  0.00  0.00    -0.680 N 
ATOM     18  H   LIG    1        3.174   4.081  -0.650  0.00  0.00    +0.410 HD
ATOM     19  C   LIG    1        2.317   5.897  -0.473  0.00  0.00    +0.600 C 
ATOM     20  O   LIG    1        1.256   6.487  -0.382  0.00  0.00    -0.500 OA
BRANCH  17  25
ATOM     21  C   LIG    1       -2.533   1.769  -1.504  0.00  0.00    +0.100 C 
ATOM     22  C   LIG    1       -1.240   2.509  -1.278  0.00  0.00    -0.080 A 
ATOM     23  C   LIG    1       -1.194   3.559  -0.380  0.00  0.00    +0.050 A 
ATOM     24  C   LIG    1       -0.011   4.244  -0.174  0.00  0.00    +0.040 A 
ATOM     25  C   LIG    1        1.134   3.872  -0.866  0.00  0.00    +0.150 A 
ATOM     26  C   LIG    1        1.087   2.813  -1.764  0.00  0.00    +0.010 A 
ATOM     27  C   LIG    1       -0.099   2.132  -1.965  0.00  0.00    -0.020 A 
ATOM     28 CL   LIG    1       -0.160   0.809  -3.087  0.00  0.00    -0.060 Cl
ENDBRANCH  17  25
ENDBRANCH   1  19
TORSDOF 2
