REMARK  Name = ZINCpk00000xIhRA.0
REMARK                            x       y       z     vdW  Elec       q    Type
REMARK                         _______ _______ _______ _____ _____    ______ ____
ROOT
ATOM      1  C   LIG    1       -2.830   1.562   2.414  0.00  0.00    -0.180 A 
ATOM      2  C   LIG    1       -2.595   2.875   2.808  0.00  0.00    +0.260 A 
ATOM      3  C   LIG    1       -1.329   3.439   2.585  0.00  0.00    -0.360 A 
ATOM      4  C   LIG    1       -0.363   2.758   1.805  0.00  0.00    +0.510 A 
ATOM      5  N   LIG    1       -0.698   1.558   1.213  0.00  0.00    -0.490 N 
ATOM      6  N   LIG    1        0.843   3.280   1.647  0.00  0.00    -0.570 NA
ATOM      7  C   LIG    1        1.171   4.451   2.196  0.00  0.00    +0.440 A 
ATOM      8  C   LIG    1        2.471   4.954   2.003  0.00  0.00    +0.020 A 
ATOM      9  C   LIG    1        2.816   6.154   2.550  0.00  0.00    +0.150 A 
ATOM     10  C   LIG    1        1.872   6.869   3.300  0.00  0.00    +0.000 A 
ATOM     11  C   LIG    1        0.629   6.369   3.480  0.00  0.00    +0.300 A 
ATOM     12  N   LIG    1        0.275   5.168   2.939  0.00  0.00    -0.440 N 
ATOM     13  C   LIG    1       -0.983   4.697   3.143  0.00  0.00    +0.550 A 
ATOM     14  O   LIG    1       -1.790   5.330   3.799  0.00  0.00    -0.500 OA
ATOM     15  C   LIG    1       -1.709   0.813   1.809  0.00  0.00    +0.470 A 
ATOM     16  N   LIG    1       -1.669  -0.496   1.832  0.00  0.00    -0.710 NA
ATOM     17  H   LIG    1       -2.386  -0.995   2.254  0.00  0.00    +0.360 HD
ENDROOT
BRANCH   1  19
ATOM     18  N   LIG    1       -5.136   0.476   2.727  0.00  0.00    -0.410 NA
ATOM     19  C   LIG    1       -4.116   0.957   2.588  0.00  0.00    +0.260 C 
ENDBRANCH   1  19
BRANCH   5  20
ATOM     20  C   LIG    1       -0.013   1.086   0.008  0.00  0.00    +0.390 C 
BRANCH  20  21
ATOM     21  C   LIG    1       -0.742   1.585  -1.213  0.00  0.00    -0.170 A 
ATOM     22  C   LIG    1       -0.404   2.803  -1.783  0.00  0.00    +0.090 A 
ATOM     23  C   LIG    1       -1.101   3.222  -2.906  0.00  0.00    -0.040 A 
ATOM     24  C   LIG    1       -2.102   2.417  -3.416  0.00  0.00    +0.270 A 
ATOM     25  N   LIG    1       -2.397   1.264  -2.847  0.00  0.00    -0.480 NA
ATOM     26  C   LIG    1       -1.751   0.832  -1.782  0.00  0.00    +0.290 A 
ENDBRANCH  20  21
ENDBRANCH   5  20
TORSDOF 3
