REMARK  Name = ZINCpk00000jd6Lv.0
REMARK                            x       y       z     vdW  Elec       q    Type
REMARK                         _______ _______ _______ _____ _____    ______ ____
ROOT
ATOM      1  C   LIG    1       -4.374  -1.091   3.411  0.00  0.00    +0.010 A 
ATOM      2  C   LIG    1       -5.596  -1.696   3.489  0.00  0.00    +0.180 A 
ATOM      3  N   LIG    1       -5.599  -2.382   4.653  0.00  0.00    -0.290 N 
ATOM      4  N   LIG    1       -4.469  -2.198   5.240  0.00  0.00    -0.070 NA
ATOM      5  N   LIG    1       -3.713  -1.436   4.531  0.00  0.00    -0.250 NA
ENDROOT
BRANCH   1   8
ATOM      6  C   LIG    1       -2.143   1.058   1.278  0.00  0.00    +0.110 A 
ATOM      7  C   LIG    1       -2.562   0.249   2.313  0.00  0.00    +0.010 A 
ATOM      8  C   LIG    1       -3.877  -0.224   2.315  0.00  0.00    +0.040 A 
ATOM      9  C   LIG    1       -4.710   0.138   1.253  0.00  0.00    -0.020 A 
ATOM     10  C   LIG    1       -4.208   0.947   0.254  0.00  0.00    +0.270 A 
ATOM     11  N   LIG    1       -2.962   1.376   0.293  0.00  0.00    -0.470 NA
BRANCH   6  13
ATOM     12  C   LIG    1       -0.013   1.086   0.008  0.00  0.00    +0.040 C 
ATOM     13  C   LIG    1       -0.729   1.579   1.267  0.00  0.00    +0.180 C 
ATOM     14  C   LIG    1       -0.750   3.109   1.275  0.00  0.00    +0.080 C 
BRANCH  13  15
ATOM     15  O   LIG    1       -0.038   1.106   2.425  0.00  0.00    -0.550 OA
ATOM     16  H   LIG    1        0.014   0.142   2.485  0.00  0.00    +0.380 HD
ENDBRANCH  13  15
ENDBRANCH   6  13
ENDBRANCH   1   8
BRANCH   3  17
ATOM     17  C   LIG    1       -6.707  -3.193   5.165  0.00  0.00    +0.330 C 
BRANCH  17  18
ATOM     18  C   LIG    1       -6.207  -4.608   5.464  0.00  0.00    +0.190 C 
BRANCH  18  19
ATOM     19  N   LIG    1       -7.317  -5.421   5.977  0.00  0.00    -0.530 NA
ATOM     20  C   LIG    1       -8.528  -5.234   5.164  0.00  0.00    +0.160 C 
ATOM     21  C   LIG    1       -9.642  -6.138   5.714  0.00  0.00    +0.190 C 
ATOM     22  C   LIG    1       -9.715  -5.922   7.244  0.00  0.00    +0.010 C 
ATOM     23  C   LIG    1       -8.704  -6.945   7.810  0.00  0.00    +0.010 C 
ATOM     24  C   LIG    1       -8.148  -7.650   6.550  0.00  0.00    +0.190 C 
ATOM     25  O   LIG    1       -9.198  -7.506   5.566  0.00  0.00    -0.370 OA
ATOM     26  C   LIG    1       -6.940  -6.841   6.052  0.00  0.00    +0.170 C 
ENDBRANCH  18  19
ENDBRANCH  17  18
ENDBRANCH   3  17
TORSDOF 6
