REMARK  Name = ZINCrD000000AlfJ.0
REMARK                            x       y       z     vdW  Elec       q    Type
REMARK                         _______ _______ _______ _____ _____    ______ ____
ROOT
ATOM      1  N   LIG    1       -1.145   1.673   0.850  0.00  0.00    -0.520 NA
ATOM      2  C   LIG    1       -2.562   1.330   0.671  0.00  0.00    +0.180 C 
ATOM      3  C   LIG    1       -3.402   2.059   1.721  0.00  0.00    +0.030 C 
ATOM      4  C   LIG    1       -2.931   1.649   3.119  0.00  0.00    +0.230 C 
ATOM      5  C   LIG    1       -1.441   1.973   3.263  0.00  0.00    +0.040 C 
ATOM      6  C   LIG    1       -0.658   1.246   2.168  0.00  0.00    +0.190 C 
ENDROOT
BRANCH   4   7
ATOM      7  N   LIG    1       -3.692   2.388   4.129  0.00  0.00    -0.720 N 
ATOM      8  H   LIG    1       -3.336   3.211   4.499  0.00  0.00    +0.400 HD
ATOM      9  C   LIG    1       -4.888   1.925   4.544  0.00  0.00    +0.560 C 
ATOM     10  O   LIG    1       -5.335   0.893   4.080  0.00  0.00    -0.520 OA
BRANCH   9  11
ATOM     11  C   LIG    1       -5.656   2.670   5.562  0.00  0.00    -0.160 A 
ATOM     12  C   LIG    1       -5.144   3.852   6.101  0.00  0.00    +0.100 A 
ATOM     13  C   LIG    1       -5.868   4.545   7.049  0.00  0.00    -0.060 A 
ATOM     14  C   LIG    1       -7.097   4.067   7.474  0.00  0.00    +0.100 A 
ATOM     15  C   LIG    1       -7.609   2.895   6.949  0.00  0.00    +0.010 A 
ATOM     16 CL   LIG    1       -5.235   6.018   7.716  0.00  0.00    -0.050 Cl
ATOM     17  C   LIG    1       -6.897   2.192   5.995  0.00  0.00    +0.170 A 
ATOM     18  F   LIG    1       -7.398   1.047   5.484  0.00  0.00    -0.110 F 
ENDBRANCH   9  11
ENDBRANCH   4   7
BRANCH   1  19
ATOM     19  C   LIG    1       -0.325   1.101  -0.226  0.00  0.00    +0.220 C 
BRANCH  19  21
ATOM     20  O   LIG    1        1.319   2.558   0.637  0.00  0.00    -0.500 OA
ATOM     21  C   LIG    1        1.067   1.676  -0.156  0.00  0.00    +0.510 C 
ATOM     22  N   LIG    1        2.030   1.210  -0.975  0.00  0.00    -0.680 N 
ATOM     23  H   LIG    1        1.813   0.555  -1.656  0.00  0.00    +0.410 HD
BRANCH  22  24
ATOM     24  C   LIG    1        3.345   1.671  -0.842  0.00  0.00    +0.150 A 
ATOM     25  C   LIG    1        4.159   1.782  -1.962  0.00  0.00    -0.020 A 
ATOM     26  C   LIG    1        5.455   2.243  -1.828  0.00  0.00    +0.030 A 
ATOM     27  C   LIG    1        5.944   2.584  -0.581  0.00  0.00    -0.020 A 
ATOM     28  C   LIG    1        5.137   2.470   0.537  0.00  0.00    +0.030 A 
ATOM     29  C   LIG    1        3.839   2.014   0.409  0.00  0.00    +0.010 A 
ENDBRANCH  22  24
ENDBRANCH  19  21
ENDBRANCH   1  19
TORSDOF 5
