REMARK  Name = ZINCqH0000003LKX.0
REMARK                            x       y       z     vdW  Elec       q    Type
REMARK                         _______ _______ _______ _____ _____    ______ ____
ROOT
ATOM      1  C   LIG    1        1.217   3.738  -0.028  0.00  0.00    +0.260 C 
ENDROOT
BRANCH   1   4
ATOM      2  N   LIG    1        0.475   1.439   0.506  0.00  0.00    -0.660 N 
ATOM      3  H   LIG    1       -0.318   1.821   0.914  0.00  0.00    +0.410 HD
ATOM      4  C   LIG    1        1.377   2.241  -0.094  0.00  0.00    +0.520 C 
ATOM      5  O   LIG    1        2.318   1.757  -0.687  0.00  0.00    -0.510 OA
BRANCH   2   9
ATOM      6  C   LIG    1        1.083  -2.685   0.596  0.00  0.00    +0.120 A 
ATOM      7  C   LIG    1        2.170  -1.823   0.618  0.00  0.00    +0.010 A 
ATOM      8  C   LIG    1        1.970  -0.457   0.588  0.00  0.00    +0.060 A 
ATOM      9  C   LIG    1        0.679   0.053   0.536  0.00  0.00    +0.110 A 
ATOM     10  C   LIG    1       -0.408  -0.809   0.518  0.00  0.00    +0.030 A 
ATOM     11  C   LIG    1       -0.206  -2.175   0.543  0.00  0.00    -0.060 A 
BRANCH   6  12
ATOM     12  O   LIG    1        1.282  -4.030   0.626  0.00  0.00    -0.320 OA
BRANCH  12  14
ATOM     13  C   LIG    1        0.537  -6.329   0.640  0.00  0.00    +0.070 C 
ATOM     14  C   LIG    1        0.117  -4.858   0.601  0.00  0.00    +0.170 C 
ENDBRANCH  12  14
ENDBRANCH   6  12
ENDBRANCH   2   9
ENDBRANCH   1   4
BRANCH   1  15
ATOM     15  N   LIG    1        2.498   4.380  -0.334  0.00  0.00    -0.710 N 
ATOM     16  H   LIG    1        3.157   3.915  -0.872  0.00  0.00    +0.410 HD
ATOM     17  C   LIG    1        2.759   5.618   0.131  0.00  0.00    +0.570 C 
ATOM     18  O   LIG    1        1.933   6.201   0.805  0.00  0.00    -0.530 OA
BRANCH  17  19
ATOM     19  C   LIG    1        4.051   6.266  -0.178  0.00  0.00    -0.140 A 
ATOM     20  C   LIG    1        5.005   5.597  -0.947  0.00  0.00    +0.050 A 
ATOM     21  C   LIG    1        6.207   6.209  -1.235  0.00  0.00    +0.000 A 
ATOM     22  C   LIG    1        6.473   7.479  -0.756  0.00  0.00    -0.060 A 
ATOM     23  C   LIG    1        5.534   8.146   0.011  0.00  0.00    +0.000 A 
ATOM     24  C   LIG    1        7.790   8.140  -1.071  0.00  0.00    +0.100 C 
ATOM     25  C   LIG    1        4.326   7.547   0.302  0.00  0.00    +0.090 A 
ENDBRANCH  17  19
ENDBRANCH   1  15
BRANCH   1  26
ATOM     26  C   LIG    1        0.166   4.184  -1.046  0.00  0.00    -0.020 C 
ATOM     27  C   LIG    1        0.676   3.903  -2.461  0.00  0.00    +0.030 C 
ATOM     28  C   LIG    1       -0.095   5.683  -0.887  0.00  0.00    +0.040 C 
ENDBRANCH   1  26
TORSDOF 7
