REMARK  Name = ZINCtV00000tbGaz.0
REMARK                            x       y       z     vdW  Elec       q    Type
REMARK                         _______ _______ _______ _____ _____    ______ ____
ROOT
ATOM      1  C   LIG    1        0.782   4.188   0.091  0.00  0.00    +0.290 C 
ENDROOT
BRANCH   1   2
ATOM      2  C   LIG    1        1.357   5.435  -0.529  0.00  0.00    -0.090 A 
ATOM      3  C   LIG    1        2.641   5.835  -0.210  0.00  0.00    +0.040 A 
ATOM      4  C   LIG    1        3.172   6.976  -0.780  0.00  0.00    +0.000 A 
ATOM      5  C   LIG    1        2.411   7.727  -1.665  0.00  0.00    +0.090 A 
ATOM      6  C   LIG    1        1.120   7.326  -1.979  0.00  0.00    +0.010 A 
ATOM      7  C   LIG    1        0.596   6.181  -1.411  0.00  0.00    +0.040 A 
BRANCH   5   8
ATOM      8  O   LIG    1        2.929   8.852  -2.223  0.00  0.00    -0.260 OA
BRANCH   8   9
ATOM      9  C   LIG    1        3.957   8.714  -3.101  0.00  0.00    +0.120 A 
ATOM     10  C   LIG    1        4.368   7.449  -3.496  0.00  0.00    -0.060 A 
ATOM     11  C   LIG    1        5.411   7.311  -4.392  0.00  0.00    +0.050 A 
ATOM     12  C   LIG    1        6.051   8.432  -4.886  0.00  0.00    -0.020 A 
ATOM     13  C   LIG    1        5.647   9.694  -4.490  0.00  0.00    +0.050 A 
ATOM     14  C   LIG    1        4.602   9.837  -3.599  0.00  0.00    -0.020 A 
ENDBRANCH   8   9
ENDBRANCH   5   8
ENDBRANCH   1   2
BRANCH   1  15
ATOM     15  N   LIG    1        1.813   3.148   0.142  0.00  0.00    -0.740 N 
ATOM     16  H   LIG    1        2.751   3.396   0.158  0.00  0.00    +0.390 HD
BRANCH  15  20
ATOM     17  N   LIG    1        1.536  -0.399   0.227  0.00  0.00    -0.370 N 
ATOM     18  N   LIG    1        0.190  -0.016   0.185  0.00  0.00    -0.270 NA
ATOM     19  C   LIG    1        0.133   1.291   0.150  0.00  0.00    +0.190 A 
ATOM     20  C   LIG    1        1.443   1.790   0.169  0.00  0.00    +0.070 A 
ATOM     21  C   LIG    1        2.292   0.732   0.216  0.00  0.00    +0.010 A 
BRANCH  21  22
ATOM     22  C   LIG    1        3.797   0.798   0.251  0.00  0.00    +0.100 C 
ATOM     23  C   LIG    1        4.341   0.783  -1.179  0.00  0.00    +0.030 C 
ENDBRANCH  21  22
BRANCH  17  24
ATOM     24  C   LIG    1        2.042  -1.773   0.275  0.00  0.00    +0.320 C 
BRANCH  24  25
ATOM     25  C   LIG    1        2.253  -2.288  -1.150  0.00  0.00    +0.000 C 
BRANCH  25  27
ATOM     26  C   LIG    1        2.992  -4.239  -2.526  0.00  0.00    +0.010 C 
ATOM     27  C   LIG    1        2.780  -3.724  -1.101  0.00  0.00    +0.010 C 
ENDBRANCH  25  27
ENDBRANCH  24  25
ENDBRANCH  17  24
ENDBRANCH  15  20
ENDBRANCH   1  15
BRANCH   1  28
ATOM     28  C   LIG    1        0.299   4.498   1.509  0.00  0.00    +0.010 C 
BRANCH  28  29
ATOM     29  C   LIG    1       -0.396   3.266   2.092  0.00  0.00    +0.000 C 
ATOM     30  C   LIG    1       -0.878   3.577   3.511  0.00  0.00    +0.000 C 
ENDBRANCH  28  29
ENDBRANCH   1  28
TORSDOF 11
