REMARK  Name = ZINCrD000000BXgv.0
REMARK                            x       y       z     vdW  Elec       q    Type
REMARK                         _______ _______ _______ _____ _____    ______ ____
ROOT
ATOM      1  O   LIG    1        3.401   3.646  -0.895  0.00  0.00    -0.570 OA
ATOM      2  C   LIG    1        2.453   4.221  -0.398  0.00  0.00    +0.710 C 
ATOM      3  N   LIG    1        1.410   3.512   0.078  0.00  0.00    -0.740 N 
ATOM      4  H   LIG    1        0.653   3.971   0.475  0.00  0.00    +0.400 HD
ATOM      5  N   LIG    1        2.444   5.566  -0.323  0.00  0.00    -0.680 N 
ATOM      6  H   LIG    1        1.660   6.028   0.013  0.00  0.00    +0.410 HD
ENDROOT
BRANCH   3   7
ATOM      7  C   LIG    1        1.419   2.050  -0.004  0.00  0.00    +0.250 C 
ATOM      8  C   LIG    1        2.160   1.473   1.207  0.00  0.00    -0.010 C 
ATOM      9  C   LIG    1        2.097  -0.055   1.154  0.00  0.00    +0.230 C 
ATOM     10  O   LIG    1        0.731  -0.474   1.126  0.00  0.00    -0.370 OA
ATOM     11  C   LIG    1        0.000  -0.004  -0.009  0.00  0.00    +0.210 C 
ATOM     12  C   LIG    1       -0.021   1.527  -0.003  0.00  0.00    +0.010 C 
BRANCH  11  13
ATOM     13  C   LIG    1       -1.412  -0.526   0.051  0.00  0.00    -0.140 A 
ATOM     14  C   LIG    1       -2.052  -0.955  -1.101  0.00  0.00    +0.080 A 
ATOM     15  C   LIG    1       -3.349  -1.432  -0.998  0.00  0.00    -0.030 A 
ATOM     16  C   LIG    1       -3.961  -1.455   0.241  0.00  0.00    +0.260 A 
ATOM     17  N   LIG    1       -3.324  -1.034   1.316  0.00  0.00    -0.490 NA
ATOM     18  C   LIG    1       -2.088  -0.579   1.256  0.00  0.00    +0.290 A 
ENDBRANCH  11  13
ENDBRANCH   3   7
BRANCH   5  19
ATOM     19  C   LIG    1        3.567   6.297  -0.728  0.00  0.00    +0.150 A 
ATOM     20  C   LIG    1        3.912   7.467  -0.063  0.00  0.00    +0.020 A 
ATOM     21  C   LIG    1        5.022   8.185  -0.460  0.00  0.00    +0.010 A 
ATOM     22  C   LIG    1        5.787   7.744  -1.531  0.00  0.00    +0.140 A 
ATOM     23  C   LIG    1        5.440   6.578  -2.200  0.00  0.00    +0.040 A 
ATOM     24  C   LIG    1        4.333   5.857  -1.800  0.00  0.00    +0.060 A 
BRANCH  22  25
ATOM     25  N   LIG    1        6.912   8.477  -1.939  0.00  0.00    -0.320 N 
ATOM     26  C   LIG    1        7.360   9.624  -1.379  0.00  0.00    +0.230 A 
ATOM     27  C   LIG    1        8.464  10.010  -2.059  0.00  0.00    -0.110 A 
ATOM     28  C   LIG    1        8.699   9.070  -3.068  0.00  0.00    +0.250 A 
ATOM     29  N   LIG    1        7.773   8.149  -2.993  0.00  0.00    -0.290 NA
ENDBRANCH  22  25
ENDBRANCH   5  19
TORSDOF 4
