REMARK  Name = ZINCrD00000F5LwU.0
REMARK                            x       y       z     vdW  Elec       q    Type
REMARK                         _______ _______ _______ _____ _____    ______ ____
ROOT
ATOM      1  C   LIG    1        0.700   7.781   0.107  0.00  0.00    +0.210 C 
ATOM      2  N   LIG    1        1.088   9.020   0.000  0.00  0.00    -0.240 NA
ENDROOT
BRANCH   1  15
ATOM      3  C   LIG    1       -1.209   5.861  -0.088  0.00  0.00    +0.300 C 
ATOM      4  N   LIG    1       -0.041   4.977  -0.045  0.00  0.00    -0.540 N 
ATOM      5  C   LIG    1       -0.113   3.586  -0.036  0.00  0.00    +0.160 A 
ATOM      6  C   LIG    1       -1.217   2.735  -0.064  0.00  0.00    -0.030 A 
ATOM      7  C   LIG    1       -1.039   1.367  -0.052  0.00  0.00    +0.050 A 
ATOM      8  C   LIG    1        0.234   0.829  -0.002  0.00  0.00    -0.020 A 
ATOM      9  C   LIG    1        1.335   1.667   0.026  0.00  0.00    +0.070 A 
ATOM     10  C   LIG    1        1.161   3.033   0.009  0.00  0.00    -0.140 A 
ATOM     11  C   LIG    1        2.139   4.186   0.031  0.00  0.00    +0.010 C 
ATOM     12  C   LIG    1        3.049   4.139  -1.198  0.00  0.00    +0.070 C 
ATOM     13  C   LIG    1        2.969   4.158   1.315  0.00  0.00    +0.070 C 
ATOM     14  C   LIG    1        1.262   5.419  -0.007  0.00  0.00    +0.190 C 
ATOM     15  C   LIG    1        1.675   6.698  -0.003  0.00  0.00    -0.050 C 
ENDBRANCH   1  15
BRANCH   2  16
ATOM     16  N   LIG    1        0.153  10.058   0.106  0.00  0.00    -0.590 N 
ATOM     17  H   LIG    1       -0.783   9.854   0.259  0.00  0.00    +0.380 HD
ATOM     18  C   LIG    1        0.555  11.340  -0.005  0.00  0.00    +0.530 C 
ATOM     19  O   LIG    1        1.725  11.595  -0.196  0.00  0.00    -0.480 OA
BRANCH  18  20
ATOM     20  C   LIG    1       -0.451  12.457   0.109  0.00  0.00    +0.170 C 
BRANCH  20  21
ATOM     21  C   LIG    1        0.250  13.781  -0.050  0.00  0.00    +0.050 A 
ATOM     22  C   LIG    1       -0.067  14.736  -0.941  0.00  0.00    +0.140 A 
ATOM     23  N   LIG    1        0.821  15.790  -0.755  0.00  0.00    -0.420 N 
ATOM     24  C   LIG    1        1.078  17.035  -1.283  0.00  0.00    +0.220 A 
ATOM     25  C   LIG    1        2.074  17.744  -0.782  0.00  0.00    +0.010 A 
ATOM     26  S   LIG    1        2.774  16.742   0.501  0.00  0.00    +0.160 S 
ATOM     27  C   LIG    1        1.641  15.404   0.260  0.00  0.00    +0.160 A 
ATOM     28  N   LIG    1        1.291  14.210   0.677  0.00  0.00    -0.420 NA
ENDBRANCH  20  21
ENDBRANCH  18  20
ENDBRANCH   2  16
TORSDOF 4
