REMARK  Name = ZINCpk00000KfLKP.0
REMARK                            x       y       z     vdW  Elec       q    Type
REMARK                         _______ _______ _______ _____ _____    ______ ____
ROOT
ATOM      1  C   LIG    1       -8.738  -5.314   0.024  0.00  0.00    +0.340 C 
ATOM      2  C   LIG    1       -8.427  -6.825   0.037  0.00  0.00    +0.060 C 
ATOM      3  C   LIG    1       -6.988  -6.876   0.615  0.00  0.00    +0.050 C 
ATOM      4  C   LIG    1       -6.362  -5.597   0.005  0.00  0.00    +0.250 C 
ATOM      5  N   LIG    1       -7.451  -4.603   0.015  0.00  0.00    -0.610 N 
ATOM      6  C   LIG    1       -7.292  -3.264   0.021  0.00  0.00    +0.530 C 
ATOM      7  O   LIG    1       -8.264  -2.539   0.029  0.00  0.00    -0.500 OA
ENDROOT
BRANCH   1  10
ATOM      8  C   LIG    1      -11.089  -4.423  -2.530  0.00  0.00    +0.190 A 
ATOM      9  N   LIG    1      -10.830  -4.651  -1.265  0.00  0.00    -0.470 NA
ATOM     10  C   LIG    1       -9.524  -4.965  -1.214  0.00  0.00    +0.170 A 
ATOM     11  N   LIG    1       -9.062  -4.909  -2.428  0.00  0.00    -0.370 NA
ATOM     12  O   LIG    1       -9.947  -4.604  -3.200  0.00  0.00    +0.080 OA
BRANCH   8  14
ATOM     13  C   LIG    1      -12.544  -2.507  -3.133  0.00  0.00    +0.060 C 
ATOM     14  C   LIG    1      -12.421  -4.032  -3.118  0.00  0.00    +0.180 C 
ENDBRANCH   8  14
ENDBRANCH   1  10
BRANCH   6  15
ATOM     15  C   LIG    1       -5.908  -2.670   0.017  0.00  0.00    +0.250 C 
BRANCH  15  16
ATOM     16  O   LIG    1       -6.002  -1.244   0.025  0.00  0.00    -0.280 OA
BRANCH  16  17
ATOM     17  C   LIG    1       -4.836  -0.549   0.023  0.00  0.00    +0.160 A 
ATOM     18  C   LIG    1       -4.857   0.841   0.030  0.00  0.00    -0.010 A 
ATOM     19  C   LIG    1       -3.676   1.549   0.028  0.00  0.00    +0.130 A 
ATOM     20  C   LIG    1       -2.455   0.869   0.018  0.00  0.00    -0.180 A 
ATOM     21  C   LIG    1       -2.439  -0.529   0.005  0.00  0.00    +0.090 A 
ATOM     22  C   LIG    1       -3.624  -1.230   0.013  0.00  0.00    -0.090 A 
BRANCH  20  23
ATOM     23  C   LIG    1       -1.187   1.624   0.017  0.00  0.00    +0.570 C 
ATOM     24  O   LIG    1       -1.204   2.840   0.023  0.00  0.00    -0.540 OA
ATOM     25  N   LIG    1       -0.011   0.966   0.007  0.00  0.00    -0.850 N 
ATOM     26  H   LIG    1        0.822   1.462   0.002  0.00  0.00    +0.410 HD
ATOM     27  H   LIG    1        0.002  -0.004   0.002  0.00  0.00    +0.400 HD
ENDBRANCH  20  23
ENDBRANCH  16  17
ENDBRANCH  15  16
ENDBRANCH   6  15
TORSDOF 6
