REMARK  Name = ZINCvU0000000Jrm.0
REMARK                            x       y       z     vdW  Elec       q    Type
REMARK                         _______ _______ _______ _____ _____    ______ ____
ROOT
ATOM      1  N   LIG    1        2.095  -2.880   0.013  0.00  0.00    -0.620 N 
ATOM      2  H   LIG    1        3.006  -2.547   0.040  0.00  0.00    +0.420 HD
ATOM      3  C   LIG    1        1.865  -4.207  -0.038  0.00  0.00    +0.560 C 
ATOM      4  O   LIG    1        0.724  -4.626  -0.072  0.00  0.00    -0.490 OA
ENDROOT
BRANCH   3   5
ATOM      5  C   LIG    1        2.998  -5.153  -0.055  0.00  0.00    -0.130 A 
ATOM      6  C   LIG    1        4.311  -4.674  -0.022  0.00  0.00    +0.070 A 
ATOM      7  C   LIG    1        5.365  -5.559  -0.031  0.00  0.00    +0.030 A 
ATOM      8  C   LIG    1        5.126  -6.928  -0.085  0.00  0.00    +0.140 A 
ATOM      9  C   LIG    1        3.822  -7.408  -0.123  0.00  0.00    +0.030 A 
ATOM     10  C   LIG    1        2.762  -6.529  -0.108  0.00  0.00    +0.110 A 
BRANCH   8  11
ATOM     11  N   LIG    1        6.200  -7.824  -0.100  0.00  0.00    -0.540 N 
ATOM     12  C   LIG    1        6.464  -8.654   0.916  0.00  0.00    +0.530 C 
ATOM     13  C   LIG    1        7.683  -9.484   0.576  0.00  0.00    +0.110 C 
ATOM     14  C   LIG    1        8.087  -8.976  -0.823  0.00  0.00    +0.110 C 
ATOM     15  O   LIG    1        5.826  -8.732   1.944  0.00  0.00    -0.460 OA
ATOM     16  C   LIG    1        7.051  -7.917  -1.129  0.00  0.00    +0.530 C 
ATOM     17  O   LIG    1        6.999  -7.258  -2.145  0.00  0.00    -0.470 OA
ENDBRANCH   8  11
ENDBRANCH   3   5
BRANCH   1  21
ATOM     18  C   LIG    1        0.002  -0.006   0.084  0.00  0.00    +0.130 A 
ATOM     19  C   LIG    1       -1.125  -0.739   0.039  0.00  0.00    -0.110 A 
ATOM     20  S   LIG    1       -0.673  -2.441  -0.015  0.00  0.00    +0.210 S 
ATOM     21  C   LIG    1        1.029  -1.991   0.028  0.00  0.00    +0.270 A 
ATOM     22  N   LIG    1        1.132  -0.699   0.071  0.00  0.00    -0.500 NA
BRANCH  18  26
ATOM     23  C   LIG    1       -0.056   4.243   0.235  0.00  0.00    -0.060 A 
ATOM     24  C   LIG    1        1.152   3.570   0.231  0.00  0.00    +0.000 A 
ATOM     25  C   LIG    1        1.177   2.191   0.182  0.00  0.00    +0.050 A 
ATOM     26  C   LIG    1       -0.018   1.476   0.137  0.00  0.00    -0.030 A 
ATOM     27  C   LIG    1       -1.233   2.160   0.136  0.00  0.00    +0.020 A 
ATOM     28  C   LIG    1       -1.246   3.539   0.191  0.00  0.00    +0.010 A 
BRANCH  23  30
ATOM     29  C   LIG    1        0.658   6.312  -0.929  0.00  0.00    +0.040 C 
ATOM     30  C   LIG    1       -0.077   5.749   0.289  0.00  0.00    -0.030 C 
ATOM     31  C   LIG    1        0.617   6.223   1.567  0.00  0.00    +0.040 C 
ATOM     32  C   LIG    1       -1.526   6.239   0.283  0.00  0.00    +0.030 C 
ENDBRANCH  23  30
ENDBRANCH  18  26
ENDBRANCH   1  21
TORSDOF 5
