REMARK  Name = ZINCrD00000F5LwM.0
REMARK                            x       y       z     vdW  Elec       q    Type
REMARK                         _______ _______ _______ _____ _____    ______ ____
ROOT
ATOM      1  C   LIG    1       -0.660   2.981   1.342  0.00  0.00    +0.160 C 
ENDROOT
BRANCH   1   2
ATOM      2  O   LIG    1       -0.618   1.592   1.010  0.00  0.00    -0.380 OA
ATOM      3  C   LIG    1       -0.721   1.325  -0.390  0.00  0.00    +0.200 C 
ENDBRANCH   1   2
BRANCH   1   4
ATOM      4  C   LIG    1        0.643   3.378   2.038  0.00  0.00    +0.280 C 
BRANCH   4   6
ATOM      5  C   LIG    1        3.006   3.573   1.478  0.00  0.00    +0.580 C 
ATOM      6  N   LIG    1        1.768   3.181   1.120  0.00  0.00    -0.730 N 
ATOM      7  H   LIG    1        1.620   2.768   0.255  0.00  0.00    +0.400 HD
ATOM      8  O   LIG    1        3.191   4.090   2.563  0.00  0.00    -0.520 OA
BRANCH   5  14
ATOM      9  C   LIG    1        5.492   3.771   0.860  0.00  0.00    +0.120 A 
ATOM     10  C   LIG    1        6.348   3.489  -0.119  0.00  0.00    -0.230 A 
ATOM     11  S   LIG    1        5.516   2.734  -1.467  0.00  0.00    +0.230 S 
ATOM     12  C   LIG    1        4.010   2.804  -0.673  0.00  0.00    -0.040 A 
ATOM     13  C   LIG    1        7.826   3.784  -0.080  0.00  0.00    +0.150 C 
ATOM     14  C   LIG    1        4.135   3.375   0.556  0.00  0.00    -0.170 A 
BRANCH   9  16
ATOM     15  C   LIG    1        6.251   3.506   3.100  0.00  0.00    +0.230 C 
ATOM     16  O   LIG    1        5.858   4.366   2.029  0.00  0.00    -0.300 OA
ENDBRANCH   9  16
ENDBRANCH   5  14
ENDBRANCH   4   6
ENDBRANCH   1   4
BRANCH   1  17
ATOM     17  C   LIG    1       -1.840   3.247   2.278  0.00  0.00    +0.040 C 
BRANCH  17  18
ATOM     18  C   LIG    1       -3.151   2.968   1.539  0.00  0.00    +0.280 C 
BRANCH  18  19
ATOM     19  N   LIG    1       -4.281   3.223   2.435  0.00  0.00    -0.680 N 
ATOM     20  H   LIG    1       -4.121   3.521   3.344  0.00  0.00    +0.420 HD
BRANCH  19  21
ATOM     21  C   LIG    1       -5.571   3.038   1.987  0.00  0.00    +0.400 A 
ATOM     22  N   LIG    1       -5.890   2.650   0.798  0.00  0.00    -0.540 NA
ATOM     23  C   LIG    1       -7.196   2.512   0.509  0.00  0.00    +0.340 A 
ATOM     24  N   LIG    1       -7.761   2.122  -0.648  0.00  0.00    -0.460 NA
ATOM     25  C   LIG    1       -9.061   2.034  -0.798  0.00  0.00    +0.320 A 
ATOM     26  C   LIG    1       -9.930   2.341   0.235  0.00  0.00    -0.030 A 
ATOM     27  C   LIG    1       -9.410   2.749   1.452  0.00  0.00    +0.130 A 
ATOM     28  C   LIG    1       -8.027   2.835   1.588  0.00  0.00    -0.250 A 
ATOM     29  S   LIG    1       -7.017   3.305   2.951  0.00  0.00    +0.050 S 
ENDBRANCH  19  21
ENDBRANCH  18  19
ENDBRANCH  17  18
ENDBRANCH   1  17
TORSDOF 9
