REMARK  Name = ZINCrD000006Vqnb.0
REMARK                            x       y       z     vdW  Elec       q    Type
REMARK                         _______ _______ _______ _____ _____    ______ ____
ROOT
ATOM      1  C   LIG    1       -2.080   2.502  -3.457  0.00  0.00    -0.130 A 
ATOM      2  C   LIG    1       -1.058   3.265  -2.890  0.00  0.00    +0.080 A 
ATOM      3  C   LIG    1       -0.395   2.802  -1.772  0.00  0.00    +0.020 A 
ATOM      4  C   LIG    1       -0.742   1.585  -1.213  0.00  0.00    -0.080 A 
ATOM      5  C   LIG    1       -1.750   0.821  -1.773  0.00  0.00    +0.030 A 
ATOM      6  C   LIG    1       -2.425   1.275  -2.888  0.00  0.00    +0.040 A 
ENDROOT
BRANCH   1   8
ATOM      7  O   LIG    1       -2.492   4.060  -5.149  0.00  0.00    -0.530 OA
ATOM      8  C   LIG    1       -2.795   2.991  -4.655  0.00  0.00    +0.560 C 
ATOM      9  N   LIG    1       -3.781   2.252  -5.200  0.00  0.00    -0.720 N 
ATOM     10  H   LIG    1       -4.022   1.399  -4.806  0.00  0.00    +0.400 HD
BRANCH   9  11
ATOM     11  C   LIG    1       -4.489   2.737  -6.388  0.00  0.00    +0.390 C 
BRANCH  11  12
ATOM     12  C   LIG    1       -5.536   1.732  -6.793  0.00  0.00    -0.050 A 
ATOM     13  C   LIG    1       -6.812   1.709  -6.366  0.00  0.00    -0.030 A 
ATOM     14  C   LIG    1       -7.434   0.606  -6.995  0.00  0.00    -0.070 A 
ATOM     15  C   LIG    1       -6.502   0.022  -7.769  0.00  0.00    +0.190 A 
ATOM     16  O   LIG    1       -5.356   0.711  -7.647  0.00  0.00    -0.170 OA
ENDBRANCH  11  12
ENDBRANCH   9  11
ENDBRANCH   1   8
BRANCH   4  17
ATOM     17  C   LIG    1       -0.013   1.086   0.008  0.00  0.00    +0.330 C 
BRANCH  17  18
ATOM     18  N   LIG    1       -0.698   1.558   1.213  0.00  0.00    -1.110 NA
ATOM     19  H   LIG    1       -1.353   2.272   1.151  0.00  0.00    +0.420 HD
BRANCH  18  20
ATOM     20  S   LIG    1       -0.356   0.875   2.682  0.00  0.00    +2.700 S 
ATOM     21  O   LIG    1       -0.416  -0.532   2.494  0.00  0.00    -0.950 OA
ATOM     22  O   LIG    1       -1.147   1.565   3.640  0.00  0.00    -0.950 OA
BRANCH  20  23
ATOM     23  C   LIG    1        1.323   1.256   3.057  0.00  0.00    -0.670 A 
ATOM     24  C   LIG    1        2.331   0.398   2.659  0.00  0.00    +0.130 A 
ATOM     25  C   LIG    1        3.649   0.699   2.947  0.00  0.00    +0.030 A 
ATOM     26  C   LIG    1        3.959   1.852   3.643  0.00  0.00    +0.090 A 
ATOM     27  C   LIG    1        2.949   2.709   4.046  0.00  0.00    -0.060 A 
ATOM     28 CL   LIG    1        3.337   4.158   4.919  0.00  0.00    -0.050 Cl
ATOM     29  C   LIG    1        1.631   2.410   3.752  0.00  0.00    +0.140 A 
ENDBRANCH  20  23
ENDBRANCH  18  20
ENDBRANCH  17  18
ENDBRANCH   4  17
TORSDOF 7
