REMARK  Name = ZINCrH000004osBg.0
REMARK                            x       y       z     vdW  Elec       q    Type
REMARK                         _______ _______ _______ _____ _____    ______ ____
ROOT
ATOM      1  C   LIG    1        1.801  -1.517   2.042  0.00  0.00    +0.030 A 
ATOM      2  N   LIG    1        2.813  -1.121   2.789  0.00  0.00    -0.240 NA
ATOM      3  N   LIG    1        2.836   0.162   2.858  0.00  0.00    -0.220 N 
ATOM      4  C   LIG    1        1.809   0.687   2.137  0.00  0.00    -0.020 A 
ATOM      5  C   LIG    1        1.168   1.994   1.727  0.00  0.00    +0.130 C 
ATOM      6  C   LIG    1       -0.242   1.610   1.226  0.00  0.00    +0.060 C 
ATOM      7  C   LIG    1       -0.036   0.144   0.783  0.00  0.00    +0.110 C 
ATOM      8  C   LIG    1        1.129  -0.352   1.604  0.00  0.00    -0.150 A 
ENDROOT
BRANCH   3   9
ATOM      9  C   LIG    1        3.781   0.911   3.572  0.00  0.00    +0.120 A 
ATOM     10  C   LIG    1        3.713   2.297   3.572  0.00  0.00    +0.060 A 
ATOM     11  C   LIG    1        4.644   3.034   4.282  0.00  0.00    -0.030 A 
ATOM     12  C   LIG    1        5.650   2.391   4.982  0.00  0.00    +0.070 A 
ATOM     13  C   LIG    1        5.724   1.010   4.979  0.00  0.00    +0.040 A 
ATOM     14 CL   LIG    1        4.555   4.767   4.289  0.00  0.00    -0.040 Cl
ATOM     15  C   LIG    1        4.793   0.267   4.277  0.00  0.00    +0.120 A 
ATOM     16  F   LIG    1        4.865  -1.082   4.275  0.00  0.00    -0.110 F 
ENDBRANCH   3   9
BRANCH   1  18
ATOM     17  N   LIG    1        2.228  -3.924   2.132  0.00  0.00    -0.590 N 
ATOM     18  C   LIG    1        1.437  -2.912   1.723  0.00  0.00    +0.610 C 
ATOM     19  O   LIG    1        0.425  -3.147   1.093  0.00  0.00    -0.530 OA
ATOM     20  C   LIG    1        3.414  -3.645   2.946  0.00  0.00    +0.300 C 
BRANCH  17  22
ATOM     21  C   LIG    1        2.994  -5.858   0.845  0.00  0.00    +0.040 C 
ATOM     22  C   LIG    1        1.901  -5.304   1.762  0.00  0.00    +0.240 C 
BRANCH  22  23
ATOM     23  C   LIG    1        1.810  -6.162   3.025  0.00  0.00    +0.150 C 
ATOM     24  C   LIG    1        1.406  -7.604   2.649  0.00  0.00    +0.020 C 
ATOM     25  C   LIG    1        0.433  -7.983   3.799  0.00  0.00    +0.000 C 
ATOM     26  C   LIG    1       -0.241  -6.616   4.076  0.00  0.00    +0.190 C 
ATOM     27  O   LIG    1        0.798  -5.642   3.894  0.00  0.00    -0.370 OA
ENDBRANCH  22  23
ENDBRANCH  17  22
ENDBRANCH   1  18
TORSDOF 4
