REMARK  Name = ZINCrD000000gVlq.0
REMARK                            x       y       z     vdW  Elec       q    Type
REMARK                         _______ _______ _______ _____ _____    ______ ____
ROOT
ATOM      1  N   LIG    1        5.421   2.158  -0.040  0.00  0.00    -0.660 N 
ATOM      2  H   LIG    1        5.976   1.515   0.429  0.00  0.00    +0.410 HD
ATOM      3  C   LIG    1        5.992   3.179  -0.710  0.00  0.00    +0.560 C 
ATOM      4  O   LIG    1        5.296   4.032  -1.226  0.00  0.00    -0.500 OA
ENDROOT
BRANCH   1   9
ATOM      5  C   LIG    1       -0.005   0.014   0.020  0.00  0.00    +0.270 A 
ATOM      6  N   LIG    1        1.218  -0.424  -0.003  0.00  0.00    -0.480 NA
ATOM      7  C   LIG    1        2.065   0.640  -0.004  0.00  0.00    +0.040 A 
ATOM      8  C   LIG    1        3.454   0.767  -0.024  0.00  0.00    +0.050 A 
ATOM      9  C   LIG    1        4.027   2.026  -0.020  0.00  0.00    +0.150 A 
ATOM     10  C   LIG    1        3.223   3.163   0.004  0.00  0.00    +0.070 A 
ATOM     11  C   LIG    1        1.850   3.046   0.024  0.00  0.00    +0.070 A 
ATOM     12  C   LIG    1        1.262   1.791   0.020  0.00  0.00    -0.000 A 
ATOM     13  O   LIG    1       -0.019   1.356   0.035  0.00  0.00    -0.210 OA
BRANCH   5  15
ATOM     14  C   LIG    1       -1.212  -1.756   1.269  0.00  0.00    +0.070 C 
ATOM     15  C   LIG    1       -1.233  -0.860   0.029  0.00  0.00    +0.020 C 
ATOM     16  C   LIG    1       -1.249  -1.730  -1.229  0.00  0.00    +0.070 C 
ATOM     17  C   LIG    1       -2.485   0.020   0.056  0.00  0.00    +0.060 C 
ENDBRANCH   5  15
ENDBRANCH   1   9
BRANCH   3  18
ATOM     18  C   LIG    1        7.464   3.262  -0.816  0.00  0.00    -0.110 A 
ATOM     19  C   LIG    1        8.265   2.284  -0.224  0.00  0.00    +0.060 A 
ATOM     20  C   LIG    1        9.639   2.364  -0.325  0.00  0.00    +0.050 A 
ATOM     21  C   LIG    1       10.227   3.410  -1.012  0.00  0.00    +0.050 A 
ATOM     22  C   LIG    1        9.438   4.388  -1.605  0.00  0.00    +0.130 A 
ATOM     23  C   LIG    1        8.057   4.314  -1.514  0.00  0.00    +0.120 A 
BRANCH  22  24
ATOM     24  N   LIG    1       10.039   5.447  -2.301  0.00  0.00    -0.330 N 
ATOM     25  C   LIG    1       11.353   5.613  -2.566  0.00  0.00    +0.470 A 
ATOM     26  N   LIG    1       11.476   6.730  -3.234  0.00  0.00    -0.330 NA
ATOM     27  N   LIG    1       10.330   7.282  -3.410  0.00  0.00    -0.030 NA
ATOM     28  N   LIG    1        9.403   6.561  -2.877  0.00  0.00    -0.070 NA
ENDBRANCH  22  24
ENDBRANCH   3  18
TORSDOF 4
