REMARK  Name = ZINCqH0000032Ngb.0
REMARK                            x       y       z     vdW  Elec       q    Type
REMARK                         _______ _______ _______ _____ _____    ______ ____
ROOT
ATOM      1  C   LIG    1       -2.473   1.054   0.363  0.00  0.00    +0.450 A 
ATOM      2  C   LIG    1       -1.221   0.841   0.956  0.00  0.00    -0.230 A 
ATOM      3  C   LIG    1       -1.082   1.068   2.339  0.00  0.00    +0.340 A 
ATOM      4  N   LIG    1        0.216   0.785   2.665  0.00  0.00    -0.450 N 
ATOM      5  C   LIG    1        0.903   0.383   1.549  0.00  0.00    +0.100 A 
ATOM      6  C   LIG    1        2.358  -0.010   1.523  0.00  0.00    +0.150 C 
ATOM      7  N   LIG    1       -2.143   1.486   3.026  0.00  0.00    -0.550 NA
ATOM      8  C   LIG    1       -3.298   1.677   2.425  0.00  0.00    +0.540 A 
ATOM      9  C   LIG    1        0.087   0.393   0.483  0.00  0.00    -0.160 A 
ATOM     10  C   LIG    1        0.452   0.021  -0.931  0.00  0.00    +0.120 C 
ATOM     11  N   LIG    1       -3.473   1.472   1.132  0.00  0.00    -0.530 NA
ENDROOT
BRANCH   1  13
ATOM     12  C   LIG    1       -3.872   1.056  -1.550  0.00  0.00    +0.520 C 
ATOM     13  N   LIG    1       -2.662   0.841  -0.996  0.00  0.00    -0.650 N 
ATOM     14  H   LIG    1       -1.924   0.536  -1.546  0.00  0.00    +0.420 HD
ATOM     15  O   LIG    1       -4.817   1.348  -0.849  0.00  0.00    -0.460 OA
BRANCH  12  16
ATOM     16  C   LIG    1       -4.050   0.935  -3.042  0.00  0.00    -0.110 C 
ATOM     17  C   LIG    1       -5.516   0.780  -3.477  0.00  0.00    +0.060 C 
ATOM     18  C   LIG    1       -5.020  -0.245  -4.510  0.00  0.00    +0.020 C 
ATOM     19  C   LIG    1       -3.823  -0.489  -3.575  0.00  0.00    +0.040 C 
BRANCH  16  21
ATOM     20  C   LIG    1       -3.829   3.391  -3.446  0.00  0.00    +0.010 C 
ATOM     21  C   LIG    1       -3.288   2.009  -3.820  0.00  0.00    +0.050 C 
ENDBRANCH  16  21
ENDBRANCH  12  16
ENDBRANCH   1  13
BRANCH   4  22
ATOM     22  C   LIG    1        0.788   0.895   4.010  0.00  0.00    +0.320 C 
BRANCH  22  23
ATOM     23  C   LIG    1        1.352   2.303   4.210  0.00  0.00    +0.130 C 
ATOM     24  C   LIG    1        1.843   2.469   5.661  0.00  0.00    +0.010 C 
ATOM     25  C   LIG    1        3.341   2.829   5.516  0.00  0.00    +0.010 C 
ATOM     26  C   LIG    1        3.409   3.356   4.060  0.00  0.00    +0.210 C 
ATOM     27  O   LIG    1        2.486   2.502   3.350  0.00  0.00    -0.370 OA
ENDBRANCH  22  23
ENDBRANCH   4  22
TORSDOF 5
