REMARK  Name = ZINCkj00000GePp6.0
REMARK                            x       y       z     vdW  Elec       q    Type
REMARK                         _______ _______ _______ _____ _____    ______ ____
ROOT
ATOM      1  C   LIG    1        1.644   1.828  -0.135  0.00  0.00    +0.240 C 
ATOM      2  C   LIG    1        1.426   3.338  -0.257  0.00  0.00    +0.270 C 
ATOM      3  N   LIG    1        2.633   4.072   0.060  0.00  0.00    -0.380 N 
ATOM      4  C   LIG    1        3.735   3.818  -0.879  0.00  0.00    +0.250 C 
ATOM      5  C   LIG    1        5.039   4.082  -0.096  0.00  0.00    +0.060 C 
ATOM      6  C   LIG    1        4.578   4.450   1.335  0.00  0.00    +0.090 C 
ATOM      7  C   LIG    1        3.161   3.807   1.412  0.00  0.00    +0.180 C 
ATOM      8  C   LIG    1        3.378   2.304   1.622  0.00  0.00    +0.340 C 
ATOM      9  H   LIG    1        2.406   5.054   0.007  0.00  0.00    +0.430 HD
ATOM     10  N   LIG    1        2.177   1.566   1.212  0.00  0.00    -1.010 NA
ENDROOT
BRANCH  10  11
ATOM     11  S   LIG    1        1.450   0.478   2.228  0.00  0.00    +2.700 S 
ATOM     12  O   LIG    1        0.060   0.527   1.939  0.00  0.00    -0.930 OA
ATOM     13  O   LIG    1        1.984   0.718   3.522  0.00  0.00    -0.940 OA
BRANCH  11  14
ATOM     14  C   LIG    1        2.000  -1.127   1.752  0.00  0.00    -0.750 A 
ATOM     15  C   LIG    1        3.212  -1.619   2.211  0.00  0.00    +0.180 A 
ATOM     16  C   LIG    1        3.604  -2.887   1.811  0.00  0.00    -0.040 A 
ATOM     17  C   LIG    1        2.779  -3.615   0.974  0.00  0.00    +0.330 A 
ATOM     18  N   LIG    1        1.632  -3.115   0.557  0.00  0.00    -0.490 NA
ATOM     19  C   LIG    1        1.225  -1.915   0.921  0.00  0.00    +0.380 A 
ENDBRANCH  11  14
ENDBRANCH  10  11
BRANCH   1  21
ATOM     20  C   LIG    1       -0.171   1.272  -1.760  0.00  0.00    +0.040 C 
ATOM     21  C   LIG    1        0.314   1.094  -0.319  0.00  0.00    +0.040 C 
ENDBRANCH   1  21
TORSDOF 3
