REMARK  Name = ZINCkj00000GePp6.1
REMARK                            x       y       z     vdW  Elec       q    Type
REMARK                         _______ _______ _______ _____ _____    ______ ____
ROOT
ATOM      1  C   LIG    1       -1.154   1.829  -0.837  0.00  0.00    +0.230 C 
ATOM      2  C   LIG    1       -0.193   1.242   0.210  0.00  0.00    +0.280 C 
ATOM      3  N   LIG    1       -0.324   2.031   1.429  0.00  0.00    -0.390 N 
ATOM      4  C   LIG    1        0.494   1.568   2.561  0.00  0.00    +0.270 C 
ATOM      5  C   LIG    1        0.570   2.811   3.486  0.00  0.00    +0.060 C 
ATOM      6  C   LIG    1        0.342   4.034   2.542  0.00  0.00    +0.080 C 
ATOM      7  C   LIG    1        0.199   3.397   1.155  0.00  0.00    +0.170 C 
ATOM      8  C   LIG    1       -0.811   4.101   0.256  0.00  0.00    +0.340 C 
ATOM      9  H   LIG    1       -1.295   2.085   1.700  0.00  0.00    +0.430 HD
ATOM     10  N   LIG    1       -0.933   3.275  -0.964  0.00  0.00    -1.010 NA
ENDROOT
BRANCH  10  11
ATOM     11  S   LIG    1       -0.823   3.975  -2.460  0.00  0.00    +2.700 S 
ATOM     12  O   LIG    1       -0.177   3.028  -3.300  0.00  0.00    -0.930 OA
ATOM     13  O   LIG    1       -0.330   5.292  -2.252  0.00  0.00    -0.940 OA
BRANCH  11  14
ATOM     14  C   LIG    1       -2.464   4.150  -3.077  0.00  0.00    -0.740 A 
ATOM     15  C   LIG    1       -2.997   3.200  -3.934  0.00  0.00    +0.180 A 
ATOM     16  C   LIG    1       -4.294   3.376  -4.390  0.00  0.00    -0.040 A 
ATOM     17  C   LIG    1       -5.004   4.490  -3.987  0.00  0.00    +0.330 A 
ATOM     18  N   LIG    1       -4.463   5.377  -3.174  0.00  0.00    -0.490 NA
ATOM     19  C   LIG    1       -3.235   5.240  -2.716  0.00  0.00    +0.370 A 
ENDBRANCH  11  14
ENDBRANCH  10  11
BRANCH   1  21
ATOM     20  C   LIG    1       -1.243  -0.332  -2.089  0.00  0.00    +0.040 C 
ATOM     21  C   LIG    1       -0.903   1.157  -2.189  0.00  0.00    +0.050 C 
ENDBRANCH   1  21
TORSDOF 3
