REMARK  Name = ZINCrg000000sXhJ.0
REMARK                            x       y       z     vdW  Elec       q    Type
REMARK                         _______ _______ _______ _____ _____    ______ ____
ROOT
ATOM      1  C   LIG    1       -0.505  -4.232   1.237  0.00  0.00    -0.060 A 
ATOM      2  C   LIG    1       -1.386  -5.280   1.046  0.00  0.00    +0.000 A 
ATOM      3  C   LIG    1       -0.915  -6.579   0.979  0.00  0.00    +0.030 A 
ATOM      4  C   LIG    1        0.436  -6.833   1.114  0.00  0.00    +0.020 A 
ATOM      5  C   LIG    1        1.322  -5.782   1.311  0.00  0.00    +0.140 A 
ATOM      6  C   LIG    1        0.847  -4.479   1.373  0.00  0.00    +0.020 A 
ENDROOT
BRANCH   5   7
ATOM      7  N   LIG    1        2.692  -6.036   1.448  0.00  0.00    -0.670 N 
ATOM      8  H   LIG    1        3.339  -5.408   1.091  0.00  0.00    +0.420 HD
ATOM      9  C   LIG    1        3.111  -7.153   2.075  0.00  0.00    +0.510 C 
ATOM     10  O   LIG    1        2.304  -7.979   2.446  0.00  0.00    -0.520 OA
BRANCH   9  11
ATOM     11  C   LIG    1        4.582  -7.376   2.314  0.00  0.00    +0.320 C 
BRANCH  11  12
ATOM     12  N   LIG    1        4.776  -8.653   3.007  0.00  0.00    -0.710 N 
ATOM     13  H   LIG    1        4.009  -9.202   3.235  0.00  0.00    +0.420 HD
ATOM     14  C   LIG    1        6.019  -9.063   3.327  0.00  0.00    +0.610 C 
ATOM     15  O   LIG    1        6.980  -8.374   3.041  0.00  0.00    -0.520 OA
BRANCH  14  16
ATOM     16  C   LIG    1        6.213 -10.341   4.021  0.00  0.00    -0.090 A 
ATOM     17  C   LIG    1        7.412 -10.876   4.397  0.00  0.00    +0.050 A 
ATOM     18  C   LIG    1        7.128 -12.097   5.028  0.00  0.00    -0.070 A 
ATOM     19  C   LIG    1        5.787 -12.257   5.002  0.00  0.00    +0.210 A 
ATOM     20  O   LIG    1        5.239 -11.197   4.394  0.00  0.00    -0.160 OA
ENDBRANCH  14  16
ENDBRANCH  11  12
ENDBRANCH   9  11
ENDBRANCH   5   7
BRANCH   1  21
ATOM     21  C   LIG    1       -1.022  -2.817   1.303  0.00  0.00    +0.220 C 
BRANCH  21  26
ATOM     22  C   LIG    1       -1.301  -0.783   0.006  0.00  0.00    +0.130 C 
ATOM     23  C   LIG    1       -2.108  -0.483  -1.282  0.00  0.00    +0.040 C 
ATOM     24  C   LIG    1       -2.987  -1.757  -1.403  0.00  0.00    +0.010 C 
ATOM     25  C   LIG    1       -2.055  -2.875  -0.891  0.00  0.00    +0.180 C 
ATOM     26  N   LIG    1       -1.030  -2.235  -0.046  0.00  0.00    -0.500 NA
BRANCH  22  30
ATOM     27  N   LIG    1       -0.032   1.340   0.019  0.00  0.00    -0.860 N 
ATOM     28  H   LIG    1       -0.880   1.811   0.023  0.00  0.00    +0.400 HD
ATOM     29  H   LIG    1        0.800   1.839   0.021  0.00  0.00    +0.400 HD
ATOM     30  C   LIG    1       -0.009  -0.008   0.007  0.00  0.00    +0.520 C 
ATOM     31  O   LIG    1        1.052  -0.596  -0.002  0.00  0.00    -0.520 OA
ENDBRANCH  22  30
ENDBRANCH  21  26
ENDBRANCH   1  21
TORSDOF 7
