REMARK  Name = ZINCpe00000FUkV0.0
REMARK                            x       y       z     vdW  Elec       q    Type
REMARK                         _______ _______ _______ _____ _____    ______ ____
ROOT
ATOM      1  N   LIG    1       -0.011   0.966   0.007  0.00  0.00    -1.120 NA
ATOM      2  H   LIG    1        0.002  -0.004   0.002  0.00  0.00    +0.420 HD
ENDROOT
BRANCH   1   3
ATOM      3  S   LIG    1       -1.456   1.774   0.019  0.00  0.00    +2.700 S 
ATOM      4  O   LIG    1       -1.361   2.752   1.045  0.00  0.00    -0.950 OA
ATOM      5  O   LIG    1       -2.472   0.781  -0.017  0.00  0.00    -0.960 OA
BRANCH   3   6
ATOM      6  C   LIG    1       -1.571   2.658  -1.501  0.00  0.00    -0.680 A 
ATOM      7  C   LIG    1       -1.089   3.950  -1.586  0.00  0.00    +0.140 A 
ATOM      8  C   LIG    1       -1.173   4.646  -2.778  0.00  0.00    -0.050 A 
ATOM      9  C   LIG    1       -1.751   4.052  -3.888  0.00  0.00    +0.160 A 
ATOM     10  C   LIG    1       -2.241   2.752  -3.801  0.00  0.00    +0.080 A 
ATOM     11  C   LIG    1       -2.149   2.059  -2.606  0.00  0.00    +0.070 A 
BRANCH  10  12
ATOM     12  O   LIG    1       -2.808   2.164  -4.888  0.00  0.00    -0.300 OA
ATOM     13  C   LIG    1       -3.289   0.828  -4.726  0.00  0.00    +0.250 C 
ENDBRANCH  10  12
BRANCH   9  14
ATOM     14  O   LIG    1       -1.839   4.737  -5.059  0.00  0.00    -0.300 OA
ATOM     15  C   LIG    1       -1.315   6.066  -5.074  0.00  0.00    +0.250 C 
ENDBRANCH   9  14
ENDBRANCH   3   6
ENDBRANCH   1   3
BRANCH   1  16
ATOM     16  C   LIG    1        1.248   1.716  -0.001  0.00  0.00    +0.300 C 
BRANCH  16  17
ATOM     17  C   LIG    1        2.402   0.777   0.357  0.00  0.00    +0.060 C 
BRANCH  17  19
ATOM     18  N   LIG    1        4.856   0.923   0.636  0.00  0.00    -0.610 N 
ATOM     19  C   LIG    1        3.697   1.549   0.348  0.00  0.00    +0.520 C 
ATOM     20  O   LIG    1        3.696   2.732   0.083  0.00  0.00    -0.540 OA
ATOM     21  C   LIG    1        4.856  -0.506   0.957  0.00  0.00    +0.290 C 
BRANCH  18  22
ATOM     22  C   LIG    1        6.114   1.673   0.628  0.00  0.00    +0.250 C 
ATOM     23  C   LIG    1        6.757   1.606   2.015  0.00  0.00    +0.040 C 
BRANCH  22  24
ATOM     24  C   LIG    1        7.065   1.063  -0.404  0.00  0.00    +0.160 C 
BRANCH  24  26
ATOM     25  C   LIG    1        8.306  -0.925  -0.904  0.00  0.00    +0.200 C 
ATOM     26  O   LIG    1        7.417  -0.263  -0.003  0.00  0.00    -0.390 OA
ENDBRANCH  24  26
ENDBRANCH  22  24
ENDBRANCH  18  22
ENDBRANCH  17  19
ENDBRANCH  16  17
ENDBRANCH   1  16
TORSDOF 10
