REMARK  Name = ZINCvU00000009bb.0
REMARK                            x       y       z     vdW  Elec       q    Type
REMARK                         _______ _______ _______ _____ _____    ______ ____
ROOT
ATOM      1  C   LIG    1        6.049   1.721   0.146  0.00  0.00    +0.060 A 
ATOM      2  C   LIG    1        7.232   1.003   0.201  0.00  0.00    +0.060 A 
ATOM      3  C   LIG    1        7.204  -0.379   0.187  0.00  0.00    +0.040 A 
ATOM      4  C   LIG    1        5.996  -1.050   0.116  0.00  0.00    -0.010 A 
ATOM      5  C   LIG    1        4.809  -0.340   0.065  0.00  0.00    +0.050 A 
ATOM      6 CL   LIG    1        5.968  -2.785   0.098  0.00  0.00    -0.050 Cl
ATOM      7  C   LIG    1        4.831   1.047   0.075  0.00  0.00    +0.160 A 
ENDROOT
BRANCH   7   8
ATOM      8  N   LIG    1        3.632   1.768   0.019  0.00  0.00    -0.660 N 
ATOM      9  H   LIG    1        3.591   2.670   0.374  0.00  0.00    +0.420 HD
ATOM     10  C   LIG    1        2.534   1.209  -0.528  0.00  0.00    +0.560 C 
ATOM     11  O   LIG    1        2.611   0.122  -1.069  0.00  0.00    -0.500 OA
BRANCH  10  12
ATOM     12  C   LIG    1        1.238   1.917  -0.472  0.00  0.00    -0.070 A 
ATOM     13  C   LIG    1        0.099   1.340  -1.038  0.00  0.00    +0.080 A 
ATOM     14  C   LIG    1       -1.106   2.009  -0.987  0.00  0.00    +0.140 A 
ATOM     15  C   LIG    1       -1.191   3.243  -0.366  0.00  0.00    -0.640 A 
ATOM     16  C   LIG    1       -0.066   3.820   0.196  0.00  0.00    +0.140 A 
ATOM     17  C   LIG    1        1.147   3.164   0.147  0.00  0.00    +0.030 A 
BRANCH  15  18
ATOM     18  S   LIG    1       -2.736   4.087  -0.300  0.00  0.00    +2.480 S 
ATOM     19  O   LIG    1       -2.632   4.919   0.847  0.00  0.00    -0.880 OA
ATOM     20  O   LIG    1       -3.705   3.050  -0.367  0.00  0.00    -0.880 OA
BRANCH  18  21
ATOM     21  C   LIG    1       -2.770   5.088  -1.812  0.00  0.00    -0.050 C 
ATOM     22  F   LIG    1       -2.681   4.250  -2.929  0.00  0.00    -0.160 F 
ATOM     23  F   LIG    1       -1.689   5.977  -1.808  0.00  0.00    -0.160 F 
ENDBRANCH  18  21
ENDBRANCH  15  18
ENDBRANCH  10  12
ENDBRANCH   7   8
BRANCH   1  24
ATOM     24  O   LIG    1        6.075   3.080   0.160  0.00  0.00    -0.250 OA
BRANCH  24  28
ATOM     25  C   LIG    1        5.858   4.984   3.816  0.00  0.00    +0.100 A 
ATOM     26  C   LIG    1        6.059   5.724   2.660  0.00  0.00    +0.030 A 
ATOM     27  C   LIG    1        6.132   5.087   1.437  0.00  0.00    +0.040 A 
ATOM     28  C   LIG    1        6.003   3.708   1.364  0.00  0.00    +0.070 A 
ATOM     29  C   LIG    1        5.796   2.969   2.520  0.00  0.00    -0.020 A 
ATOM     30  C   LIG    1        5.729   3.605   3.744  0.00  0.00    -0.040 A 
BRANCH  25  32
ATOM     31  C   LIG    1        5.578   4.788   6.170  0.00  0.00    +0.250 C 
ATOM     32  O   LIG    1        5.786   5.612   5.021  0.00  0.00    -0.320 OA
ENDBRANCH  25  32
ENDBRANCH  24  28
ENDBRANCH   1  24
TORSDOF 7
