REMARK  Name = ZINCtV00000tRPPo.0
REMARK                            x       y       z     vdW  Elec       q    Type
REMARK                         _______ _______ _______ _____ _____    ______ ____
ROOT
ATOM      1  N   LIG    1       -3.525   2.470   0.032  0.00  0.00    -0.440 N 
ATOM      2  N   LIG    1       -2.466   1.565   0.017  0.00  0.00    -0.240 NA
ATOM      3  C   LIG    1       -1.302   2.118   0.020  0.00  0.00    +0.150 C 
ATOM      4  C   LIG    1       -1.456   3.622   0.029  0.00  0.00    +0.110 C 
ATOM      5  C   LIG    1       -2.982   3.838   0.037  0.00  0.00    +0.290 C 
ENDROOT
BRANCH   3   6
ATOM      6  C   LIG    1       -0.017   1.394   0.010  0.00  0.00    -0.030 A 
ATOM      7  C   LIG    1        1.187   2.102   0.002  0.00  0.00    +0.070 A 
ATOM      8  C   LIG    1        2.385   1.419  -0.013  0.00  0.00    +0.020 A 
ATOM      9  C   LIG    1        2.397   0.035  -0.021  0.00  0.00    +0.060 A 
ATOM     10  C   LIG    1        1.209  -0.674  -0.013  0.00  0.00    +0.030 A 
ATOM     11  C   LIG    1        0.002  -0.004   0.002  0.00  0.00    -0.000 A 
ATOM     12 CL   LIG    1       -1.488  -0.895   0.012  0.00  0.00    -0.040 Cl
ENDBRANCH   3   6
BRANCH   5  13
ATOM     13  C   LIG    1       -3.407   4.573   1.282  0.00  0.00    -0.060 A 
ATOM     14  C   LIG    1       -3.552   3.887   2.474  0.00  0.00    +0.030 A 
ATOM     15  C   LIG    1       -3.937   4.561   3.617  0.00  0.00    +0.050 A 
ATOM     16  C   LIG    1       -4.186   5.921   3.567  0.00  0.00    -0.080 A 
ATOM     17  C   LIG    1       -4.046   6.606   2.374  0.00  0.00    +0.050 A 
ATOM     18 BR   LIG    1       -4.719   6.842   5.130  0.00  0.00    -0.050 Br
ATOM     19  C   LIG    1       -3.656   5.932   1.232  0.00  0.00    +0.050 A 
ENDBRANCH   5  13
BRANCH   1  21
ATOM     20  S   LIG    1       -6.021   3.379   0.047  0.00  0.00    -0.590 S 
ATOM     21  C   LIG    1       -4.833   2.146   0.036  0.00  0.00    +0.590 C 
BRANCH  21  22
ATOM     22  N   LIG    1       -5.206   0.851   0.031  0.00  0.00    -0.660 N 
ATOM     23  H   LIG    1       -4.534   0.152   0.024  0.00  0.00    +0.410 HD
BRANCH  22  24
ATOM     24  C   LIG    1       -6.628   0.499   0.035  0.00  0.00    +0.360 C 
BRANCH  24  25
ATOM     25  C   LIG    1       -6.774  -1.001   0.028  0.00  0.00    -0.120 A 
ATOM     26  C   LIG    1       -6.851  -1.683  -1.173  0.00  0.00    +0.020 A 
ATOM     27  C   LIG    1       -6.980  -3.059  -1.179  0.00  0.00    +0.010 A 
ATOM     28  C   LIG    1       -7.042  -3.753   0.014  0.00  0.00    +0.020 A 
ATOM     29  C   LIG    1       -6.970  -3.071   1.215  0.00  0.00    +0.010 A 
ATOM     30  C   LIG    1       -6.836  -1.696   1.221  0.00  0.00    +0.020 A 
ENDBRANCH  24  25
ENDBRANCH  22  24
ENDBRANCH  21  22
ENDBRANCH   1  21
TORSDOF 6
