REMARK  Name = ZINCrH000004jX7W.0
REMARK                            x       y       z     vdW  Elec       q    Type
REMARK                         _______ _______ _______ _____ _____    ______ ____
ROOT
ATOM      1  C   LIG    1        1.893  -1.306   3.910  0.00  0.00    -0.070 A 
ATOM      2  C   LIG    1        0.566  -1.622   3.615  0.00  0.00    +0.070 A 
ATOM      3  C   LIG    1        0.002  -1.188   2.433  0.00  0.00    +0.130 A 
ATOM      4  C   LIG    1        0.750  -0.440   1.541  0.00  0.00    -0.660 A 
ATOM      5  C   LIG    1        2.068  -0.128   1.825  0.00  0.00    +0.120 A 
ATOM      6  C   LIG    1        2.642  -0.552   3.005  0.00  0.00    +0.040 A 
ENDROOT
BRANCH   1   9
ATOM      7  C   LIG    1        4.663  -1.825   4.047  0.00  0.00    +0.290 C 
ATOM      8  N   LIG    1        3.819  -2.059   5.221  0.00  0.00    -0.600 N 
ATOM      9  C   LIG    1        2.503  -1.770   5.174  0.00  0.00    +0.550 C 
ATOM     10  O   LIG    1        1.819  -1.889   6.172  0.00  0.00    -0.520 OA
BRANCH   8  11
ATOM     11  C   LIG    1        4.405  -2.607   6.447  0.00  0.00    +0.400 C 
BRANCH  11  12
ATOM     12  C   LIG    1        4.332  -4.112   6.409  0.00  0.00    -0.210 A 
ATOM     13  C   LIG    1        5.272  -4.914   5.907  0.00  0.00    +0.040 A 
ATOM     14  C   LIG    1        4.986  -6.267   5.981  0.00  0.00    +0.030 A 
ATOM     15  C   LIG    1        3.812  -6.562   6.545  0.00  0.00    -0.150 A 
ATOM     16 CL   LIG    1        3.187  -8.166   6.774  0.00  0.00    -0.010 Cl
ATOM     17  S   LIG    1        2.999  -5.079   7.026  0.00  0.00    +0.190 S 
ENDBRANCH  11  12
ENDBRANCH   8  11
ENDBRANCH   1   9
BRANCH   4  18
ATOM     18  S   LIG    1        0.023   0.111   0.034  0.00  0.00    +2.700 S 
ATOM     19  O   LIG    1        1.096   0.333  -0.872  0.00  0.00    -0.950 OA
ATOM     20  O   LIG    1       -1.054  -0.775  -0.240  0.00  0.00    -0.950 OA
BRANCH  18  21
ATOM     21  N   LIG    1       -0.654   1.593   0.329  0.00  0.00    -1.110 NA
ATOM     22  H   LIG    1       -1.616   1.708   0.266  0.00  0.00    +0.420 HD
BRANCH  21  23
ATOM     23  C   LIG    1        0.198   2.731   0.679  0.00  0.00    +0.400 C 
BRANCH  23  24
ATOM     24  C   LIG    1       -0.587   4.010   0.536  0.00  0.00    -0.040 A 
ATOM     25  C   LIG    1       -1.321   4.594   1.500  0.00  0.00    -0.030 A 
ATOM     26  C   LIG    1       -1.880   5.764   0.937  0.00  0.00    -0.070 A 
ATOM     27  C   LIG    1       -1.460   5.821  -0.340  0.00  0.00    +0.190 A 
ATOM     28  O   LIG    1       -0.678   4.756  -0.577  0.00  0.00    -0.170 OA
ENDBRANCH  23  24
ENDBRANCH  21  23
ENDBRANCH  18  21
ENDBRANCH   4  18
TORSDOF 7
