REMARK  Name = ZINCvU0000000I9u.0
REMARK                            x       y       z     vdW  Elec       q    Type
REMARK                         _______ _______ _______ _____ _____    ______ ____
ROOT
ATOM      1  C   LIG    1        8.401   1.530   1.335  0.00  0.00    +0.180 A 
ATOM      2  N   LIG    1        8.977   1.540   0.154  0.00  0.00    -0.480 NA
ATOM      3  C   LIG    1       10.304   1.635   0.302  0.00  0.00    +0.190 A 
ATOM      4  C   LIG    1       10.581   1.687   1.632  0.00  0.00    +0.050 A 
ATOM      5  N   LIG    1        9.365   1.626   2.292  0.00  0.00    -0.430 N 
ENDROOT
BRANCH   4   6
ATOM      6  C   LIG    1       11.918   1.794   2.252  0.00  0.00    +0.000 A 
ATOM      7  C   LIG    1       12.083   2.501   3.444  0.00  0.00    +0.010 A 
ATOM      8  C   LIG    1       13.333   2.592   4.021  0.00  0.00    +0.000 A 
ATOM      9  C   LIG    1       14.423   1.994   3.414  0.00  0.00    +0.000 A 
ATOM     10  C   LIG    1       14.268   1.296   2.229  0.00  0.00    +0.020 A 
ATOM     11  C   LIG    1       13.022   1.193   1.645  0.00  0.00    +0.030 A 
ENDBRANCH   4   6
BRANCH   1  12
ATOM     12  S   LIG    1        6.668   1.418   1.632  0.00  0.00    +0.020 S 
BRANCH  12  13
ATOM     13  C   LIG    1        6.062   1.333  -0.071  0.00  0.00    +0.270 C 
BRANCH  13  17
ATOM     14  C   LIG    1        2.482   1.661  -0.072  0.00  0.00    +0.210 A 
ATOM     15  N   LIG    1        2.656   0.365  -0.039  0.00  0.00    -0.340 NA
ATOM     16  O   LIG    1        3.840   0.103  -0.035  0.00  0.00    +0.100 OA
ATOM     17  C   LIG    1        4.558   1.230  -0.065  0.00  0.00    +0.190 A 
ATOM     18  N   LIG    1        3.710   2.228  -0.094  0.00  0.00    -0.450 NA
BRANCH  14  25
ATOM     19 CL   LIG    1        0.018  -0.080  -0.021  0.00  0.00    -0.040 Cl
ATOM     20  C   LIG    1       -0.013   1.656  -0.067  0.00  0.00    -0.010 A 
ATOM     21  C   LIG    1       -1.220   2.326  -0.089  0.00  0.00    +0.030 A 
ATOM     22  C   LIG    1       -1.245   3.709  -0.119  0.00  0.00    +0.050 A 
ATOM     23  C   LIG    1       -0.063   4.427  -0.141  0.00  0.00    +0.020 A 
ATOM     24  C   LIG    1        1.149   3.768  -0.125  0.00  0.00    +0.090 A 
ATOM     25  C   LIG    1        1.182   2.375  -0.088  0.00  0.00    -0.020 A 
ENDBRANCH  14  25
ENDBRANCH  13  17
ENDBRANCH  12  13
ENDBRANCH   1  12
BRANCH   5  26
ATOM     26  C   LIG    1        9.157   1.655   3.741  0.00  0.00    +0.300 C 
BRANCH  26  27
ATOM     27  C   LIG    1        9.284   0.238   4.304  0.00  0.00    +0.160 C 
ATOM     28  C   LIG    1        8.947   0.241   5.811  0.00  0.00    +0.020 C 
ATOM     29  C   LIG    1        9.996  -0.754   6.383  0.00  0.00    +0.020 C 
ATOM     30  C   LIG    1       11.205  -0.476   5.454  0.00  0.00    +0.200 C 
ATOM     31  O   LIG    1       10.633  -0.222   4.161  0.00  0.00    -0.360 OA
ENDBRANCH  26  27
ENDBRANCH   5  26
TORSDOF 7
