REMARK  Name = ZINCqH0000005CrI.0
REMARK                            x       y       z     vdW  Elec       q    Type
REMARK                         _______ _______ _______ _____ _____    ______ ____
ROOT
ATOM      1  N   LIG    1       -1.146   0.245   0.939  0.00  0.00    -0.740 N 
ATOM      2  H   LIG    1       -1.921   0.821   1.029  0.00  0.00    +0.400 HD
ATOM      3  C   LIG    1       -0.679  -0.429   2.008  0.00  0.00    +0.700 C 
ATOM      4  N   LIG    1       -1.289  -0.301   3.204  0.00  0.00    -0.680 N 
ATOM      5  H   LIG    1       -2.107   0.214   3.278  0.00  0.00    +0.410 HD
ATOM      6  O   LIG    1        0.292  -1.151   1.895  0.00  0.00    -0.570 OA
ENDROOT
BRANCH   4   7
ATOM      7  C   LIG    1       -0.741  -0.913   4.337  0.00  0.00    +0.200 A 
ATOM      8  C   LIG    1       -1.575  -1.389   5.341  0.00  0.00    -0.040 A 
ATOM      9  C   LIG    1       -1.034  -1.998   6.457  0.00  0.00    +0.070 A 
ATOM     10  C   LIG    1        0.336  -2.125   6.583  0.00  0.00    -0.080 A 
ATOM     11  C   LIG    1        1.173  -1.646   5.586  0.00  0.00    +0.130 A 
ATOM     12  C   LIG    1        0.635  -1.040   4.462  0.00  0.00    +0.010 A 
BRANCH  11  13
ATOM     13  O   LIG    1        2.521  -1.772   5.711  0.00  0.00    -0.320 OA
BRANCH  13  14
ATOM     14  C   LIG    1        3.006  -2.407   6.896  0.00  0.00    +0.590 C 
ATOM     15  F   LIG    1        2.499  -3.709   6.968  0.00  0.00    -0.200 F 
ATOM     16  F   LIG    1        2.590  -1.682   8.017  0.00  0.00    -0.200 F 
ENDBRANCH  13  14
ENDBRANCH  11  13
ENDBRANCH   4   7
BRANCH   1  17
ATOM     17  C   LIG    1       -0.484   0.106  -0.361  0.00  0.00    +0.340 C 
BRANCH  17  21
ATOM     18  C   LIG    1       -2.504   2.516  -3.255  0.00  0.00    +0.170 A 
ATOM     19  C   LIG    1       -1.456   3.049  -2.516  0.00  0.00    +0.020 A 
ATOM     20  C   LIG    1       -0.805   2.268  -1.581  0.00  0.00    +0.050 A 
ATOM     21  C   LIG    1       -1.196   0.956  -1.381  0.00  0.00    -0.130 A 
ATOM     22  C   LIG    1       -2.236   0.421  -2.120  0.00  0.00    +0.050 A 
ATOM     23  C   LIG    1       -2.894   1.199  -3.052  0.00  0.00    -0.010 A 
BRANCH  18  25
ATOM     24  C   LIG    1       -2.485   4.247  -4.888  0.00  0.00    +0.650 C 
ATOM     25  N   LIG    1       -3.164   3.305  -4.204  0.00  0.00    -0.650 N 
ATOM     26  H   LIG    1       -4.111   3.174  -4.369  0.00  0.00    +0.420 HD
ATOM     27  O   LIG    1       -1.282   4.348  -4.751  0.00  0.00    -0.550 OA
BRANCH  24  29
ATOM     28  C   LIG    1       -2.344   6.065  -6.428  0.00  0.00    +0.300 C 
ATOM     29  O   LIG    1       -3.140   5.075  -5.724  0.00  0.00    -0.370 OA
ENDBRANCH  24  29
ENDBRANCH  18  25
ENDBRANCH  17  21
ENDBRANCH   1  17
TORSDOF 7
