REMARK  Name = ZINCpk00000RmcJQ.0
REMARK                            x       y       z     vdW  Elec       q    Type
REMARK                         _______ _______ _______ _____ _____    ______ ____
ROOT
ATOM      1  N   LIG    1        0.504   3.971  -1.041  0.00  0.00    -0.540 NA
ATOM      2  C   LIG    1        1.285   3.449   0.089  0.00  0.00    +0.190 C 
ATOM      3  C   LIG    1        1.348   1.922  -0.001  0.00  0.00    +0.240 C 
ATOM      4  N   LIG    1       -0.017   1.377   0.010  0.00  0.00    -0.470 N 
ATOM      5  C   LIG    1       -0.798   1.899  -1.120  0.00  0.00    +0.210 C 
ATOM      6  C   LIG    1       -0.861   3.426  -1.031  0.00  0.00    +0.190 C 
ENDROOT
BRANCH   4   7
ATOM      7  C   LIG    1        0.002  -0.004   0.002  0.00  0.00    +0.450 A 
ATOM      8  C   LIG    1       -1.197  -0.742   0.015  0.00  0.00    -0.300 A 
ATOM      9  C   LIG    1       -2.569  -0.407   0.025  0.00  0.00    +0.310 A 
ATOM     10  N   LIG    1       -3.262  -1.510   0.026  0.00  0.00    -0.250 NA
ATOM     11  N   LIG    1       -2.398  -2.611   0.012  0.00  0.00    -0.380 N 
ATOM     12  C   LIG    1       -2.802  -4.020   0.009  0.00  0.00    +0.370 C 
ATOM     13  C   LIG    1       -1.116  -2.148   0.002  0.00  0.00    +0.360 A 
ATOM     14  N   LIG    1        0.086  -2.722  -0.012  0.00  0.00    -0.560 NA
ATOM     15  C   LIG    1        1.179  -1.990  -0.019  0.00  0.00    +0.390 A 
ATOM     16  C   LIG    1        2.515  -2.686  -0.035  0.00  0.00    +0.180 C 
ATOM     17  N   LIG    1        1.152  -0.669  -0.013  0.00  0.00    -0.580 NA
ENDBRANCH   4   7
BRANCH   1  18
ATOM     18  C   LIG    1        0.484   5.440  -1.033  0.00  0.00    +0.300 C 
BRANCH  18  22
ATOM     19  C   LIG    1       -1.668   6.651  -3.861  0.00  0.00    +0.310 A 
ATOM     20  N   LIG    1       -0.643   6.777  -4.657  0.00  0.00    -0.530 NA
ATOM     21  S   LIG    1        0.732   6.315  -3.779  0.00  0.00    +0.320 S 
ATOM     22  C   LIG    1       -0.108   5.941  -2.325  0.00  0.00    -0.150 A 
ATOM     23  C   LIG    1       -1.409   6.197  -2.581  0.00  0.00    -0.050 A 
BRANCH  19  25
ATOM     24  C   LIG    1       -3.083   7.413  -5.614  0.00  0.00    +0.260 C 
ATOM     25  O   LIG    1       -2.929   6.952  -4.270  0.00  0.00    -0.300 OA
ENDBRANCH  19  25
ENDBRANCH  18  22
ENDBRANCH   1  18
TORSDOF 4
