REMARK  Name = ZINCAx0000000bon.0
REMARK                            x       y       z     vdW  Elec       q    Type
REMARK                         _______ _______ _______ _____ _____    ______ ____
ROOT
ATOM      1  C   LIG    1       -3.112   3.499   5.353  0.00  0.00    +0.150 A 
ATOM      2  C   LIG    1       -2.013   3.352   4.521  0.00  0.00    +0.140 A 
ATOM      3  C   LIG    1       -1.818   4.230   3.471  0.00  0.00    -0.660 A 
ATOM      4  C   LIG    1       -2.714   5.260   3.251  0.00  0.00    +0.120 A 
ATOM      5  C   LIG    1       -3.815   5.412   4.072  0.00  0.00    -0.010 A 
ATOM      6  C   LIG    1       -4.019   4.535   5.128  0.00  0.00    +0.120 A 
ENDROOT
BRANCH   6   7
ATOM      7  N   LIG    1       -5.130   4.690   5.964  0.00  0.00    -0.510 N 
ATOM      8  C   LIG    1       -6.381   4.497   5.217  0.00  0.00    +0.160 C 
ATOM      9  C   LIG    1       -7.566   4.615   6.180  0.00  0.00    +0.220 C 
ATOM     10  O   LIG    1       -7.517   5.886   6.835  0.00  0.00    -0.380 OA
ATOM     11  C   LIG    1       -6.311   6.106   7.572  0.00  0.00    +0.220 C 
ATOM     12  C   LIG    1       -5.113   6.003   6.624  0.00  0.00    +0.170 C 
ENDBRANCH   6   7
BRANCH   1  15
ATOM     13  O   LIG    1       -2.398   0.936   5.284  0.00  0.00    -0.490 OA
ATOM     14  C   LIG    1       -2.960   1.316   6.290  0.00  0.00    +0.520 C 
ATOM     15  N   LIG    1       -3.311   2.611   6.418  0.00  0.00    -0.660 N 
ATOM     16  H   LIG    1       -3.702   2.927   7.248  0.00  0.00    +0.420 HD
BRANCH  14  17
ATOM     17  C   LIG    1       -3.265   0.339   7.396  0.00  0.00    +0.240 C 
BRANCH  17  18
ATOM     18  O   LIG    1       -2.799  -0.960   7.027  0.00  0.00    -0.280 OA
BRANCH  18  19
ATOM     19  C   LIG    1       -2.997  -1.964   7.920  0.00  0.00    +0.150 A 
ATOM     20  C   LIG    1       -3.618  -1.712   9.111  0.00  0.00    -0.090 A 
ATOM     21  C   LIG    1       -3.830  -2.730  10.037  0.00  0.00    +0.050 A 
ATOM     22  C   LIG    1       -3.425  -4.005   9.784  0.00  0.00    -0.010 A 
ATOM     23  C   LIG    1       -2.781  -4.305   8.571  0.00  0.00    -0.020 A 
ATOM     24  C   LIG    1       -2.349  -5.609   8.279  0.00  0.00    +0.010 A 
ATOM     25  C   LIG    1       -1.728  -5.863   7.094  0.00  0.00    +0.030 A 
ATOM     26  C   LIG    1       -1.514  -4.848   6.165  0.00  0.00    +0.000 A 
ATOM     27  C   LIG    1       -1.920  -3.572   6.415  0.00  0.00    +0.050 A 
ATOM     28  C   LIG    1       -2.569  -3.274   7.623  0.00  0.00    -0.070 A 
ENDBRANCH  18  19
ENDBRANCH  17  18
ENDBRANCH  14  17
ENDBRANCH   1  15
BRANCH   3  29
ATOM     29  S   LIG    1       -0.421   4.040   2.415  0.00  0.00    +2.690 S 
ATOM     30  O   LIG    1       -0.179   5.316   1.836  0.00  0.00    -0.950 OA
ATOM     31  O   LIG    1        0.555   3.330   3.164  0.00  0.00    -0.950 OA
BRANCH  29  32
ATOM     32  N   LIG    1       -0.876   3.042   1.174  0.00  0.00    -1.000 NA
ATOM     33  C   LIG    1       -0.712   1.584   1.278  0.00  0.00    +0.270 C 
ATOM     34  C   LIG    1        0.011   1.088   0.020  0.00  0.00    +0.220 C 
ATOM     35  O   LIG    1       -0.673   1.571  -1.139  0.00  0.00    -0.380 OA
ATOM     36  C   LIG    1       -0.694   2.995  -1.256  0.00  0.00    +0.220 C 
ATOM     37  C   LIG    1       -1.454   3.588  -0.064  0.00  0.00    +0.260 C 
ENDBRANCH  29  32
ENDBRANCH   3  29
TORSDOF 7
