REMARK  Name = ZINCkj000005jUtK.0
REMARK                            x       y       z     vdW  Elec       q    Type
REMARK                         _______ _______ _______ _____ _____    ______ ____
ROOT
ATOM      1  C   LIG    1       -3.399   3.506  -2.779  0.00  0.00    +0.080 C 
ATOM      2  C   LIG    1       -2.298   4.171  -3.608  0.00  0.00    +0.070 C 
ATOM      3  C   LIG    1       -4.639   4.402  -2.768  0.00  0.00    +0.050 C 
ENDROOT
BRANCH   1   7
ATOM      4  C   LIG    1       -5.080   1.142  -6.755  0.00  0.00    +0.070 C 
ATOM      5  C   LIG    1       -4.505   0.982  -5.346  0.00  0.00    +0.160 C 
ATOM      6  C   LIG    1       -4.219   2.363  -4.750  0.00  0.00    +0.180 C 
ATOM      7  N   LIG    1       -3.739   2.205  -3.370  0.00  0.00    -0.540 NA
ATOM      8  C   LIG    1       -4.734   1.498  -2.550  0.00  0.00    +0.150 C 
ATOM      9  C   LIG    1       -5.014   0.126  -3.168  0.00  0.00    +0.150 C 
ATOM     10  C   LIG    1       -6.107  -0.583  -2.365  0.00  0.00    +0.060 C 
ATOM     11  O   LIG    1       -5.450   0.297  -4.519  0.00  0.00    -0.370 OA
ENDBRANCH   1   7
BRANCH   1  12
ATOM     12  C   LIG    1       -2.904   3.302  -1.345  0.00  0.00    +0.270 C 
BRANCH  12  13
ATOM     13  N   LIG    1       -1.713   2.442  -1.356  0.00  0.00    -0.510 N 
ATOM     14  H   LIG    1       -1.947   1.549  -1.762  0.00  0.00    +0.430 HD
ATOM     15  H   LIG    1       -0.987   2.881  -1.903  0.00  0.00    +0.430 HD
BRANCH  13  16
ATOM     16  C   LIG    1       -1.238   2.246   0.020  0.00  0.00    +0.370 C 
BRANCH  16  17
ATOM     17  C   LIG    1       -0.017   1.365   0.009  0.00  0.00    -0.130 A 
ATOM     18  C   LIG    1        1.267   1.772  -0.001  0.00  0.00    +0.230 A 
ATOM     19  N   LIG    1        2.048   0.681  -0.014  0.00  0.00    -0.490 NA
ATOM     20  C   LIG    1        1.297  -0.386  -0.012  0.00  0.00    +0.460 A 
ATOM     21  N   LIG    1        0.002  -0.004   0.002  0.00  0.00    -0.460 N 
ATOM     22  C   LIG    1       -1.165  -0.889   0.008  0.00  0.00    +0.340 C 
ENDBRANCH  16  17
ENDBRANCH  13  16
ENDBRANCH  12  13
ENDBRANCH   1  12
TORSDOF 5
