REMARK  Name = ZINCrD00000F5LpO.0
REMARK                            x       y       z     vdW  Elec       q    Type
REMARK                         _______ _______ _______ _____ _____    ______ ____
ROOT
ATOM      1  C   LIG    1       -3.559   5.257  -2.171  0.00  0.00    +0.570 C 
ATOM      2  N   LIG    1       -2.493   5.627  -1.434  0.00  0.00    -0.640 N 
ATOM      3  H   LIG    1       -2.554   5.643  -0.466  0.00  0.00    +0.420 HD
ATOM      4  O   LIG    1       -3.454   5.141  -3.376  0.00  0.00    -0.470 OA
ENDROOT
BRANCH   1   9
ATOM      5  C   LIG    1       -6.141   4.880   0.397  0.00  0.00    -0.220 A 
ATOM      6  N   LIG    1       -7.211   4.515  -0.283  0.00  0.00    -0.400 NA
ATOM      7  C   LIG    1       -7.168   4.370  -1.596  0.00  0.00    +0.350 A 
ATOM      8  C   LIG    1       -5.973   4.607  -2.264  0.00  0.00    -0.050 A 
ATOM      9  C   LIG    1       -4.861   4.991  -1.511  0.00  0.00    +0.120 A 
ATOM     10 CL   LIG    1       -5.865   4.429  -3.987  0.00  0.00    +0.030 Cl
ATOM     11  N   LIG    1       -4.987   5.110  -0.192  0.00  0.00    -0.400 NA
BRANCH   5  13
ATOM     12  C   LIG    1       -5.842   3.416   2.796  0.00  0.00    -0.210 C 
ATOM     13  S   LIG    1       -6.259   5.057   2.146  0.00  0.00    +2.510 S 
ATOM     14  O   LIG    1       -7.630   5.351   2.377  0.00  0.00    -0.900 OA
ATOM     15  O   LIG    1       -5.243   5.995   2.472  0.00  0.00    -0.900 OA
ENDBRANCH   5  13
ENDBRANCH   1   9
BRANCH   2  16
ATOM     16  C   LIG    1       -1.299   5.989  -2.065  0.00  0.00    +0.150 A 
ATOM     17  C   LIG    1       -1.318   6.467  -3.369  0.00  0.00    +0.020 A 
ATOM     18  C   LIG    1       -0.136   6.824  -3.989  0.00  0.00    +0.030 A 
ATOM     19  C   LIG    1        1.064   6.706  -3.313  0.00  0.00    +0.000 A 
ATOM     20  C   LIG    1        1.086   6.236  -2.013  0.00  0.00    +0.040 A 
ATOM     21  C   LIG    1       -0.091   5.872  -1.389  0.00  0.00    -0.100 A 
BRANCH  21  22
ATOM     22  C   LIG    1       -0.066   5.354   0.026  0.00  0.00    +0.130 C 
BRANCH  22  23
ATOM     23  C   LIG    1       -0.037   3.847   0.009  0.00  0.00    -0.080 A 
ATOM     24  C   LIG    1        1.174   3.180  -0.011  0.00  0.00    +0.010 A 
ATOM     25  C   LIG    1        1.201   1.798  -0.026  0.00  0.00    +0.000 A 
ATOM     26  C   LIG    1        0.017   1.083  -0.020  0.00  0.00    +0.000 A 
ATOM     27  C   LIG    1       -1.193   1.751  -0.005  0.00  0.00    +0.000 A 
ATOM     28  C   LIG    1       -1.220   3.133   0.014  0.00  0.00    -0.010 A 
ENDBRANCH  22  23
ENDBRANCH  21  22
ENDBRANCH   2  16
TORSDOF 5
