REMARK  Name = ZINCrD00000F5Lpo.1
REMARK                            x       y       z     vdW  Elec       q    Type
REMARK                         _______ _______ _______ _____ _____    ______ ____
ROOT
ATOM      1  N   LIG    1        1.567  -2.670  -1.365  0.00  0.00    -0.500 N 
ATOM      2  H   LIG    1        2.481  -2.325  -1.618  0.00  0.00    +0.430 HD
ATOM      3  H   LIG    1        0.886  -2.335  -2.030  0.00  0.00    +0.420 HD
ENDROOT
BRANCH   1   4
ATOM      4  C   LIG    1        1.579  -4.139  -1.373  0.00  0.00    +0.180 C 
ATOM      5  C   LIG    1        2.697  -4.645  -0.459  0.00  0.00    +0.050 C 
ATOM      6  C   LIG    1        2.709  -6.175  -0.468  0.00  0.00    +0.030 C 
ATOM      7  C   LIG    1        2.950  -6.675  -1.893  0.00  0.00    +0.020 C 
ATOM      8  C   LIG    1        1.832  -6.169  -2.807  0.00  0.00    +0.030 C 
ATOM      9  C   LIG    1        1.820  -4.639  -2.799  0.00  0.00    +0.150 C 
BRANCH   9  10
ATOM     10  O   LIG    1        0.776  -4.166  -3.652  0.00  0.00    -0.380 OA
BRANCH  10  11
ATOM     11  C   LIG    1        1.181  -3.962  -5.008  0.00  0.00    +0.230 C 
BRANCH  11  12
ATOM     12  C   LIG    1        0.008  -3.466  -5.813  0.00  0.00    -0.100 A 
ATOM     13  C   LIG    1       -0.826  -4.368  -6.447  0.00  0.00    +0.020 A 
ATOM     14  C   LIG    1       -1.906  -3.913  -7.181  0.00  0.00    +0.010 A 
ATOM     15  C   LIG    1       -2.144  -2.556  -7.291  0.00  0.00    +0.020 A 
ATOM     16  C   LIG    1       -1.307  -1.654  -6.662  0.00  0.00    +0.010 A 
ATOM     17  C   LIG    1       -0.231  -2.109  -5.923  0.00  0.00    +0.020 A 
ENDBRANCH  11  12
ENDBRANCH  10  11
ENDBRANCH   9  10
ENDBRANCH   1   4
BRANCH   1  18
ATOM     18  C   LIG    1        1.218  -2.190  -0.021  0.00  0.00    +0.310 C 
BRANCH  18  22
ATOM     19  C   LIG    1        1.183   2.089   0.002  0.00  0.00    -0.060 A 
ATOM     20  C   LIG    1       -0.017   1.376   0.010  0.00  0.00    -0.070 A 
ATOM     21  C   LIG    1        0.002  -0.004   0.002  0.00  0.00    +0.070 A 
ATOM     22  C   LIG    1        1.206  -0.683  -0.013  0.00  0.00    -0.310 A 
ATOM     23  C   LIG    1        2.405   0.018  -0.021  0.00  0.00    +0.280 A 
ATOM     24  O   LIG    1        3.585  -0.655  -0.037  0.00  0.00    -0.720 OA
ATOM     25  C   LIG    1        2.397   1.403  -0.014  0.00  0.00    -0.100 A 
BRANCH  19  29
ATOM     26  C   LIG    1        2.311   5.719   0.010  0.00  0.00    +0.290 C 
ATOM     27  N   LIG    1        2.326   4.254   0.002  0.00  0.00    -0.730 N 
ATOM     28  H   LIG    1        3.172   3.779  -0.008  0.00  0.00    +0.400 HD
ATOM     29  C   LIG    1        1.167   3.568   0.010  0.00  0.00    +0.550 C 
ATOM     30  O   LIG    1        0.107   4.164   0.022  0.00  0.00    -0.540 OA
ENDBRANCH  19  29
ENDBRANCH  18  22
ENDBRANCH   1  18
TORSDOF 7
