REMARK  Name = ZINCrH000004r3Ej.0
REMARK                            x       y       z     vdW  Elec       q    Type
REMARK                         _______ _______ _______ _____ _____    ______ ____
ROOT
ATOM      1  C   LIG    1       -1.305   2.116   0.020  0.00  0.00    +0.560 C 
ATOM      2  N   LIG    1       -1.322   3.460   0.129  0.00  0.00    -0.610 N 
ATOM      3  C   LIG    1       -0.068   4.226   0.135  0.00  0.00    +0.280 C 
ATOM      4  C   LIG    1       -0.038   5.120   1.373  0.00  0.00    +0.000 C 
ATOM      5  C   LIG    1       -1.302   5.982   1.408  0.00  0.00    +0.250 C 
ATOM      6  C   LIG    1       -2.535   5.080   1.492  0.00  0.00    +0.020 C 
ATOM      7  C   LIG    1       -2.594   4.185   0.250  0.00  0.00    +0.290 C 
ATOM      8  O   LIG    1       -2.350   1.499  -0.048  0.00  0.00    -0.530 OA
ENDROOT
BRANCH   1  13
ATOM      9  C   LIG    1        3.707  -0.707  -0.136  0.00  0.00    +0.100 C 
ATOM     10  C   LIG    1        2.394   0.033  -0.094  0.00  0.00    -0.060 A 
ATOM     11  C   LIG    1        1.405  -0.367   0.787  0.00  0.00    +0.010 A 
ATOM     12  C   LIG    1        0.202   0.306   0.830  0.00  0.00    +0.060 A 
ATOM     13  C   LIG    1       -0.016   1.394  -0.017  0.00  0.00    -0.130 A 
ATOM     14  C   LIG    1        0.986   1.792  -0.904  0.00  0.00    +0.040 A 
ATOM     15  C   LIG    1        2.185   1.110  -0.936  0.00  0.00    +0.010 A 
ENDBRANCH   1  13
BRANCH   5  16
ATOM     16  N   LIG    1       -1.260   6.862   2.579  0.00  0.00    -0.740 N 
ATOM     17  H   LIG    1       -1.699   6.596   3.402  0.00  0.00    +0.400 HD
ATOM     18  C   LIG    1       -0.611   8.042   2.512  0.00  0.00    +0.700 C 
ATOM     19  N   LIG    1       -0.572   8.851   3.589  0.00  0.00    -0.750 N 
ATOM     20  H   LIG    1       -1.011   8.585   4.412  0.00  0.00    +0.400 HD
ATOM     21  O   LIG    1       -0.061   8.376   1.481  0.00  0.00    -0.590 OA
BRANCH  19  22
ATOM     22  C   LIG    1        0.133  10.133   3.517  0.00  0.00    +0.280 C 
BRANCH  22  23
ATOM     23  C   LIG    1        0.025  10.851   4.864  0.00  0.00    +0.050 C 
BRANCH  23  24
ATOM     24  C   LIG    1        0.750  12.170   4.790  0.00  0.00    -0.120 C 
ATOM     25  C   LIG    1        0.060  13.227   4.503  0.00  0.00    -0.050 C 
ATOM     26  C   LIG    1        0.642  14.605   4.388  0.00  0.00    +0.050 C 
ATOM     27  C   LIG    1        2.022  14.653   5.047  0.00  0.00    +0.010 C 
ATOM     28  C   LIG    1        2.850  13.472   4.524  0.00  0.00    +0.020 C 
ATOM     29  C   LIG    1        2.228  12.176   5.048  0.00  0.00    +0.060 C 
ENDBRANCH  23  24
ENDBRANCH  22  23
ENDBRANCH  19  22
ENDBRANCH   5  16
TORSDOF 5
