REMARK  Name = ZINCkj000005ljz7.0
REMARK                            x       y       z     vdW  Elec       q    Type
REMARK                         _______ _______ _______ _____ _____    ______ ____
ROOT
ATOM      1  S   LIG    1        1.180  -2.469  -0.021  0.00  0.00    +2.690 S 
ATOM      2  O   LIG    1       -0.070  -2.855   0.533  0.00  0.00    -0.940 OA
ATOM      3  O   LIG    1        2.429  -2.891   0.509  0.00  0.00    -0.940 OA
ENDROOT
BRANCH   1   4
ATOM      4  C   LIG    1        1.205  -0.708  -0.013  0.00  0.00    -0.660 A 
ATOM      5  C   LIG    1        2.400  -0.054  -0.021  0.00  0.00    +0.160 A 
ATOM      6  C   LIG    1        2.420   1.348  -0.014  0.00  0.00    -0.050 A 
ATOM      7  C   LIG    1        3.621   2.081  -0.022  0.00  0.00    +0.010 A 
ATOM      8  C   LIG    1        3.556   3.442  -0.014  0.00  0.00    +0.240 A 
ATOM      9  N   LIG    1        2.398   4.087   0.001  0.00  0.00    -0.470 NA
ATOM     10  C   LIG    1        1.240   3.469   0.008  0.00  0.00    +0.310 A 
ATOM     11  C   LIG    1        1.196   2.066   0.002  0.00  0.00    -0.080 A 
ATOM     12  C   LIG    1       -0.016   1.357   0.009  0.00  0.00    +0.060 A 
ATOM     13  C   LIG    1        0.002  -0.004   0.002  0.00  0.00    +0.080 A 
ENDBRANCH   1   4
BRANCH   1  17
ATOM     14  C   LIG    1        1.112  -4.739  -3.797  0.00  0.00    +0.180 C 
ATOM     15  C   LIG    1        2.372  -4.593  -2.942  0.00  0.00    +0.050 C 
ATOM     16  C   LIG    1        2.412  -3.188  -2.334  0.00  0.00    +0.330 C 
ATOM     17  N   LIG    1        1.158  -2.951  -1.606  0.00  0.00    -1.010 NA
ATOM     18  C   LIG    1       -0.116  -3.157  -2.308  0.00  0.00    +0.330 C 
ATOM     19  C   LIG    1       -0.128  -4.558  -2.918  0.00  0.00    +0.050 C 
BRANCH  14  20
ATOM     20  N   LIG    1        1.087  -6.075  -4.408  0.00  0.00    -0.640 N 
ATOM     21  H   LIG    1        1.903  -6.194  -4.989  0.00  0.00    +0.440 HD
ATOM     22  H   LIG    1        0.256  -6.171  -4.972  0.00  0.00    +0.440 HD
ATOM     23  H   LIG    1        1.084  -6.776  -3.683  0.00  0.00    +0.430 HD
ENDBRANCH  14  20
ENDBRANCH   1  17
TORSDOF 3
