REMARK  Name = ZINCpk00000dB56U.0
REMARK                            x       y       z     vdW  Elec       q    Type
REMARK                         _______ _______ _______ _____ _____    ______ ____
ROOT
ATOM      1  C   LIG    1       -0.016   1.344   0.009  0.00  0.00    +0.190 A 
ATOM      2  N   LIG    1        1.229   1.746  -0.000  0.00  0.00    -0.290 NA
ATOM      3  N   LIG    1        2.016   0.725  -0.016  0.00  0.00    -0.270 NA
ATOM      4  C   LIG    1        1.311  -0.364  -0.019  0.00  0.00    +0.150 A 
ATOM      5  C   LIG    1        1.787  -1.796  -0.046  0.00  0.00    +0.430 C 
ATOM      6  N   LIG    1        0.611  -2.646   0.222  0.00  0.00    -0.620 N 
ATOM      7  C   LIG    1       -0.653  -2.312  -0.452  0.00  0.00    +0.310 C 
ATOM      8  C   LIG    1       -1.128  -0.932   0.018  0.00  0.00    +0.300 C 
ATOM      9  C   LIG    1        0.692  -3.697   1.061  0.00  0.00    +0.510 C 
ATOM     10  O   LIG    1       -0.286  -4.384   1.270  0.00  0.00    -0.510 OA
ATOM     11  N   LIG    1        0.002  -0.004   0.002  0.00  0.00    -0.470 N 
ENDROOT
BRANCH   1  13
ATOM     12  C   LIG    1       -1.228   3.099   1.274  0.00  0.00    +0.050 C 
ATOM     13  C   LIG    1       -1.241   2.222   0.020  0.00  0.00    +0.070 C 
ATOM     14  C   LIG    1       -1.241   3.112  -1.224  0.00  0.00    +0.060 C 
ENDBRANCH   1  13
BRANCH   9  15
ATOM     15  C   LIG    1        1.998  -4.020   1.741  0.00  0.00    +0.360 C 
BRANCH  15  16
ATOM     16  N   LIG    1        1.826  -5.198   2.595  0.00  0.00    -0.600 N 
ATOM     17  C   LIG    1        1.430  -5.179   4.008  0.00  0.00    +0.340 C 
ATOM     18  C   LIG    1        1.384  -6.620   4.452  0.00  0.00    -0.080 A 
ATOM     19  C   LIG    1        1.081  -7.228   5.648  0.00  0.00    +0.030 A 
ATOM     20  C   LIG    1        1.134  -8.607   5.755  0.00  0.00    +0.060 A 
ATOM     21  C   LIG    1        1.490  -9.377   4.663  0.00  0.00    +0.010 A 
ATOM     22  C   LIG    1        1.796  -8.777   3.458  0.00  0.00    +0.090 A 
ATOM     23  C   LIG    1        1.745  -7.388   3.342  0.00  0.00    -0.160 A 
ATOM     24  C   LIG    1        2.010  -6.474   2.214  0.00  0.00    +0.570 C 
ATOM     25  O   LIG    1        2.348  -6.825   1.101  0.00  0.00    -0.520 OA
ENDBRANCH  15  16
ENDBRANCH   9  15
TORSDOF 3
