REMARK  Name = ZINCtV000002O7IO.0
REMARK                            x       y       z     vdW  Elec       q    Type
REMARK                         _______ _______ _______ _____ _____    ______ ____
ROOT
ATOM      1  O   LIG    1       -3.604   1.927  -0.057  0.00  0.00    -0.490 OA
ATOM      2  C   LIG    1       -3.615   3.139  -0.050  0.00  0.00    +0.550 C 
ATOM      3  N   LIG    1       -2.457   3.823   0.045  0.00  0.00    -0.660 N 
ATOM      4  H   LIG    1       -2.470   4.789   0.127  0.00  0.00    +0.420 HD
ENDROOT
BRANCH   3   5
ATOM      5  C   LIG    1       -1.236   3.138   0.024  0.00  0.00    +0.150 A 
ATOM      6  C   LIG    1       -1.099   1.984  -0.735  0.00  0.00    +0.070 A 
ATOM      7  C   LIG    1        0.105   1.307  -0.750  0.00  0.00    +0.060 A 
ATOM      8  C   LIG    1        1.177   1.785  -0.017  0.00  0.00    -0.010 A 
ATOM      9  C   LIG    1        1.044   2.938   0.737  0.00  0.00    -0.160 A 
ATOM     10 CL   LIG    1        2.691   0.936  -0.042  0.00  0.00    -0.040 Cl
ATOM     11  C   LIG    1       -0.159   3.615   0.759  0.00  0.00    +0.060 A 
BRANCH   9  12
ATOM     12  C   LIG    1        2.214   3.455   1.535  0.00  0.00    +0.510 C 
ATOM     13  F   LIG    1        3.279   3.735   0.672  0.00  0.00    -0.170 F 
ATOM     14  F   LIG    1        2.609   2.486   2.464  0.00  0.00    -0.170 F 
ATOM     15  F   LIG    1        1.839   4.622   2.208  0.00  0.00    -0.170 F 
ENDBRANCH   9  12
ENDBRANCH   3   5
BRANCH   2  16
ATOM     16  C   LIG    1       -4.922   3.882  -0.148  0.00  0.00    +0.060 C 
BRANCH  16  17
ATOM     17  C   LIG    1       -5.187   4.246  -1.586  0.00  0.00    -0.100 A 
ATOM     18  C   LIG    1       -5.289   3.254  -2.543  0.00  0.00    +0.030 A 
ATOM     19  C   LIG    1       -5.536   3.587  -3.861  0.00  0.00    +0.010 A 
ATOM     20  C   LIG    1       -5.673   4.914  -4.224  0.00  0.00    +0.020 A 
ATOM     21  C   LIG    1       -5.565   5.907  -3.268  0.00  0.00    +0.010 A 
ATOM     22  C   LIG    1       -5.322   5.573  -1.949  0.00  0.00    +0.060 A 
ENDBRANCH  16  17
BRANCH  16  23
ATOM     23  S   LIG    1       -6.264   2.827   0.466  0.00  0.00    +0.060 S 
BRANCH  23  24
ATOM     24  C   LIG    1       -7.664   3.896   0.416  0.00  0.00    +0.040 A 
ATOM     25  C   LIG    1       -8.915   3.432   0.823  0.00  0.00    +0.090 A 
ATOM     26  C   LIG    1       -9.983   4.312   0.765  0.00  0.00    +0.080 A 
ATOM     27  C   LIG    1       -9.743   5.601   0.306  0.00  0.00    +0.110 A 
ATOM     28  N   LIG    1       -8.526   5.955  -0.059  0.00  0.00    -0.210 NA
ATOM     29 CL   LIG    1      -11.046   6.746   0.212  0.00  0.00    +0.000 Cl
ATOM     30  N   LIG    1       -7.532   5.146  -0.003  0.00  0.00    -0.220 NA
ENDBRANCH  23  24
ENDBRANCH  16  23
ENDBRANCH   2  16
TORSDOF 6
