REMARK  Name = ZINCrD00000laNic.0
REMARK                            x       y       z     vdW  Elec       q    Type
REMARK                         _______ _______ _______ _____ _____    ______ ____
ROOT
ATOM      1  N   LIG    1        4.197   4.075   2.264  0.00  0.00    -0.720 N 
ATOM      2  H   LIG    1        3.692   4.831   1.926  0.00  0.00    +0.400 HD
ATOM      3  C   LIG    1        5.539   4.152   2.364  0.00  0.00    +0.560 C 
ATOM      4  O   LIG    1        6.173   3.205   2.787  0.00  0.00    -0.520 OA
ENDROOT
BRANCH   3   5
ATOM      5  C   LIG    1        6.239   5.386   1.959  0.00  0.00    -0.130 A 
ATOM      6  C   LIG    1        5.515   6.476   1.472  0.00  0.00    +0.070 A 
ATOM      7  C   LIG    1        6.175   7.626   1.095  0.00  0.00    +0.040 A 
ATOM      8  C   LIG    1        7.555   7.707   1.197  0.00  0.00    -0.000 A 
ATOM      9  C   LIG    1        8.284   6.635   1.678  0.00  0.00    +0.040 A 
ATOM     10 CL   LIG    1        8.373   9.162   0.719  0.00  0.00    -0.050 Cl
ATOM     11  C   LIG    1        7.636   5.472   2.066  0.00  0.00    +0.220 A 
BRANCH  11  12
ATOM     12  N   LIG    1        8.368   4.393   2.556  0.00  0.00    -0.570 N 
ATOM     13  C   LIG    1        8.912   3.314   1.722  0.00  0.00    +0.270 C 
ATOM     14  C   LIG    1        9.982   2.620   2.596  0.00  0.00    +0.040 C 
ATOM     15  C   LIG    1        9.477   2.939   4.022  0.00  0.00    +0.060 C 
ATOM     16  C   LIG    1        8.662   4.202   3.854  0.00  0.00    +0.540 C 
ATOM     17  O   LIG    1        8.325   4.937   4.758  0.00  0.00    -0.520 OA
ENDBRANCH  11  12
ENDBRANCH   3   5
BRANCH   1  18
ATOM     18  C   LIG    1        3.502   2.850   2.666  0.00  0.00    +0.280 C 
BRANCH  18  19
ATOM     19  C   LIG    1        1.997   3.025   2.454  0.00  0.00    -0.040 C 
ATOM     20  C   LIG    1        1.473   4.114   3.392  0.00  0.00    +0.030 C 
BRANCH  19  21
ATOM     21  C   LIG    1        1.283   1.706   2.755  0.00  0.00    +0.340 C 
BRANCH  21  28
ATOM     22  C   LIG    1       -0.013   1.086   0.008  0.00  0.00    +0.150 C 
ATOM     23  C   LIG    1       -0.718   1.572   1.248  0.00  0.00    +0.080 A 
ATOM     24  C   LIG    1       -2.042   1.825   1.365  0.00  0.00    -0.120 A 
ATOM     25  C   LIG    1       -2.284   2.253   2.675  0.00  0.00    +0.070 A 
ATOM     26  N   LIG    1       -1.145   2.264   3.318  0.00  0.00    -0.290 NA
ATOM     27  C   LIG    1       -3.625   2.639   3.244  0.00  0.00    +0.160 C 
ATOM     28  N   LIG    1       -0.141   1.838   2.438  0.00  0.00    -0.370 N 
ENDBRANCH  21  28
ENDBRANCH  19  21
ENDBRANCH  18  19
ENDBRANCH   1  18
TORSDOF 6
