REMARK  Name = ZINCpk00000jeYe8.0
REMARK                            x       y       z     vdW  Elec       q    Type
REMARK                         _______ _______ _______ _____ _____    ______ ____
ROOT
ATOM      1  C   LIG    1       -0.215   2.212   2.331  0.00  0.00    +0.540 C 
ATOM      2  N   LIG    1       -0.715   2.328   1.085  0.00  0.00    -0.610 N 
ATOM      3  C   LIG    1       -2.054   2.834   0.735  0.00  0.00    +0.260 C 
ATOM      4  C   LIG    1       -2.164   2.828  -0.801  0.00  0.00    -0.010 C 
ATOM      5  C   LIG    1       -2.630   4.229  -1.274  0.00  0.00    +0.250 C 
ATOM      6  C   LIG    1       -1.362   5.087  -1.080  0.00  0.00    +0.190 C 
ATOM      7  O   LIG    1       -0.238   4.200  -1.082  0.00  0.00    -0.360 OA
ATOM      8  C   LIG    1       -0.668   2.844  -1.258  0.00  0.00    +0.190 C 
ATOM      9  C   LIG    1       -0.011   1.971  -0.161  0.00  0.00    +0.270 C 
ATOM     10  O   LIG    1        0.865   1.689   2.506  0.00  0.00    -0.530 OA
ENDROOT
BRANCH   5  11
ATOM     11  N   LIG    1       -3.725   4.723  -0.436  0.00  0.00    -0.720 N 
ATOM     12  H   LIG    1       -3.825   4.400   0.473  0.00  0.00    +0.400 HD
ATOM     13  C   LIG    1       -4.596   5.627  -0.929  0.00  0.00    +0.600 C 
ATOM     14  O   LIG    1       -4.471   6.032  -2.069  0.00  0.00    -0.540 OA
BRANCH  13  15
ATOM     15  C   LIG    1       -5.698   6.124  -0.086  0.00  0.00    -0.300 A 
ATOM     16  C   LIG    1       -6.660   7.044  -0.454  0.00  0.00    +0.330 A 
ATOM     17  N   LIG    1       -7.473   7.218   0.601  0.00  0.00    -0.460 N 
ATOM     18  H   LIG    1       -8.241   7.809   0.632  0.00  0.00    +0.450 HD
ATOM     19  N   LIG    1       -7.025   6.403   1.646  0.00  0.00    -0.290 NA
ATOM     20  C   LIG    1       -5.973   5.743   1.246  0.00  0.00    +0.270 A 
ENDBRANCH  13  15
ENDBRANCH   5  11
BRANCH   1  21
ATOM     21  C   LIG    1       -0.999   2.732   3.509  0.00  0.00    -0.070 C 
ATOM     22  C   LIG    1       -2.346   2.011   3.583  0.00  0.00    +0.060 C 
ATOM     23  C   LIG    1       -1.234   4.235   3.341  0.00  0.00    +0.040 C 
BRANCH  21  24
ATOM     24  C   LIG    1       -0.213   2.479   4.797  0.00  0.00    +0.050 C 
BRANCH  24  26
ATOM     25  C   LIG    1       -2.026   1.766   6.362  0.00  0.00    +0.010 C 
ATOM     26  C   LIG    1       -1.060   2.897   6.001  0.00  0.00    -0.030 C 
ATOM     27  C   LIG    1       -0.144   3.185   7.192  0.00  0.00    +0.000 C 
ENDBRANCH  24  26
ENDBRANCH  21  24
ENDBRANCH   1  21
TORSDOF 5
