REMARK  Name = ZINCkj000005i6W0.0
REMARK                            x       y       z     vdW  Elec       q    Type
REMARK                         _______ _______ _______ _____ _____    ______ ____
ROOT
ATOM      1  C   LIG    1       -4.125   0.829   2.620  0.00  0.00    +0.500 C 
ATOM      2  N   LIG    1       -4.977   1.199   3.597  0.00  0.00    -0.530 N 
ATOM      3  C   LIG    1       -6.326   0.617   3.693  0.00  0.00    +0.280 C 
ATOM      4  C   LIG    1       -7.301   1.750   4.029  0.00  0.00    +0.160 C 
ATOM      5  O   LIG    1       -6.890   2.368   5.250  0.00  0.00    -0.300 OA
ATOM      6  C   LIG    1       -5.585   2.731   5.369  0.00  0.00    +0.120 A 
ATOM      7  C   LIG    1       -5.220   3.680   6.311  0.00  0.00    +0.010 A 
ATOM      8  C   LIG    1       -3.895   4.052   6.441  0.00  0.00    -0.050 A 
ATOM      9  C   LIG    1       -2.928   3.482   5.634  0.00  0.00    +0.000 A 
ATOM     10  C   LIG    1       -3.283   2.535   4.691  0.00  0.00    +0.070 A 
ATOM     11  C   LIG    1       -3.502   5.084   7.466  0.00  0.00    +0.100 C 
ATOM     12  C   LIG    1       -8.712   1.182   4.192  0.00  0.00    +0.090 C 
ATOM     13  C   LIG    1       -4.610   2.159   4.556  0.00  0.00    +0.040 A 
ATOM     14  O   LIG    1       -2.994   1.268   2.602  0.00  0.00    -0.510 OA
ENDROOT
BRANCH   1  15
ATOM     15  C   LIG    1       -4.578  -0.131   1.550  0.00  0.00    +0.300 C 
BRANCH  15  16
ATOM     16  N   LIG    1       -3.516  -0.281   0.546  0.00  0.00    -0.500 N 
ATOM     17  H   LIG    1       -3.317   0.616   0.130  0.00  0.00    +0.430 HD
ATOM     18  H   LIG    1       -2.683  -0.639   0.989  0.00  0.00    +0.440 HD
BRANCH  16  19
ATOM     19  C   LIG    1       -3.957  -1.217  -0.497  0.00  0.00    +0.290 C 
BRANCH  19  20
ATOM     20  C   LIG    1       -2.851  -1.374  -1.542  0.00  0.00    +0.210 C 
BRANCH  20  22
ATOM     21  C   LIG    1       -0.614  -2.182  -1.837  0.00  0.00    +0.240 C 
ATOM     22  O   LIG    1       -1.710  -1.989  -0.941  0.00  0.00    -0.400 OA
ENDBRANCH  20  22
ENDBRANCH  19  20
ENDBRANCH  16  19
ENDBRANCH  15  16
ENDBRANCH   1  15
TORSDOF 5
