REMARK  Name = ZINCrD000006V6hQ.0
REMARK                            x       y       z     vdW  Elec       q    Type
REMARK                         _______ _______ _______ _____ _____    ______ ____
ROOT
ATOM      1  N   LIG    1       -4.814   1.711   0.059  0.00  0.00    -0.680 N 
ATOM      2  H   LIG    1       -5.504   2.393   0.069  0.00  0.00    +0.420 HD
ENDROOT
BRANCH   1   3
ATOM      3  C   LIG    1       -3.483   2.075   0.047  0.00  0.00    +0.400 A 
ATOM      4  N   LIG    1       -2.494   1.249   0.033  0.00  0.00    -0.550 NA
ATOM      5  C   LIG    1       -1.246   1.760   0.018  0.00  0.00    +0.190 A 
ATOM      6  C   LIG    1       -0.013   1.076   0.008  0.00  0.00    +0.030 A 
ATOM      7  C   LIG    1        1.169   1.774   0.000  0.00  0.00    +0.140 A 
ATOM      8  C   LIG    1        1.170   3.160   0.007  0.00  0.00    -0.670 A 
ATOM      9  C   LIG    1       -0.023   3.849   0.022  0.00  0.00    +0.200 A 
ATOM     10  C   LIG    1       -1.231   3.158   0.030  0.00  0.00    -0.220 A 
ATOM     11  S   LIG    1       -2.896   3.733   0.049  0.00  0.00    +0.060 S 
BRANCH   8  12
ATOM     12  S   LIG    1        2.696   4.041  -0.003  0.00  0.00    +2.500 S 
ATOM     13  O   LIG    1        3.623   3.141   0.590  0.00  0.00    -0.930 OA
ATOM     14  O   LIG    1        2.388   5.284   0.611  0.00  0.00    -0.940 OA
ATOM     15  C   LIG    1        3.072   4.275  -1.762  0.00  0.00    -0.260 C 
ENDBRANCH   8  12
ENDBRANCH   1   3
BRANCH   1  16
ATOM     16  C   LIG    1       -5.185   0.294   0.056  0.00  0.00    +0.350 C 
BRANCH  16  19
ATOM     17  C   LIG    1       -8.768   0.001  -1.113  0.00  0.00    +0.150 A 
ATOM     18  C   LIG    1       -7.386   0.116  -1.122  0.00  0.00    -0.070 A 
ATOM     19  C   LIG    1       -6.687   0.168   0.070  0.00  0.00    -0.040 A 
ATOM     20  C   LIG    1       -7.362   0.099   1.274  0.00  0.00    -0.070 A 
ATOM     21  C   LIG    1       -8.744  -0.011   1.292  0.00  0.00    +0.150 A 
ATOM     22  C   LIG    1       -9.450  -0.063   0.096  0.00  0.00    +0.040 A 
BRANCH  17  24
ATOM     23  C   LIG    1       -8.688   0.020  -3.490  0.00  0.00    +0.250 C 
ATOM     24  O   LIG    1       -9.454  -0.051  -2.286  0.00  0.00    -0.300 OA
ENDBRANCH  17  24
BRANCH  21  25
ATOM     25  O   LIG    1       -9.407  -0.073   2.478  0.00  0.00    -0.300 OA
ATOM     26  C   LIG    1       -8.617  -0.014   3.667  0.00  0.00    +0.250 C 
ENDBRANCH  21  25
BRANCH  22  27
ATOM     27  O   LIG    1      -10.806  -0.177   0.109  0.00  0.00    -0.310 OA
ATOM     28  C   LIG    1      -11.346  -1.500   0.108  0.00  0.00    +0.240 C 
ENDBRANCH  22  27
ENDBRANCH  16  19
ENDBRANCH   1  16
TORSDOF 7
