REMARK  Name = ZINCpe00000Raj94.0
REMARK                            x       y       z     vdW  Elec       q    Type
REMARK                         _______ _______ _______ _____ _____    ______ ____
ROOT
ATOM      1  N   LIG    1        4.906   2.468  -3.928  0.00  0.00    -0.510 NA
ATOM      2  C   LIG    1        6.174   2.419  -3.188  0.00  0.00    +0.180 C 
ATOM      3  C   LIG    1        6.962   1.175  -3.606  0.00  0.00    +0.040 C 
ATOM      4  C   LIG    1        7.230   1.229  -5.112  0.00  0.00    +0.000 C 
ATOM      5  C   LIG    1        5.896   1.329  -5.857  0.00  0.00    +0.230 C 
ATOM      6  C   LIG    1        5.139   2.568  -5.374  0.00  0.00    +0.220 C 
ENDROOT
BRANCH   5   7
ATOM      7  C   LIG    1        6.154   1.442  -7.338  0.00  0.00    -0.020 A 
ATOM      8  N   LIG    1        5.879   2.466  -8.113  0.00  0.00    -0.270 NA
ATOM      9  N   LIG    1        6.248   2.187  -9.313  0.00  0.00    -0.250 N 
ATOM     10  H   LIG    1        6.155   2.784 -10.071  0.00  0.00    +0.470 HD
ATOM     11  N   LIG    1        6.755   1.007  -9.370  0.00  0.00    -0.280 NA
ATOM     12  C   LIG    1        6.729   0.477  -8.168  0.00  0.00    +0.190 A 
ENDBRANCH   5   7
BRANCH   5  13
ATOM     13  O   LIG    1        5.115   0.161  -5.597  0.00  0.00    -0.520 OA
ATOM     14  H   LIG    1        5.535  -0.664  -5.878  0.00  0.00    +0.370 HD
ENDBRANCH   5  13
BRANCH   1  15
ATOM     15  C   LIG    1        4.062   3.572  -3.453  0.00  0.00    +0.200 C 
BRANCH  15  18
ATOM     16  C   LIG    1        2.414   5.412  -2.063  0.00  0.00    +0.270 C 
ATOM     17  N   LIG    1        2.859   4.193  -1.383  0.00  0.00    -0.620 N 
ATOM     18  C   LIG    1        3.643   3.308  -2.030  0.00  0.00    +0.520 C 
ATOM     19  O   LIG    1        4.011   2.299  -1.467  0.00  0.00    -0.510 OA
BRANCH  17  20
ATOM     20  C   LIG    1        2.451   3.936   0.001  0.00  0.00    +0.350 C 
BRANCH  20  21
ATOM     21  C   LIG    1        1.156   3.166   0.008  0.00  0.00    -0.120 A 
ATOM     22  C   LIG    1        1.175   1.783   0.000  0.00  0.00    +0.080 A 
ATOM     23  C   LIG    1       -0.013   1.076   0.008  0.00  0.00    -0.020 A 
ATOM     24  C   LIG    1       -1.221   1.752   0.017  0.00  0.00    +0.100 A 
ATOM     25  C   LIG    1       -1.238   3.136   0.030  0.00  0.00    -0.020 A 
ATOM     26  F   LIG    1       -2.382   1.062   0.019  0.00  0.00    -0.140 F 
ATOM     27  C   LIG    1       -0.050   3.842   0.023  0.00  0.00    +0.050 A 
ENDBRANCH  20  21
ENDBRANCH  17  20
ENDBRANCH  15  18
ENDBRANCH   1  15
TORSDOF 6
