REMARK  Name = ZINCvU00000009S6.0
REMARK                            x       y       z     vdW  Elec       q    Type
REMARK                         _______ _______ _______ _____ _____    ______ ____
ROOT
ATOM      1  C   LIG    1       -4.948   1.583   0.033  0.00  0.00    +0.310 C 
ENDROOT
BRANCH   1   2
ATOM      2  N   LIG    1       -3.686   2.328   0.032  0.00  0.00    -0.710 N 
ATOM      3  H   LIG    1       -3.695   3.298   0.037  0.00  0.00    +0.410 HD
ATOM      4  C   LIG    1       -2.512   1.665   0.022  0.00  0.00    +0.560 C 
ATOM      5  O   LIG    1       -2.501   0.450   0.015  0.00  0.00    -0.500 OA
BRANCH   4   6
ATOM      6  C   LIG    1       -1.240   2.416   0.021  0.00  0.00    -0.130 A 
ATOM      7  C   LIG    1       -1.250   3.812   0.035  0.00  0.00    +0.090 A 
ATOM      8  C   LIG    1       -0.060   4.508   0.028  0.00  0.00    +0.040 A 
ATOM      9  C   LIG    1        1.145   3.824   0.012  0.00  0.00    +0.000 A 
ATOM     10  C   LIG    1        1.163   2.440   0.004  0.00  0.00    +0.040 A 
ATOM     11 CL   LIG    1        2.640   4.708   0.003  0.00  0.00    -0.040 Cl
ATOM     12  C   LIG    1       -0.021   1.732   0.012  0.00  0.00    +0.030 A 
ATOM     13 CL   LIG    1        0.002  -0.004   0.002  0.00  0.00    -0.010 Cl
ENDBRANCH   4   6
ENDBRANCH   1   2
BRANCH   1  14
ATOM     14  C   LIG    1       -6.032   2.433   0.643  0.00  0.00    +0.470 C 
ATOM     15  O   LIG    1       -5.777   3.547   1.037  0.00  0.00    -0.490 OA
BRANCH  14  16
ATOM     16  O   LIG    1       -7.281   1.953   0.750  0.00  0.00    -0.350 OA
BRANCH  16  17
ATOM     17  C   LIG    1       -8.274   2.827   1.348  0.00  0.00    +0.350 C 
BRANCH  17  18
ATOM     18  C   LIG    1       -9.606   2.124   1.383  0.00  0.00    +0.060 A 
ATOM     19  C   LIG    1       -9.767   0.883   0.910  0.00  0.00    -0.030 A 
ATOM     20  S   LIG    1      -11.453   0.422   1.136  0.00  0.00    +0.110 S 
ATOM     21  C   LIG    1      -11.782   1.995   1.857  0.00  0.00    +0.120 A 
ATOM     22  N   LIG    1      -10.682   2.692   1.876  0.00  0.00    -0.460 NA
BRANCH  21  23
ATOM     23  C   LIG    1      -13.095   2.450   2.362  0.00  0.00    -0.030 A 
ATOM     24  C   LIG    1      -13.229   3.722   2.920  0.00  0.00    +0.070 A 
ATOM     25  C   LIG    1      -14.459   4.142   3.384  0.00  0.00    +0.010 A 
ATOM     26  C   LIG    1      -15.555   3.302   3.306  0.00  0.00    +0.030 A 
ATOM     27  C   LIG    1      -15.428   2.038   2.759  0.00  0.00    +0.010 A 
ATOM     28  C   LIG    1      -14.205   1.607   2.287  0.00  0.00    +0.030 A 
ENDBRANCH  21  23
ENDBRANCH  17  18
ENDBRANCH  16  17
ENDBRANCH  14  16
ENDBRANCH   1  14
BRANCH   1  29
ATOM     29  C   LIG    1       -5.329   1.224  -1.404  0.00  0.00    +0.070 C 
BRANCH  29  30
ATOM     30  C   LIG    1       -4.291   0.260  -1.982  0.00  0.00    +0.100 C 
BRANCH  30  32
ATOM     31  C   LIG    1       -3.417  -1.296  -4.191  0.00  0.00    +0.140 C 
ATOM     32  S   LIG    1       -4.744  -0.166  -3.686  0.00  0.00    -0.270 S 
ENDBRANCH  30  32
ENDBRANCH  29  30
ENDBRANCH   1  29
TORSDOF 10
