REMARK  Name = ZINCrD00000757BP.0
REMARK                            x       y       z     vdW  Elec       q    Type
REMARK                         _______ _______ _______ _____ _____    ______ ____
ROOT
ATOM      1  C   LIG    1        3.067   8.107   0.017  0.00  0.00    +0.130 C 
ENDROOT
BRANCH   1   2
ATOM      2  C   LIG    1        1.595   8.434   0.032  0.00  0.00    +0.580 C 
ATOM      3  N   LIG    1        0.684   7.441   0.036  0.00  0.00    -0.470 N 
ATOM      4  C   LIG    1       -0.776   7.619   0.050  0.00  0.00    +0.260 C 
ATOM      5  C   LIG    1       -1.317   6.175   0.041  0.00  0.00    +0.090 C 
ATOM      6  C   LIG    1       -0.070   5.320   0.031  0.00  0.00    +0.150 C 
ATOM      7  N   LIG    1        0.972   6.077   0.026  0.00  0.00    -0.240 NA
ATOM      8  O   LIG    1        1.232   9.591   0.042  0.00  0.00    -0.510 OA
BRANCH   6   9
ATOM      9  C   LIG    1       -0.050   3.845   0.023  0.00  0.00    -0.040 A 
ATOM     10  C   LIG    1        1.167   3.160   0.008  0.00  0.00    +0.050 A 
ATOM     11  C   LIG    1        1.178   1.781   0.000  0.00  0.00    +0.010 A 
ATOM     12  C   LIG    1       -0.013   1.076   0.008  0.00  0.00    +0.030 A 
ATOM     13  C   LIG    1       -1.222   1.748   0.017  0.00  0.00    +0.010 A 
ATOM     14  C   LIG    1       -1.248   3.127   0.030  0.00  0.00    +0.040 A 
ENDBRANCH   6   9
ENDBRANCH   1   2
BRANCH   1  15
ATOM     15  S   LIG    1        4.026   9.642   0.016  0.00  0.00    +0.080 S 
BRANCH  15  20
ATOM     16  C   LIG    1        9.310   9.046  -0.036  0.00  0.00    +0.200 C 
ATOM     17  C   LIG    1        7.830   8.764  -0.023  0.00  0.00    +0.200 A 
ATOM     18  N   LIG    1        7.267   7.589  -0.024  0.00  0.00    -0.280 NA
ATOM     19  N   LIG    1        5.988   7.710  -0.006  0.00  0.00    -0.290 NA
ATOM     20  C   LIG    1        5.659   8.982  -0.002  0.00  0.00    +0.150 A 
ATOM     21  N   LIG    1        6.826   9.696  -0.009  0.00  0.00    -0.420 N 
BRANCH  21  22
ATOM     22  C   LIG    1        6.965  11.092  -0.003  0.00  0.00    +0.100 A 
ATOM     23  C   LIG    1        7.534  11.739  -1.091  0.00  0.00    +0.030 A 
ATOM     24  C   LIG    1        7.665  13.114  -1.084  0.00  0.00    +0.040 A 
ATOM     25  C   LIG    1        7.240  13.845   0.010  0.00  0.00    +0.030 A 
ATOM     26  C   LIG    1        6.677  13.202   1.097  0.00  0.00    +0.040 A 
ATOM     27  C   LIG    1        6.538  11.828   1.094  0.00  0.00    +0.030 A 
ENDBRANCH  21  22
ENDBRANCH  15  20
ENDBRANCH   1  15
TORSDOF 5
