REMARK  Name = ZINCrD00000lbUhI.0
REMARK                            x       y       z     vdW  Elec       q    Type
REMARK                         _______ _______ _______ _____ _____    ______ ____
ROOT
ATOM      1  C   LIG    1        2.098   0.649  -0.015  0.00  0.00    +0.200 A 
ATOM      2  N   LIG    1        1.339  -0.421  -0.013  0.00  0.00    -0.310 NA
ATOM      3  N   LIG    1        0.002  -0.004   0.002  0.00  0.00    -0.340 NA
ATOM      4  C   LIG    1       -0.016   1.306   0.009  0.00  0.00    +0.420 A 
ATOM      5  N   LIG    1        1.280   1.746  -0.001  0.00  0.00    -0.440 N 
ENDROOT
BRANCH   4   6
ATOM      6  N   LIG    1       -1.150   2.107   0.019  0.00  0.00    -0.450 N 
ATOM      7  C   LIG    1       -1.130   3.035   1.158  0.00  0.00    +0.180 C 
ATOM      8  C   LIG    1       -2.316   3.996   1.056  0.00  0.00    +0.050 C 
ATOM      9  C   LIG    1       -3.619   3.192   1.052  0.00  0.00    +0.000 C 
ATOM     10  C   LIG    1       -3.595   2.200  -0.114  0.00  0.00    +0.030 C 
ATOM     11  C   LIG    1       -2.371   1.291   0.021  0.00  0.00    +0.210 C 
ENDBRANCH   4   6
BRANCH   5  12
ATOM     12  C   LIG    1        1.696   3.086   0.002  0.00  0.00    +0.100 A 
ATOM     13  C   LIG    1        1.413   3.905  -1.083  0.00  0.00    +0.040 A 
ATOM     14  C   LIG    1        1.819   5.224  -1.075  0.00  0.00    +0.030 A 
ATOM     15  C   LIG    1        2.518   5.728   0.007  0.00  0.00    +0.030 A 
ATOM     16  C   LIG    1        2.807   4.913   1.087  0.00  0.00    +0.030 A 
ATOM     17  C   LIG    1        2.398   3.594   1.087  0.00  0.00    +0.030 A 
ENDBRANCH   5  12
BRANCH   1  18
ATOM     18  S   LIG    1        3.860   0.669  -0.030  0.00  0.00    +0.080 S 
BRANCH  18  20
ATOM     19  C   LIG    1        3.805  -1.726  -1.350  0.00  0.00    +0.080 C 
ATOM     20  C   LIG    1        4.288  -1.093  -0.044  0.00  0.00    +0.010 C 
BRANCH  20  21
ATOM     21  C   LIG    1        5.784  -1.248   0.066  0.00  0.00    +0.550 C 
ATOM     22  N   LIG    1        6.312  -2.417   0.476  0.00  0.00    -0.610 N 
ATOM     23  C   LIG    1        5.550  -3.617   0.852  0.00  0.00    +0.240 C 
ATOM     24  C   LIG    1        6.570  -4.695   1.274  0.00  0.00    +0.040 C 
ATOM     25  C   LIG    1        7.818  -3.857   1.660  0.00  0.00    +0.040 C 
ATOM     26  C   LIG    1        7.750  -2.704   0.627  0.00  0.00    +0.260 C 
ATOM     27  O   LIG    1        6.511  -0.319  -0.215  0.00  0.00    -0.520 OA
ENDBRANCH  20  21
ENDBRANCH  18  20
ENDBRANCH   1  18
TORSDOF 5
