REMARK  Name = ZINCrH000004rnGd.0
REMARK                            x       y       z     vdW  Elec       q    Type
REMARK                         _______ _______ _______ _____ _____    ______ ____
ROOT
ATOM      1  N   LIG    1        1.307   3.636   0.076  0.00  0.00    -0.520 NA
ATOM      2  C   LIG    1        0.415   3.938  -1.051  0.00  0.00    +0.180 C 
ATOM      3  C   LIG    1       -0.020   5.403  -0.981  0.00  0.00    +0.050 C 
ATOM      4  C   LIG    1        1.220   6.301  -1.031  0.00  0.00    -0.020 C 
ATOM      5  C   LIG    1        2.154   5.934   0.125  0.00  0.00    +0.060 C 
ATOM      6  C   LIG    1        2.526   4.453   0.023  0.00  0.00    +0.180 C 
ENDROOT
BRANCH   4   7
ATOM      7  C   LIG    1        0.802   7.743  -0.902  0.00  0.00    +0.520 C 
ATOM      8  N   LIG    1        0.072   8.323  -1.876  0.00  0.00    -0.600 N 
ATOM      9  C   LIG    1       -0.388   9.680  -1.682  0.00  0.00    +0.270 C 
ATOM     10  C   LIG    1       -1.761   9.674  -0.979  0.00  0.00    +0.000 C 
ATOM     11  C   LIG    1       -2.804   9.193  -1.898  0.00  0.00    +0.000 C 
ATOM     12  C   LIG    1       -2.612   7.754  -2.368  0.00  0.00    +0.010 C 
ATOM     13  C   LIG    1       -1.685   7.736  -3.558  0.00  0.00    +0.020 C 
ATOM     14  C   LIG    1       -0.230   7.545  -3.093  0.00  0.00    +0.240 C 
ATOM     15  O   LIG    1        1.122   8.382   0.077  0.00  0.00    -0.530 OA
ENDBRANCH   4   7
BRANCH   1  16
ATOM     16  C   LIG    1        1.634   2.204   0.120  0.00  0.00    +0.220 C 
BRANCH  16  19
ATOM     17  N   LIG    1        0.447   0.070   0.509  0.00  0.00    -0.670 N 
ATOM     18  H   LIG    1        1.276  -0.393   0.310  0.00  0.00    +0.410 HD
ATOM     19  C   LIG    1        0.387   1.413   0.420  0.00  0.00    +0.510 C 
ATOM     20  O   LIG    1       -0.671   1.985   0.577  0.00  0.00    -0.490 OA
BRANCH  17  25
ATOM     21  C   LIG    1       -4.147  -2.881   2.052  0.00  0.00    +0.100 C 
ATOM     22  C   LIG    1       -2.927  -2.097   1.642  0.00  0.00    -0.090 A 
ATOM     23  C   LIG    1       -1.958  -2.691   0.855  0.00  0.00    +0.050 A 
ATOM     24  C   LIG    1       -0.839  -1.975   0.478  0.00  0.00    -0.010 A 
ATOM     25  C   LIG    1       -0.687  -0.657   0.890  0.00  0.00    +0.150 A 
ATOM     26  C   LIG    1       -1.659  -0.064   1.684  0.00  0.00    +0.040 A 
ATOM     27  C   LIG    1       -2.780  -0.784   2.054  0.00  0.00    -0.020 A 
ATOM     28 CL   LIG    1       -3.999  -0.042   3.042  0.00  0.00    -0.060 Cl
ENDBRANCH  17  25
ENDBRANCH  16  19
ENDBRANCH   1  16
TORSDOF 4
