REMARK  Name = ZINCpk00000eb4VF.0
REMARK                            x       y       z     vdW  Elec       q    Type
REMARK                         _______ _______ _______ _____ _____    ______ ____
ROOT
ATOM      1  N   LIG    1       -1.266   1.528  -3.373  0.00  0.00    -0.620 N 
ATOM      2  C   LIG    1       -1.903   0.564  -4.068  0.00  0.00    +0.570 C 
ATOM      3  O   LIG    1       -1.980  -0.563  -3.615  0.00  0.00    -0.500 OA
ATOM      4  C   LIG    1       -1.288   2.912  -3.852  0.00  0.00    +0.290 C 
ENDROOT
BRANCH   2   5
ATOM      5  C   LIG    1       -2.503   0.874  -5.370  0.00  0.00    +0.030 A 
ATOM      6  C   LIG    1       -3.567   0.153  -5.824  0.00  0.00    +0.130 A 
ATOM      7  C   LIG    1       -4.124   0.477  -7.083  0.00  0.00    +0.010 A 
ATOM      8  C   LIG    1       -5.176  -0.049  -7.803  0.00  0.00    +0.040 A 
ATOM      9  C   LIG    1       -5.266   0.680  -8.995  0.00  0.00    -0.010 A 
ATOM     10  C   LIG    1       -4.292   1.619  -8.987  0.00  0.00    +0.220 A 
ATOM     11  N   LIG    1       -3.582   1.511  -7.826  0.00  0.00    -0.430 N 
ATOM     12  C   LIG    1       -2.530   2.203  -7.348  0.00  0.00    +0.700 A 
ATOM     13  O   LIG    1       -2.062   3.110  -8.008  0.00  0.00    -0.530 OA
ATOM     14  N   LIG    1       -1.992   1.912  -6.150  0.00  0.00    -0.630 N 
ATOM     15  H   LIG    1       -1.237   2.428  -5.826  0.00  0.00    +0.430 HD
ENDBRANCH   2   5
BRANCH   1  16
ATOM     16  C   LIG    1       -0.551   1.191  -2.140  0.00  0.00    +0.310 C 
BRANCH  16  22
ATOM     17  C   LIG    1       -4.820   4.493   2.949  0.00  0.00    +0.140 C 
ATOM     18  C   LIG    1       -3.893   3.651   2.110  0.00  0.00    -0.000 A 
ATOM     19  C   LIG    1       -3.456   3.951   0.870  0.00  0.00    +0.110 A 
ATOM     20  N   LIG    1       -2.644   2.927   0.483  0.00  0.00    -0.460 N 
ATOM     21  C   LIG    1       -1.926   2.781  -0.786  0.00  0.00    +0.280 C 
ATOM     22  C   LIG    1       -1.503   1.317  -0.948  0.00  0.00    -0.030 C 
ATOM     23  C   LIG    1       -0.793   0.846   0.324  0.00  0.00    +0.040 C 
ATOM     24  C   LIG    1       -1.812   0.749   1.466  0.00  0.00    +0.160 C 
ATOM     25  C   LIG    1       -2.609   2.032   1.498  0.00  0.00    +0.210 A 
ATOM     26  N   LIG    1       -3.358   2.472   2.466  0.00  0.00    -0.490 NA
ENDBRANCH  16  22
ENDBRANCH   1  16
TORSDOF 3
