REMARK  Name = ZINCpk00000xIh1z.0
REMARK                            x       y       z     vdW  Elec       q    Type
REMARK                         _______ _______ _______ _____ _____    ______ ____
ROOT
ATOM      1  C   LIG    1        1.245  -0.528  -0.013  0.00  0.00    -0.230 A 
ATOM      2  C   LIG    1        0.002  -0.004   0.002  0.00  0.00    -0.000 A 
ATOM      3  C   LIG    1       -0.017   1.385   0.010  0.00  0.00    -0.000 A 
ATOM      4  C   LIG    1        1.224   1.960   0.001  0.00  0.00    -0.800 A 
ATOM      5  C   LIG    1       -1.248  -0.846   0.009  0.00  0.00    +0.140 C 
ATOM      6  S   LIG    1        2.438   0.761  -0.017  0.00  0.00    +0.420 S 
ENDROOT
BRANCH   4   7
ATOM      7  S   LIG    1        1.527   3.695   0.007  0.00  0.00    +2.700 S 
ATOM      8  O   LIG    1        0.360   4.308  -0.524  0.00  0.00    -0.930 OA
ATOM      9  O   LIG    1        2.822   3.879  -0.549  0.00  0.00    -0.930 OA
BRANCH   7  10
ATOM     10  N   LIG    1        1.627   4.170   1.590  0.00  0.00    -0.990 NA
ATOM     11  C   LIG    1        0.430   4.610   2.325  0.00  0.00    +0.280 C 
ATOM     12  C   LIG    1        0.371   3.835   3.651  0.00  0.00    +0.200 C 
ATOM     13  O   LIG    1        1.620   3.974   4.332  0.00  0.00    -0.370 OA
ATOM     14  C   LIG    1        2.735   3.422   3.627  0.00  0.00    +0.140 C 
ATOM     15  C   LIG    1        4.000   3.572   4.474  0.00  0.00    +0.070 C 
ATOM     16  C   LIG    1        0.103   2.355   3.371  0.00  0.00    +0.020 C 
ATOM     17  C   LIG    1        2.915   4.171   2.302  0.00  0.00    +0.280 C 
ENDBRANCH   7  10
ENDBRANCH   4   7
BRANCH   1  18
ATOM     18  C   LIG    1        1.554  -1.961  -0.023  0.00  0.00    +0.540 C 
ATOM     19  O   LIG    1        0.653  -2.778  -0.019  0.00  0.00    -0.480 OA
BRANCH  18  21
ATOM     20  C   LIG    1        3.070  -3.807  -0.048  0.00  0.00    +0.290 C 
ATOM     21  O   LIG    1        2.838  -2.374  -0.038  0.00  0.00    -0.350 OA
ENDBRANCH  18  21
ENDBRANCH   1  18
BRANCH   3  22
ATOM     22  C   LIG    1       -1.262   2.169   0.020  0.00  0.00    +0.530 C 
ATOM     23  O   LIG    1       -1.771   2.488   1.077  0.00  0.00    -0.480 OA
BRANCH  22  24
ATOM     24  O   LIG    1       -1.839   2.534  -1.142  0.00  0.00    -0.330 OA
ATOM     25  C   LIG    1       -3.065   3.307  -1.056  0.00  0.00    +0.290 C 
ENDBRANCH  22  24
ENDBRANCH   3  22
TORSDOF 6
