REMARK  Name = ZINCrD0000073ckv.0
REMARK                            x       y       z     vdW  Elec       q    Type
REMARK                         _______ _______ _______ _____ _____    ______ ____
ROOT
ATOM      1  C   LIG    1        5.360  -1.792  -0.662  0.00  0.00    +0.170 C 
ATOM      2  C   LIG    1        5.788  -1.637  -2.145  0.00  0.00    +0.080 C 
ATOM      3  C   LIG    1        5.729  -0.110  -2.363  0.00  0.00    +0.360 C 
ATOM      4  N   LIG    1        4.827   0.442  -1.342  0.00  0.00    -0.600 N 
ATOM      5  C   LIG    1        4.526   1.746  -1.182  0.00  0.00    +0.560 C 
ATOM      6  O   LIG    1        4.943   2.566  -1.973  0.00  0.00    -0.520 OA
ATOM      7  C   LIG    1        4.310  -0.666  -0.519  0.00  0.00    +0.260 C 
ENDROOT
BRANCH   3   8
ATOM      8  C   LIG    1        7.106   0.484  -2.205  0.00  0.00    +0.150 A 
ATOM      9  N   LIG    1        7.753   0.644  -1.086  0.00  0.00    -0.270 NA
ATOM     10  N   LIG    1        8.899   1.176  -1.328  0.00  0.00    -0.290 NA
ATOM     11  C   LIG    1        9.018   1.383  -2.608  0.00  0.00    +0.170 A 
ATOM     12  C   LIG    1       10.205   1.995  -3.306  0.00  0.00    +0.240 C 
ATOM     13  O   LIG    1        7.888   0.950  -3.193  0.00  0.00    -0.220 OA
ENDBRANCH   3   8
BRANCH   5  14
ATOM     14  C   LIG    1        3.672   2.186  -0.021  0.00  0.00    -0.030 C 
ATOM     15  C   LIG    1        4.409   1.919   1.308  0.00  0.00    +0.050 C 
ATOM     16  C   LIG    1        5.085   3.273   1.644  0.00  0.00    +0.020 C 
ATOM     17  C   LIG    1        4.022   4.307   1.197  0.00  0.00    +0.020 C 
ATOM     18  C   LIG    1        3.426   3.703  -0.092  0.00  0.00    +0.060 C 
BRANCH  14  19
ATOM     19  C   LIG    1        2.358   1.449  -0.039  0.00  0.00    -0.050 A 
ATOM     20  C   LIG    1        1.452   1.676  -1.058  0.00  0.00    +0.010 A 
ATOM     21  C   LIG    1        0.246   1.000  -1.076  0.00  0.00    +0.060 A 
ATOM     22  C   LIG    1       -0.055   0.097  -0.075  0.00  0.00    -0.010 A 
ATOM     23  C   LIG    1        0.851  -0.132   0.947  0.00  0.00    +0.110 A 
ATOM     24  F   LIG    1        0.558  -1.015   1.926  0.00  0.00    -0.140 F 
ATOM     25  C   LIG    1        2.059   0.545   0.964  0.00  0.00    -0.020 A 
ENDBRANCH  14  19
ENDBRANCH   5  14
BRANCH   1  27
ATOM     26  C   LIG    1        4.968  -3.571   0.896  0.00  0.00    +0.220 C 
ATOM     27  O   LIG    1        4.774  -3.075  -0.430  0.00  0.00    -0.370 OA
ENDBRANCH   1  27
TORSDOF 4
