REMARK  Name = ZINC650000002Apx.0
REMARK                            x       y       z     vdW  Elec       q    Type
REMARK                         _______ _______ _______ _____ _____    ______ ____
ROOT
ATOM      1  C   LIG    1       -2.141   1.568  -1.707  0.00  0.00    +0.300 C 
ENDROOT
BRANCH   1   2
ATOM      2  N   LIG    1       -2.684   2.057  -2.982  0.00  0.00    -0.640 N 
ATOM      3  H   LIG    1       -2.139   1.684  -3.744  0.00  0.00    +0.440 HD
ATOM      4  H   LIG    1       -2.642   3.065  -3.000  0.00  0.00    +0.440 HD
ATOM      5  H   LIG    1       -3.643   1.758  -3.076  0.00  0.00    +0.440 HD
ENDBRANCH   1   2
BRANCH   1   6
ATOM      6  C   LIG    1       -0.687   2.021  -1.564  0.00  0.00    -0.270 C 
BRANCH   6   8
ATOM      7  C   LIG    1        1.685   2.045  -0.003  0.00  0.00    -0.160 C 
ATOM      8  S   LIG    1       -0.017   1.417   0.010  0.00  0.00    +1.280 S 
ATOM      9  O   LIG    1        0.002  -0.004   0.002  0.00  0.00    -0.830 OA
ENDBRANCH   6   8
ENDBRANCH   1   6
TORSDOF 3
