REMARK  Name = ZINCrD0000074WIv.0
REMARK                            x       y       z     vdW  Elec       q    Type
REMARK                         _______ _______ _______ _____ _____    ______ ____
ROOT
ATOM      1  C   LIG    1        3.514   0.711  -0.018  0.00  0.00    +0.280 C 
ATOM      2  C   LIG    1        4.044  -0.452  -0.860  0.00  0.00    +0.020 C 
ATOM      3  C   LIG    1        5.574  -0.390  -0.905  0.00  0.00    +0.290 C 
ATOM      4  N   LIG    1        6.086  -0.358   0.472  0.00  0.00    -0.620 N 
ATOM      5  C   LIG    1        5.574   0.665   1.393  0.00  0.00    +0.320 C 
ATOM      6  C   LIG    1        7.009  -1.251   0.882  0.00  0.00    +0.710 C 
ATOM      7  N   LIG    1        7.395  -2.247   0.059  0.00  0.00    -0.670 N 
ATOM      8  H   LIG    1        7.069  -2.276  -0.854  0.00  0.00    +0.420 HD
ATOM      9  O   LIG    1        7.493  -1.159   1.993  0.00  0.00    -0.570 OA
ATOM     10  C   LIG    1        4.045   0.591   1.413  0.00  0.00    +0.020 C 
ENDROOT
BRANCH   7  11
ATOM     11  C   LIG    1        8.268  -3.239   0.522  0.00  0.00    +0.200 A 
ATOM     12  C   LIG    1        8.193  -3.671   1.838  0.00  0.00    +0.020 A 
ATOM     13  C   LIG    1        9.053  -4.656   2.292  0.00  0.00    +0.120 A 
ATOM     14  C   LIG    1        9.996  -5.204   1.438  0.00  0.00    +0.010 A 
ATOM     15  C   LIG    1       10.079  -4.774   0.127  0.00  0.00    +0.060 A 
ATOM     16  F   LIG    1        8.976  -5.081   3.572  0.00  0.00    -0.130 F 
ATOM     17  C   LIG    1        9.217  -3.791  -0.337  0.00  0.00    +0.110 A 
BRANCH  17  18
ATOM     18  N   LIG    1        9.301  -3.354  -1.667  0.00  0.00    -0.310 N 
ATOM     19  C   LIG    1       10.229  -3.734  -2.573  0.00  0.00    +0.240 A 
ATOM     20  C   LIG    1        9.962  -3.090  -3.733  0.00  0.00    -0.100 A 
ATOM     21  C   LIG    1        8.833  -2.289  -3.530  0.00  0.00    +0.260 A 
ATOM     22  N   LIG    1        8.432  -2.451  -2.294  0.00  0.00    -0.320 NA
ENDBRANCH  17  18
ENDBRANCH   7  11
BRANCH   1  26
ATOM     23  C   LIG    1       -1.212  -0.957   0.032  0.00  0.00    +0.110 C 
ATOM     24  C   LIG    1       -0.011  -0.047   0.021  0.00  0.00    -0.240 A 
ATOM     25  C   LIG    1        1.284  -0.438   0.003  0.00  0.00    +0.220 A 
ATOM     26  N   LIG    1        2.050   0.673  -0.000  0.00  0.00    -0.370 N 
ATOM     27  N   LIG    1        1.197   1.784   0.016  0.00  0.00    -0.290 NA
ATOM     28  C   LIG    1       -0.038   1.352   0.029  0.00  0.00    +0.230 A 
ENDBRANCH   1  26
TORSDOF 3
