REMARK  Name = ZINCkj000005hHvX.0
REMARK                            x       y       z     vdW  Elec       q    Type
REMARK                         _______ _______ _______ _____ _____    ______ ____
ROOT
ATOM      1  N   LIG    1       -2.928   0.721   1.405  0.00  0.00    -0.500 N 
ATOM      2  H   LIG    1       -3.058   1.599   1.886  0.00  0.00    +0.430 HD
ATOM      3  H   LIG    1       -2.215   0.183   1.874  0.00  0.00    +0.440 HD
ENDROOT
BRANCH   1   8
ATOM      4  C   LIG    1       -7.832   0.382   1.167  0.00  0.00    +0.670 C 
ATOM      5  N   LIG    1       -6.562   0.246   1.598  0.00  0.00    -0.610 N 
ATOM      6  C   LIG    1       -6.132  -0.553   2.755  0.00  0.00    +0.280 C 
ATOM      7  C   LIG    1       -4.596  -0.431   2.850  0.00  0.00    +0.070 C 
ATOM      8  C   LIG    1       -4.190  -0.030   1.407  0.00  0.00    +0.160 C 
ATOM      9  C   LIG    1       -5.376   0.875   0.990  0.00  0.00    +0.320 C 
ATOM     10  O   LIG    1       -8.073   1.071   0.195  0.00  0.00    -0.550 OA
BRANCH   4  12
ATOM     11  C   LIG    1      -10.175  -0.054   1.291  0.00  0.00    +0.300 C 
ATOM     12  O   LIG    1       -8.833  -0.245   1.812  0.00  0.00    -0.360 OA
ENDBRANCH   4  12
ENDBRANCH   1   8
BRANCH   1  13
ATOM     13  C   LIG    1       -2.514   0.980   0.019  0.00  0.00    +0.320 C 
BRANCH  13  14
ATOM     14  C   LIG    1       -1.219   1.751   0.017  0.00  0.00    -0.140 A 
ATOM     15  C   LIG    1       -0.013   1.076   0.008  0.00  0.00    +0.030 A 
ATOM     16  C   LIG    1        1.175   1.783   0.000  0.00  0.00    +0.110 A 
ATOM     17  C   LIG    1        1.156   3.165   0.008  0.00  0.00    -0.430 A 
ATOM     18  C   LIG    1       -0.050   3.840   0.022  0.00  0.00    +0.090 A 
ATOM     19  C   LIG    1       -1.238   3.133   0.029  0.00  0.00    +0.020 A 
BRANCH  17  20
ATOM     20  S   LIG    1        2.670   4.067  -0.001  0.00  0.00    +1.340 S 
ATOM     21  O   LIG    1        2.302   5.316   0.569  0.00  0.00    -0.840 OA
ATOM     22  C   LIG    1        3.004   4.285  -1.770  0.00  0.00    -0.190 C 
ENDBRANCH  17  20
ENDBRANCH  13  14
ENDBRANCH   1  13
TORSDOF 5
