REMARK  Name = ZINCpk00000eaZIt.0
REMARK                            x       y       z     vdW  Elec       q    Type
REMARK                         _______ _______ _______ _____ _____    ______ ____
ROOT
ATOM      1  C   LIG    1        0.120   2.509  -2.060  0.00  0.00    +0.280 C 
ENDROOT
BRANCH   1   2
ATOM      2  C   LIG    1       -0.784   1.609  -1.216  0.00  0.00    +0.000 C 
ATOM      3  C   LIG    1       -0.013   1.086   0.008  0.00  0.00    +0.060 C 
ATOM      4  C   LIG    1       -0.763   1.597   1.255  0.00  0.00    +0.100 C 
ATOM      5  C   LIG    1       -2.207   1.850   0.751  0.00  0.00    +0.020 C 
ATOM      6  C   LIG    1       -1.978   2.421  -0.670  0.00  0.00    +0.170 C 
BRANCH   4   7
ATOM      7  C   LIG    1       -0.757   0.551   2.340  0.00  0.00    +0.180 A 
ATOM      8  N   LIG    1       -1.263  -0.649   2.259  0.00  0.00    -0.290 NA
ATOM      9  N   LIG    1       -1.077  -1.273   3.369  0.00  0.00    -0.300 NA
ATOM     10  C   LIG    1       -0.452  -0.495   4.210  0.00  0.00    +0.370 A 
ATOM     11  N   LIG    1       -0.232   0.684   3.582  0.00  0.00    -0.480 N 
ATOM     12  C   LIG    1        0.440   1.865   4.132  0.00  0.00    +0.340 C 
ENDBRANCH   4   7
BRANCH   6  13
ATOM     13  O   LIG    1       -1.650   3.810  -0.605  0.00  0.00    -0.550 OA
ATOM     14  H   LIG    1       -2.365   4.367  -0.269  0.00  0.00    +0.380 HD
ENDBRANCH   6  13
ENDBRANCH   1   2
BRANCH   1  16
ATOM     15  C   LIG    1        0.019   3.702  -4.183  0.00  0.00    +0.520 C 
ATOM     16  N   LIG    1       -0.587   2.904  -3.282  0.00  0.00    -0.720 N 
ATOM     17  H   LIG    1       -1.491   2.590  -3.442  0.00  0.00    +0.400 HD
ATOM     18  O   LIG    1        1.149   4.094  -3.982  0.00  0.00    -0.530 OA
BRANCH  15  19
ATOM     19  C   LIG    1       -0.708   4.108  -5.439  0.00  0.00    +0.120 C 
BRANCH  19  25
ATOM     20  C   LIG    1        2.433   4.707  -9.288  0.00  0.00    +0.100 C 
ATOM     21  C   LIG    1        1.686   5.281  -8.112  0.00  0.00    -0.100 A 
ATOM     22  C   LIG    1        1.818   6.621  -7.798  0.00  0.00    +0.040 A 
ATOM     23  C   LIG    1        1.133   7.149  -6.720  0.00  0.00    -0.010 A 
ATOM     24  C   LIG    1        0.310   6.337  -5.958  0.00  0.00    +0.110 A 
ATOM     25  C   LIG    1        0.183   4.994  -6.271  0.00  0.00    -0.100 A 
ATOM     26  F   LIG    1       -0.364   6.854  -4.908  0.00  0.00    -0.140 F 
ATOM     27  C   LIG    1        0.869   4.468  -7.349  0.00  0.00    +0.050 A 
ENDBRANCH  19  25
ENDBRANCH  15  19
ENDBRANCH   1  16
TORSDOF 6
