REMARK  Name = ZINCpk000000o3C0.0
REMARK                            x       y       z     vdW  Elec       q    Type
REMARK                         _______ _______ _______ _____ _____    ______ ____
ROOT
ATOM      1  C   LIG    1        2.757   2.836   2.215  0.00  0.00    +0.050 C 
ATOM      2  C   LIG    1        2.841   2.902   0.689  0.00  0.00    +0.060 C 
ATOM      3  C   LIG    1        2.575   1.563  -0.014  0.00  0.00    +0.300 C 
ATOM      4  N   LIG    1        1.143   1.898   0.001  0.00  0.00    -0.640 N 
ATOM      5  C   LIG    1       -0.014   1.209   0.009  0.00  0.00    +0.560 C 
ATOM      6  O   LIG    1        0.002  -0.004   0.002  0.00  0.00    -0.510 OA
ATOM      7  C   LIG    1        1.531   3.317  -0.001  0.00  0.00    +0.290 C 
ENDROOT
BRANCH   5   8
ATOM      8  C   LIG    1       -1.330   1.944   0.019  0.00  0.00    +0.170 C 
ATOM      9  C   LIG    1       -1.488   2.730  -1.287  0.00  0.00    +0.000 C 
ATOM     10  C   LIG    1       -2.886   3.356  -1.322  0.00  0.00    +0.230 C 
ATOM     11  O   LIG    1       -3.861   2.327  -1.127  0.00  0.00    -0.380 OA
ATOM     12  C   LIG    1       -3.700   1.605   0.097  0.00  0.00    +0.370 C 
ATOM     13  O   LIG    1       -2.403   1.005   0.131  0.00  0.00    -0.360 OA
BRANCH  12  14
ATOM     14  C   LIG    1       -4.753   0.532   0.189  0.00  0.00    -0.090 A 
ATOM     15  C   LIG    1       -4.381  -0.796   0.280  0.00  0.00    +0.060 A 
ATOM     16  C   LIG    1       -5.347  -1.781   0.369  0.00  0.00    +0.000 A 
ATOM     17  C   LIG    1       -6.686  -1.438   0.357  0.00  0.00    +0.010 A 
ATOM     18  C   LIG    1       -7.059  -0.111   0.261  0.00  0.00    +0.000 A 
ATOM     19  C   LIG    1       -6.093   0.874   0.177  0.00  0.00    +0.040 A 
ENDBRANCH  12  14
ENDBRANCH   5   8
BRANCH   2  20
ATOM     20  N   LIG    1        4.031   3.612   0.203  0.00  0.00    -0.510 NA
ATOM     21  C   LIG    1        5.230   2.769   0.314  0.00  0.00    +0.150 C 
ATOM     22  C   LIG    1        6.433   3.524  -0.257  0.00  0.00    +0.220 C 
ATOM     23  O   LIG    1        6.580   4.768   0.433  0.00  0.00    -0.380 OA
ATOM     24  C   LIG    1        5.431   5.614   0.345  0.00  0.00    +0.220 C 
ATOM     25  C   LIG    1        4.218   4.881   0.922  0.00  0.00    +0.150 C 
ENDBRANCH   2  20
TORSDOF 3
