REMARK  Name = ZINCtV00000L6jC8.0
REMARK                            x       y       z     vdW  Elec       q    Type
REMARK                         _______ _______ _______ _____ _____    ______ ____
ROOT
ATOM      1  C   LIG    1       -1.256   3.448   0.131  0.00  0.00    +0.490 A 
ATOM      2  C   LIG    1       -2.491   4.144   0.248  0.00  0.00    -0.220 A 
ATOM      3  C   LIG    1       -3.804   3.650   0.274  0.00  0.00    +0.060 A 
ATOM      4  C   LIG    1       -4.763   4.570   0.395  0.00  0.00    -0.140 A 
ATOM      5  S   LIG    1       -4.070   6.180   0.490  0.00  0.00    +0.200 S 
ATOM      6  C   LIG    1       -2.437   5.540   0.358  0.00  0.00    +0.120 A 
ATOM      7  N   LIG    1       -1.250   6.152   0.348  0.00  0.00    -0.520 NA
ATOM      8  C   LIG    1       -0.129   5.461   0.237  0.00  0.00    +0.420 A 
ATOM      9  N   LIG    1       -0.127   4.136   0.136  0.00  0.00    -0.560 NA
ENDROOT
BRANCH   4  10
ATOM     10  C   LIG    1       -6.210   4.274   0.443  0.00  0.00    -0.020 A 
ATOM     11  C   LIG    1       -6.659   2.956   0.354  0.00  0.00    +0.030 A 
ATOM     12  C   LIG    1       -8.011   2.686   0.405  0.00  0.00    +0.020 A 
ATOM     13  C   LIG    1       -8.922   3.720   0.533  0.00  0.00    +0.020 A 
ATOM     14  C   LIG    1       -8.483   5.029   0.617  0.00  0.00    +0.020 A 
ATOM     15  C   LIG    1       -7.134   5.312   0.573  0.00  0.00    +0.010 A 
ENDBRANCH   4  10
BRANCH   8  16
ATOM     16  C   LIG    1        1.165   6.185   0.230  0.00  0.00    -0.050 A 
ATOM     17  C   LIG    1        2.362   5.478   0.119  0.00  0.00    +0.070 A 
ATOM     18  C   LIG    1        3.562   6.158   0.108  0.00  0.00    +0.000 A 
ATOM     19  C   LIG    1        3.581   7.537   0.218  0.00  0.00    +0.040 A 
ATOM     20  C   LIG    1        2.397   8.242   0.334  0.00  0.00    +0.000 A 
ATOM     21  C   LIG    1        1.190   7.574   0.340  0.00  0.00    +0.070 A 
ENDBRANCH   8  16
BRANCH   1  22
ATOM     22  N   LIG    1       -1.237   2.069   0.019  0.00  0.00    -0.640 N 
ATOM     23  H   LIG    1       -2.061   1.564   0.103  0.00  0.00    +0.420 HD
BRANCH  22  28
ATOM     24  F   LIG    1        3.519  -0.566  -0.922  0.00  0.00    -0.140 F 
ATOM     25  C   LIG    1        2.355   0.080  -0.690  0.00  0.00    +0.090 A 
ATOM     26  C   LIG    1        1.402  -0.488   0.138  0.00  0.00    +0.010 A 
ATOM     27  C   LIG    1        0.212   0.170   0.376  0.00  0.00    +0.030 A 
ATOM     28  C   LIG    1       -0.029   1.403  -0.216  0.00  0.00    +0.140 A 
ATOM     29  C   LIG    1        0.928   1.971  -1.046  0.00  0.00    +0.060 A 
ATOM     30  C   LIG    1        2.117   1.309  -1.282  0.00  0.00    +0.010 A 
ENDBRANCH  22  28
ENDBRANCH   1  22
TORSDOF 4
