REMARK  Name = ZINCpk00000FbaSB.1
REMARK                            x       y       z     vdW  Elec       q    Type
REMARK                         _______ _______ _______ _____ _____    ______ ____
ROOT
ATOM      1  C   LIG    1        0.007   1.024   0.034  0.00  0.00    +0.290 C 
ATOM      2  C   LIG    1        1.444   1.554   0.027  0.00  0.00    +0.190 C 
ATOM      3  N   LIG    1        2.084   1.202  -1.249  0.00  0.00    -0.510 NA
ATOM      4  C   LIG    1        1.334   1.764  -2.381  0.00  0.00    +0.150 C 
ATOM      5  C   LIG    1       -0.102   1.232  -2.350  0.00  0.00    +0.250 C 
ATOM      6  O   LIG    1       -0.698   1.557  -1.091  0.00  0.00    -0.370 OA
ENDROOT
BRANCH   1  10
ATOM      7  C   LIG    1       -2.006   0.805   4.613  0.00  0.00    +0.200 C 
ATOM      8  C   LIG    1       -1.546   1.342   3.283  0.00  0.00    +0.290 A 
ATOM      9  N   LIG    1       -0.942   0.658   2.345  0.00  0.00    -0.530 NA
ATOM     10  C   LIG    1       -0.680   1.449   1.306  0.00  0.00    +0.230 A 
ATOM     11  N   LIG    1       -1.110   2.654   1.571  0.00  0.00    -0.290 NA
ATOM     12  N   LIG    1       -1.683   2.608   2.852  0.00  0.00    -0.480 N 
ATOM     13  H   LIG    1       -2.094   3.344   3.332  0.00  0.00    +0.440 HD
ENDBRANCH   1  10
BRANCH   3  14
ATOM     14  C   LIG    1        3.485   1.644  -1.274  0.00  0.00    +0.180 C 
ATOM     15  C   LIG    1        3.565   3.180  -1.428  0.00  0.00    +0.030 C 
ATOM     16  C   LIG    1        3.705   3.333  -2.962  0.00  0.00    +0.260 C 
ATOM     17  N   LIG    1        4.302   2.075  -3.429  0.00  0.00    -0.580 N 
ATOM     18  C   LIG    1        4.187   1.108  -2.502  0.00  0.00    +0.540 C 
ATOM     19  O   LIG    1        4.588  -0.029  -2.633  0.00  0.00    -0.500 OA
BRANCH  17  20
ATOM     20  C   LIG    1        4.911   1.905  -4.678  0.00  0.00    +0.110 A 
ATOM     21  C   LIG    1        4.159   1.490  -5.768  0.00  0.00    +0.050 A 
ATOM     22  C   LIG    1        4.762   1.329  -7.001  0.00  0.00    +0.020 A 
ATOM     23  C   LIG    1        6.116   1.569  -7.147  0.00  0.00    +0.060 A 
ATOM     24  C   LIG    1        6.871   1.977  -6.063  0.00  0.00    -0.010 A 
ATOM     25  C   LIG    1        6.273   2.146  -4.828  0.00  0.00    +0.110 A 
ATOM     26  F   LIG    1        7.010   2.546  -3.768  0.00  0.00    -0.130 F 
ENDBRANCH  17  20
ENDBRANCH   3  14
TORSDOF 3
