REMARK  Name = ZINCpk00000FbaSB.0
REMARK                            x       y       z     vdW  Elec       q    Type
REMARK                         _______ _______ _______ _____ _____    ______ ____
ROOT
ATOM      1  C   LIG    1        1.641  -1.887  -0.068  0.00  0.00    +0.290 C 
ATOM      2  C   LIG    1        1.013  -2.628   1.116  0.00  0.00    +0.200 C 
ATOM      3  N   LIG    1        1.569  -3.987   1.187  0.00  0.00    -0.510 NA
ATOM      4  C   LIG    1        3.030  -3.946   1.337  0.00  0.00    +0.150 C 
ATOM      5  C   LIG    1        3.638  -3.192   0.151  0.00  0.00    +0.250 C 
ATOM      6  O   LIG    1        3.064  -1.884   0.079  0.00  0.00    -0.390 OA
ENDROOT
BRANCH   1  11
ATOM      7  C   LIG    1        1.381   3.157  -0.154  0.00  0.00    +0.200 C 
ATOM      8  C   LIG    1        1.024   1.693  -0.136  0.00  0.00    +0.180 A 
ATOM      9  N   LIG    1       -0.181   1.191  -0.148  0.00  0.00    -0.290 NA
ATOM     10  N   LIG    1       -0.115  -0.093  -0.127  0.00  0.00    -0.280 NA
ATOM     11  C   LIG    1        1.135  -0.468  -0.099  0.00  0.00    +0.180 A 
ATOM     12  N   LIG    1        1.893   0.655  -0.104  0.00  0.00    -0.560 N 
ATOM     13  H   LIG    1        2.862   0.705  -0.088  0.00  0.00    +0.430 HD
ENDBRANCH   1  11
BRANCH   3  14
ATOM     14  C   LIG    1        0.949  -4.753   2.277  0.00  0.00    +0.190 C 
ATOM     15  C   LIG    1        1.465  -4.256   3.648  0.00  0.00    +0.030 C 
ATOM     16  C   LIG    1        2.639  -5.225   3.912  0.00  0.00    +0.260 C 
ATOM     17  N   LIG    1        2.325  -6.439   3.149  0.00  0.00    -0.580 N 
ATOM     18  C   LIG    1        1.383  -6.201   2.220  0.00  0.00    +0.540 C 
ATOM     19  O   LIG    1        0.944  -7.028   1.449  0.00  0.00    -0.490 OA
BRANCH  17  20
ATOM     20  C   LIG    1        2.929  -7.684   3.361  0.00  0.00    +0.110 A 
ATOM     21  C   LIG    1        4.081  -8.026   2.667  0.00  0.00    +0.050 A 
ATOM     22  C   LIG    1        4.678  -9.253   2.883  0.00  0.00    +0.020 A 
ATOM     23  C   LIG    1        4.123 -10.146   3.781  0.00  0.00    +0.060 A 
ATOM     24  C   LIG    1        2.972  -9.813   4.470  0.00  0.00    -0.010 A 
ATOM     25  C   LIG    1        2.372  -8.584   4.264  0.00  0.00    +0.110 A 
ATOM     26  F   LIG    1        1.247  -8.259   4.937  0.00  0.00    -0.130 F 
ENDBRANCH  17  20
ENDBRANCH   3  14
TORSDOF 3
