REMARK  Name = ZINCvU00000007Zb.0
REMARK                            x       y       z     vdW  Elec       q    Type
REMARK                         _______ _______ _______ _____ _____    ______ ____
ROOT
ATOM      1  C   LIG    1       -4.599  -3.451  -0.424  0.00  0.00    +0.240 C 
ENDROOT
BRANCH   1   2
ATOM      2  N   LIG    1       -5.368  -3.320   0.816  0.00  0.00    -0.720 N 
ATOM      3  H   LIG    1       -4.915  -3.108   1.647  0.00  0.00    +0.400 HD
ATOM      4  C   LIG    1       -6.704  -3.494   0.802  0.00  0.00    +0.560 C 
ATOM      5  O   LIG    1       -7.272  -3.760  -0.239  0.00  0.00    -0.530 OA
BRANCH   4   6
ATOM      6  C   LIG    1       -7.480  -3.362   2.054  0.00  0.00    -0.140 A 
ATOM      7  C   LIG    1       -6.830  -3.063   3.253  0.00  0.00    +0.040 A 
ATOM      8  C   LIG    1       -7.561  -2.938   4.416  0.00  0.00    +0.000 A 
ATOM      9  C   LIG    1       -8.933  -3.117   4.399  0.00  0.00    -0.040 A 
ATOM     10  C   LIG    1       -9.582  -3.418   3.214  0.00  0.00    +0.010 A 
ATOM     11  C   LIG    1       -8.864  -3.542   2.043  0.00  0.00    +0.080 A 
BRANCH   9  12
ATOM     12  C   LIG    1       -9.723  -2.984   5.675  0.00  0.00    -0.040 C 
ATOM     13  C   LIG    1      -10.755  -1.865   5.521  0.00  0.00    +0.040 C 
ATOM     14  C   LIG    1       -8.776  -2.650   6.829  0.00  0.00    +0.030 C 
ATOM     15  C   LIG    1      -10.441  -4.303   5.969  0.00  0.00    +0.040 C 
ENDBRANCH   9  12
ENDBRANCH   4   6
ENDBRANCH   1   2
BRANCH   1  17
ATOM     16  C   LIG    1       -3.535  -5.482   0.568  0.00  0.00    +0.010 C 
ATOM     17  C   LIG    1       -4.257  -4.923  -0.660  0.00  0.00    -0.030 C 
ATOM     18  C   LIG    1       -5.546  -5.714  -0.897  0.00  0.00    +0.030 C 
ENDBRANCH   1  17
BRANCH   1  19
ATOM     19  C   LIG    1       -3.307  -2.639  -0.311  0.00  0.00    +0.060 C 
BRANCH  19  20
ATOM     20  C   LIG    1       -3.647  -1.152  -0.201  0.00  0.00    +0.060 C 
BRANCH  20  21
ATOM     21  C   LIG    1       -2.374  -0.352  -0.089  0.00  0.00    +0.510 C 
ATOM     22  N   LIG    1       -2.429   0.990   0.020  0.00  0.00    -0.670 N 
ATOM     23  H   LIG    1       -3.287   1.435   0.103  0.00  0.00    +0.410 HD
ATOM     24  O   LIG    1       -1.301  -0.917  -0.098  0.00  0.00    -0.520 OA
BRANCH  22  25
ATOM     25  C   LIG    1       -1.247   1.742   0.011  0.00  0.00    +0.100 A 
ATOM     26  C   LIG    1       -0.201   1.328  -0.756  0.00  0.00    +0.100 A 
ATOM     27  C   LIG    1        0.995   2.078  -0.764  0.00  0.00    -0.190 A 
ATOM     28  C   LIG    1        2.217   1.955  -1.399  0.00  0.00    +0.280 A 
ATOM     29  N   LIG    1        2.985   2.986  -1.018  0.00  0.00    -0.420 N 
ATOM     30  H   LIG    1        3.895   3.142  -1.315  0.00  0.00    +0.450 HD
ATOM     31  N   LIG    1        2.279   3.803  -0.127  0.00  0.00    -0.300 NA
ATOM     32  C   LIG    1        1.073   3.296   0.057  0.00  0.00    +0.090 A 
ATOM     33  C   LIG    1       -0.052   3.670   0.824  0.00  0.00    +0.050 A 
ATOM     34  C   LIG    1       -1.171   2.906   0.789  0.00  0.00    +0.040 A 
ENDBRANCH  22  25
ENDBRANCH  20  21
ENDBRANCH  19  20
ENDBRANCH   1  19
TORSDOF 8
