REMARK  Name = ZINCpe00000MJIa6.0
REMARK                            x       y       z     vdW  Elec       q    Type
REMARK                         _______ _______ _______ _____ _____    ______ ____
ROOT
ATOM      1  C   LIG    1        0.982  -0.749   0.644  0.00  0.00    +0.350 C 
ATOM      2  C   LIG    1        2.080  -0.933  -0.408  0.00  0.00    -0.330 C 
ATOM      3  S   LIG    1        2.526   0.693  -1.085  0.00  0.00    +2.420 S 
ATOM      4  C   LIG    1        0.912   1.298  -1.659  0.00  0.00    -0.340 C 
ATOM      5  C   LIG    1       -0.075   1.268  -0.487  0.00  0.00    +0.320 C 
ATOM      6  O   LIG    1        3.368   0.500  -2.213  0.00  0.00    -0.930 OA
ATOM      7  O   LIG    1        2.970   1.523  -0.020  0.00  0.00    -0.930 OA
ATOM      8  N   LIG    1       -0.177  -0.097   0.032  0.00  0.00    -0.630 N 
ATOM      9  C   LIG    1       -1.348  -0.758  -0.054  0.00  0.00    +0.530 C 
ATOM     10  O   LIG    1       -1.414  -1.920   0.288  0.00  0.00    -0.470 OA
ENDROOT
BRANCH   9  11
ATOM     11  C   LIG    1       -2.574  -0.055  -0.576  0.00  0.00    +0.010 C 
ATOM     12  C   LIG    1       -3.326   0.667   0.568  0.00  0.00    +0.270 C 
ATOM     13  O   LIG    1       -4.705   0.491   0.203  0.00  0.00    -0.300 OA
ATOM     14  C   LIG    1       -4.835  -0.648  -0.530  0.00  0.00    +0.110 A 
ATOM     15  C   LIG    1       -5.968  -1.408  -0.808  0.00  0.00    -0.010 A 
ATOM     16  C   LIG    1       -5.872  -2.539  -1.592  0.00  0.00    +0.050 A 
ATOM     17  C   LIG    1       -4.650  -2.929  -2.109  0.00  0.00    -0.020 A 
ATOM     18  C   LIG    1       -3.518  -2.181  -1.835  0.00  0.00    +0.070 A 
ATOM     19  C   LIG    1       -3.612  -1.054  -1.050  0.00  0.00    -0.150 A 
ENDBRANCH   9  11
BRANCH   1  23
ATOM     20  C   LIG    1       -0.397  -4.428   3.757  0.00  0.00    +0.350 C 
ATOM     21  N   LIG    1       -0.027  -3.693   2.544  0.00  0.00    -0.380 N 
ATOM     22  C   LIG    1        0.302  -2.386   2.477  0.00  0.00    +0.230 A 
ATOM     23  C   LIG    1        0.573  -2.096   1.183  0.00  0.00    -0.210 A 
ATOM     24  C   LIG    1        0.412  -3.267   0.436  0.00  0.00    +0.280 A 
ATOM     25  N   LIG    1        0.053  -4.226   1.251  0.00  0.00    -0.290 NA
ENDBRANCH   1  23
TORSDOF 2
