REMARK  Name = ZINCrg00000fSiT2.0
REMARK                            x       y       z     vdW  Elec       q    Type
REMARK                         _______ _______ _______ _____ _____    ______ ____
ROOT
ATOM      1  O   LIG    1       -2.981   6.100  -1.600  0.00  0.00    -0.320 OA
ENDROOT
BRANCH   1   2
ATOM      2  C   LIG    1       -3.279   6.410  -2.986  0.00  0.00    +0.190 C 
ATOM      3  C   LIG    1       -2.349   7.523  -3.472  0.00  0.00    +0.070 C 
BRANCH   2   6
ATOM      4  N   LIG    1       -5.243   7.111  -4.316  0.00  0.00    -0.670 N 
ATOM      5  H   LIG    1       -4.687   7.060  -5.109  0.00  0.00    +0.410 HD
ATOM      6  C   LIG    1       -4.711   6.865  -3.103  0.00  0.00    +0.520 C 
ATOM      7  O   LIG    1       -5.384   7.010  -2.105  0.00  0.00    -0.490 OA
BRANCH   4  12
ATOM      8  C   LIG    1      -10.737   8.445  -4.787  0.00  0.00    +0.090 C 
ATOM      9  C   LIG    1       -9.278   8.091  -4.662  0.00  0.00    -0.100 A 
ATOM     10  C   LIG    1       -8.555   8.522  -3.565  0.00  0.00    +0.030 A 
ATOM     11  C   LIG    1       -7.217   8.199  -3.448  0.00  0.00    +0.030 A 
ATOM     12  C   LIG    1       -6.598   7.439  -4.432  0.00  0.00    +0.130 A 
ATOM     13  C   LIG    1       -7.326   7.012  -5.535  0.00  0.00    -0.010 A 
ATOM     14  C   LIG    1       -8.665   7.335  -5.644  0.00  0.00    +0.030 A 
ENDBRANCH   4  12
ENDBRANCH   2   6
ENDBRANCH   1   2
BRANCH   1  15
ATOM     15  C   LIG    1       -2.059   5.151  -1.371  0.00  0.00    +0.450 C 
ATOM     16  O   LIG    1       -1.520   4.597  -2.300  0.00  0.00    -0.490 OA
BRANCH  15  17
ATOM     17  C   LIG    1       -1.698   4.777   0.043  0.00  0.00    +0.410 C 
BRANCH  17  18
ATOM     18  N   LIG    1       -0.677   3.726   0.024  0.00  0.00    -0.540 N 
ATOM     19  C   LIG    1        0.638   4.061   0.016  0.00  0.00    +0.630 A 
ATOM     20  N   LIG    1        1.594   3.179  -0.001  0.00  0.00    -0.520 NA
ATOM     21  C   LIG    1        1.343   1.861  -0.012  0.00  0.00    +0.330 A 
ATOM     22  C   LIG    1        0.011   1.418  -0.005  0.00  0.00    -0.340 A 
ATOM     23  C   LIG    1        0.039   0.011  -0.019  0.00  0.00    +0.330 A 
ATOM     24  N   LIG    1        1.285  -0.375  -0.033  0.00  0.00    -0.270 NA
ATOM     25  N   LIG    1        2.122   0.748  -0.029  0.00  0.00    -0.350 N 
ATOM     26  C   LIG    1        3.587   0.726  -0.040  0.00  0.00    +0.380 C 
ATOM     27  C   LIG    1       -1.050   2.424   0.018  0.00  0.00    +0.580 A 
ATOM     28  O   LIG    1       -2.225   2.103   0.030  0.00  0.00    -0.510 OA
ENDBRANCH  17  18
ENDBRANCH  15  17
ENDBRANCH   1  15
TORSDOF 6
