REMARK  Name = ZINCqH0000004Sic.0
REMARK                            x       y       z     vdW  Elec       q    Type
REMARK                         _______ _______ _______ _____ _____    ______ ____
ROOT
ATOM      1  S   LIG    1       -4.236  -3.061  -3.135  0.00  0.00    +0.080 S 
ENDROOT
BRANCH   1   3
ATOM      2  N   LIG    1       -5.494  -4.326  -5.290  0.00  0.00    -0.450 N 
ATOM      3  C   LIG    1       -4.618  -3.388  -4.824  0.00  0.00    +0.150 A 
ATOM      4  N   LIG    1       -4.117  -2.769  -5.870  0.00  0.00    -0.290 NA
ATOM      5  N   LIG    1       -4.611  -3.260  -6.951  0.00  0.00    -0.270 NA
ATOM      6  C   LIG    1       -5.463  -4.215  -6.661  0.00  0.00    +0.230 A 
BRANCH   6   7
ATOM      7  C   LIG    1       -6.243  -5.020  -7.625  0.00  0.00    -0.020 A 
ATOM      8  C   LIG    1       -5.849  -5.086  -8.962  0.00  0.00    +0.070 A 
ATOM      9  C   LIG    1       -6.578  -5.843  -9.856  0.00  0.00    +0.010 A 
ATOM     10  C   LIG    1       -7.703  -6.527  -9.432  0.00  0.00    +0.030 A 
ATOM     11  C   LIG    1       -8.102  -6.461  -8.108  0.00  0.00    +0.010 A 
ATOM     12  C   LIG    1       -7.379  -5.712  -7.203  0.00  0.00    +0.010 A 
ENDBRANCH   6   7
BRANCH   2  14
ATOM     13  C   LIG    1       -7.609  -4.580  -4.088  0.00  0.00    +0.050 C 
ATOM     14  C   LIG    1       -6.298  -5.257  -4.495  0.00  0.00    +0.300 C 
ENDBRANCH   2  14
ENDBRANCH   1   3
BRANCH   1  15
ATOM     15  C   LIG    1       -3.032  -1.725  -3.338  0.00  0.00    +0.020 C 
ATOM     16  C   LIG    1       -3.723  -0.505  -3.952  0.00  0.00    +0.080 C 
BRANCH  15  17
ATOM     17  C   LIG    1       -2.461  -1.355  -1.994  0.00  0.00    +0.540 C 
ATOM     18  N   LIG    1       -1.288  -0.695  -1.918  0.00  0.00    -0.720 N 
ATOM     19  H   LIG    1       -0.812  -0.458  -2.729  0.00  0.00    +0.410 HD
ATOM     20  O   LIG    1       -3.056  -1.651  -0.979  0.00  0.00    -0.520 OA
BRANCH  18  21
ATOM     21  C   LIG    1       -0.732  -0.336  -0.611  0.00  0.00    +0.320 C 
BRANCH  21  22
ATOM     22  C   LIG    1        0.575   0.390  -0.803  0.00  0.00    -0.110 A 
ATOM     23  C   LIG    1        0.589   1.766  -0.929  0.00  0.00    +0.020 A 
ATOM     24  C   LIG    1        1.788   2.431  -1.105  0.00  0.00    +0.010 A 
ATOM     25  C   LIG    1        2.972   1.720  -1.156  0.00  0.00    +0.010 A 
ATOM     26  C   LIG    1        2.958   0.344  -1.028  0.00  0.00    +0.010 A 
ATOM     27  C   LIG    1        1.759  -0.322  -0.852  0.00  0.00    +0.020 A 
ENDBRANCH  21  22
ENDBRANCH  18  21
ENDBRANCH  15  17
ENDBRANCH   1  15
TORSDOF 7
