REMARK  Name = ZINCrD00000jARnz.0
REMARK                            x       y       z     vdW  Elec       q    Type
REMARK                         _______ _______ _______ _____ _____    ______ ____
ROOT
ATOM      1  C   LIG    1       -0.558   1.712   2.675  0.00  0.00    +0.260 C 
ENDROOT
BRANCH   1   3
ATOM      2  C   LIG    1        0.514  -0.236   3.670  0.00  0.00    +0.530 C 
ATOM      3  N   LIG    1       -0.401   0.263   2.816  0.00  0.00    -0.740 N 
ATOM      4  H   LIG    1       -0.955  -0.338   2.293  0.00  0.00    +0.410 HD
ATOM      5  O   LIG    1        1.207   0.515   4.323  0.00  0.00    -0.520 OA
BRANCH   2   6
ATOM      6  C   LIG    1        0.675  -1.728   3.815  0.00  0.00    +0.050 C 
BRANCH   6   7
ATOM      7  C   LIG    1        1.771  -2.025   4.841  0.00  0.00    +0.130 C 
BRANCH   7   8
ATOM      8  C   LIG    1        1.935  -3.539   4.988  0.00  0.00    +0.030 C 
ATOM      9  N   LIG    1        1.503  -4.401   3.885  0.00  0.00    -0.120 NA
ATOM     10  N   LIG    1        0.747  -4.388   4.867  0.00  0.00    -0.120 NA
BRANCH   8  11
ATOM     11  C   LIG    1        3.084  -4.011   5.880  0.00  0.00    +0.120 C 
BRANCH  11  12
ATOM     12  C   LIG    1        3.106  -5.540   5.918  0.00  0.00    +0.160 C 
BRANCH  12  14
ATOM     13  C   LIG    1        5.094  -6.356   7.462  0.00  0.00    +0.030 C 
ATOM     14  C   LIG    1        4.212  -5.994   6.777  0.00  0.00    -0.190 C 
ENDBRANCH  12  14
ENDBRANCH  11  12
ENDBRANCH   8  11
ENDBRANCH   7   8
ENDBRANCH   6   7
ENDBRANCH   2   6
ENDBRANCH   1   3
BRANCH   1  15
ATOM     15  C   LIG    1       -1.504   2.231   3.759  0.00  0.00    +0.020 C 
ATOM     16  C   LIG    1       -0.866   2.024   5.135  0.00  0.00    +0.020 C 
ENDBRANCH   1  15
BRANCH   1  17
ATOM     17  C   LIG    1       -1.139   2.031   1.296  0.00  0.00    -0.330 C 
BRANCH  17  18
ATOM     18  S   LIG    1       -0.017   1.417   0.010  0.00  0.00    +2.500 S 
ATOM     19  O   LIG    1        1.190   2.166   0.002  0.00  0.00    -0.930 OA
ATOM     20  O   LIG    1        0.002  -0.004   0.002  0.00  0.00    -0.930 OA
BRANCH  18  21
ATOM     21  C   LIG    1       -0.806   1.849  -1.505  0.00  0.00    -0.670 A 
ATOM     22  C   LIG    1       -1.686   0.966  -2.103  0.00  0.00    +0.110 A 
ATOM     23  C   LIG    1       -2.309   1.307  -3.289  0.00  0.00    -0.010 A 
ATOM     24  C   LIG    1       -2.043   2.527  -3.883  0.00  0.00    -0.030 A 
ATOM     25  C   LIG    1       -1.159   3.408  -3.288  0.00  0.00    -0.110 A 
ATOM     26  C   LIG    1       -0.869   4.737  -3.936  0.00  0.00    +0.100 C 
ATOM     27  C   LIG    1       -2.717   2.896  -5.179  0.00  0.00    +0.100 C 
ATOM     28  C   LIG    1       -0.541   3.069  -2.099  0.00  0.00    +0.120 A 
ENDBRANCH  18  21
ENDBRANCH  17  18
ENDBRANCH   1  17
TORSDOF 11
