REMARK  Name = ZINCbw0000000Hjq.0
REMARK                            x       y       z     vdW  Elec       q    Type
REMARK                         _______ _______ _______ _____ _____    ______ ____
ROOT
ATOM      1  C   LIG    1        1.304  -2.151  -0.021  0.00  0.00    +0.160 C 
ATOM      2  C   LIG    1        1.229  -0.646  -0.013  0.00  0.00    +0.190 A 
ATOM      3  C   LIG    1        0.002  -0.004   0.002  0.00  0.00    -0.040 A 
ATOM      4  C   LIG    1       -0.017   1.383   0.010  0.00  0.00    +0.180 A 
ATOM      5  N   LIG    1        1.131   2.043   0.002  0.00  0.00    -0.500 NA
ATOM      6  C   LIG    1        2.280   1.397  -0.012  0.00  0.00    +0.340 A 
ATOM      7 BR   LIG    1       -1.660   2.320   0.023  0.00  0.00    +0.020 Br
ATOM      8  N   LIG    1        2.336   0.080  -0.020  0.00  0.00    -0.510 NA
ENDROOT
BRANCH   6   9
ATOM      9  C   LIG    1        3.565   2.185  -0.020  0.00  0.00    +0.070 C 
ATOM     10  C   LIG    1        3.634   3.060   1.233  0.00  0.00    +0.050 C 
ATOM     11  C   LIG    1        3.610   3.073  -1.265  0.00  0.00    +0.050 C 
ENDBRANCH   6   9
TORSDOF 1
