REMARK  Name = ZINCpe00000bcW53.0
REMARK                            x       y       z     vdW  Elec       q    Type
REMARK                         _______ _______ _______ _____ _____    ______ ____
ROOT
ATOM      1  C   LIG    1       -5.948   2.098   0.655  0.00  0.00    -0.010 C 
ATOM      2  C   LIG    1       -5.356   3.410   0.075  0.00  0.00    +0.040 C 
ATOM      3  C   LIG    1       -3.841   3.118   0.044  0.00  0.00    +0.270 C 
ATOM      4  N   LIG    1       -3.678   1.657   0.029  0.00  0.00    -0.600 N 
ATOM      5  C   LIG    1       -2.502   0.999   0.020  0.00  0.00    +0.590 C 
ATOM      6  O   LIG    1       -2.486  -0.216   0.013  0.00  0.00    -0.520 OA
ATOM      7  C   LIG    1       -5.013   1.032   0.032  0.00  0.00    +0.280 C 
ENDROOT
BRANCH   5   8
ATOM      8  C   LIG    1       -1.228   1.756   0.017  0.00  0.00    +0.070 A 
ATOM      9  C   LIG    1       -0.013   1.076   0.008  0.00  0.00    +0.290 A 
ATOM     10  N   LIG    1        1.123   1.752   0.001  0.00  0.00    -0.410 NA
ATOM     11  C   LIG    1        1.109   3.072   0.007  0.00  0.00    +0.280 A 
ATOM     12  C   LIG    1       -0.105   3.758   0.022  0.00  0.00    +0.330 A 
ATOM     13  N   LIG    1       -1.244   3.086   0.029  0.00  0.00    -0.440 NA
BRANCH  12  14
ATOM     14  N   LIG    1       -0.118   5.156   0.029  0.00  0.00    -0.330 N 
ATOM     15  C   LIG    1       -1.223   5.946   0.043  0.00  0.00    +0.250 A 
ATOM     16  C   LIG    1       -0.806   7.233   0.046  0.00  0.00    -0.090 A 
ATOM     17  C   LIG    1        0.594   7.234   0.033  0.00  0.00    +0.280 A 
ATOM     18  N   LIG    1        1.006   5.992   0.029  0.00  0.00    -0.280 NA
ENDBRANCH  12  14
ENDBRANCH   5   8
BRANCH   1  19
ATOM     19  C   LIG    1       -7.393   1.897   0.194  0.00  0.00    +0.040 C 
BRANCH  19  20
ATOM     20  C   LIG    1       -7.930   0.581   0.757  0.00  0.00    +0.250 C 
BRANCH  20  22
ATOM     21  C   LIG    1       -9.995  -0.712   0.693  0.00  0.00    +0.540 C 
ATOM     22  N   LIG    1       -9.313   0.388   0.315  0.00  0.00    -0.730 N 
ATOM     23  H   LIG    1       -9.739   1.052  -0.249  0.00  0.00    +0.400 HD
ATOM     24  O   LIG    1       -9.461  -1.545   1.400  0.00  0.00    -0.540 OA
BRANCH  21  26
ATOM     25  C   LIG    1      -12.056  -1.990   0.621  0.00  0.00    +0.140 C 
ATOM     26  C   LIG    1      -11.384  -0.905   0.249  0.00  0.00    -0.090 C 
ENDBRANCH  21  26
ENDBRANCH  20  22
ENDBRANCH  19  20
ENDBRANCH   1  19
TORSDOF 6
