REMARK  Name = ZINCpk00000l5LBT.0
REMARK                            x       y       z     vdW  Elec       q    Type
REMARK                         _______ _______ _______ _____ _____    ______ ____
ROOT
ATOM      1  O   LIG    1        2.158   7.098   5.087  0.00  0.00    -0.510 OA
ATOM      2  C   LIG    1        2.064   7.709   4.041  0.00  0.00    +0.600 C 
ATOM      3  N   LIG    1        2.008   7.040   2.872  0.00  0.00    -0.700 N 
ATOM      4  H   LIG    1        1.933   7.528   2.037  0.00  0.00    +0.420 HD
ENDROOT
BRANCH   2   5
ATOM      5  C   LIG    1        2.012   9.188   4.050  0.00  0.00    +0.240 A 
ATOM      6  N   LIG    1        1.918   9.945   2.987  0.00  0.00    -0.450 NA
ATOM      7  C   LIG    1        1.891  11.239   3.350  0.00  0.00    +0.070 A 
ATOM      8  C   LIG    1        1.798  12.439   2.632  0.00  0.00    +0.050 A 
ATOM      9  C   LIG    1        1.802  13.632   3.298  0.00  0.00    +0.100 A 
ATOM     10  C   LIG    1        1.896  13.671   4.685  0.00  0.00    +0.030 A 
ATOM     11  C   LIG    1        1.987  12.505   5.413  0.00  0.00    +0.060 A 
ATOM     12  F   LIG    1        1.712  14.786   2.601  0.00  0.00    -0.130 F 
ATOM     13  C   LIG    1        1.986  11.280   4.756  0.00  0.00    +0.050 A 
ATOM     14  N   LIG    1        2.061   9.971   5.173  0.00  0.00    -0.560 N 
ATOM     15  H   LIG    1        2.135   9.661   6.090  0.00  0.00    +0.440 HD
ENDBRANCH   2   5
BRANCH   3  16
ATOM     16  C   LIG    1        2.059   5.576   2.863  0.00  0.00    +0.260 C 
ATOM     17  C   LIG    1        2.513   5.057   1.474  0.00  0.00    +0.060 C 
ATOM     18  C   LIG    1        1.938   3.619   1.445  0.00  0.00    -0.010 C 
ATOM     19  C   LIG    1        0.570   3.740   2.146  0.00  0.00    +0.000 C 
ATOM     20  C   LIG    1        0.647   4.985   3.047  0.00  0.00    +0.150 C 
BRANCH  20  21
ATOM     21  O   LIG    1        0.445   4.614   4.412  0.00  0.00    -0.550 OA
ATOM     22  H   LIG    1       -0.419   4.216   4.588  0.00  0.00    +0.380 HD
ENDBRANCH  20  21
BRANCH  18  23
ATOM     23  C   LIG    1        1.761   3.143   0.001  0.00  0.00    +0.310 C 
BRANCH  23  24
ATOM     24  N   LIG    1        1.288   1.756  -0.001  0.00  0.00    -0.460 N 
ATOM     25  C   LIG    1       -0.016   1.343   0.009  0.00  0.00    +0.110 A 
ATOM     26  C   LIG    1        0.002  -0.004   0.002  0.00  0.00    +0.140 A 
ATOM     27  N   LIG    1        1.283  -0.402  -0.012  0.00  0.00    -0.490 NA
ATOM     28  C   LIG    1        2.059   0.647  -0.014  0.00  0.00    +0.380 A 
ENDBRANCH  23  24
ENDBRANCH  18  23
ENDBRANCH   3  16
TORSDOF 5
