REMARK  Name = ZINCfA000000Jmgc.0
REMARK                            x       y       z     vdW  Elec       q    Type
REMARK                         _______ _______ _______ _____ _____    ______ ____
ROOT
ATOM      1  C   LIG    1       -0.758   1.613  -1.204  0.00  0.00    -0.040 C 
ATOM      2  C   LIG    1        0.248   0.918  -0.270  0.00  0.00    +0.060 C 
ATOM      3  C   LIG    1       -0.204   1.223   1.173  0.00  0.00    +0.020 C 
ATOM      4  C   LIG    1       -1.717   1.533   1.038  0.00  0.00    +0.020 C 
ATOM      5  C   LIG    1       -1.788   2.317  -0.296  0.00  0.00    +0.030 C 
ENDROOT
BRANCH   1  10
ATOM      6  C   LIG    1        1.962   5.500  -4.503  0.00  0.00    +0.090 C 
ATOM      7  C   LIG    1        1.252   4.487  -3.643  0.00  0.00    -0.060 A 
ATOM      8  C   LIG    1        0.233   4.888  -2.800  0.00  0.00    +0.010 A 
ATOM      9  C   LIG    1       -0.421   3.957  -2.014  0.00  0.00    +0.030 A 
ATOM     10  C   LIG    1       -0.049   2.627  -2.064  0.00  0.00    -0.130 A 
ATOM     11  C   LIG    1        0.970   2.225  -2.907  0.00  0.00    -0.080 A 
ATOM     12  C   LIG    1        1.372   0.774  -2.966  0.00  0.00    +0.100 C 
ATOM     13  C   LIG    1        1.621   3.155  -3.697  0.00  0.00    +0.020 A 
ENDBRANCH   1  10
BRANCH   1  14
ATOM     14  C   LIG    1       -1.459   0.577  -2.085  0.00  0.00    +0.270 C 
BRANCH  14  15
ATOM     15  N   LIG    1       -2.313   1.263  -3.063  0.00  0.00    -0.640 N 
ATOM     16  H   LIG    1       -1.740   1.822  -3.677  0.00  0.00    +0.430 HD
ATOM     17  H   LIG    1       -2.968   1.859  -2.578  0.00  0.00    +0.430 HD
ATOM     18  H   LIG    1       -2.820   0.579  -3.605  0.00  0.00    +0.440 HD
ENDBRANCH  14  15
ENDBRANCH   1  14
TORSDOF 3
