REMARK  Name = ZINCrH000004mYjO.1
REMARK                            x       y       z     vdW  Elec       q    Type
REMARK                         _______ _______ _______ _____ _____    ______ ____
ROOT
ATOM      1  C   LIG    1       -0.045   0.133  -0.029  0.00  0.00    +0.170 C 
ENDROOT
BRANCH   1   5
ATOM      2  C   LIG    1        0.950  -0.481  -4.140  0.00  0.00    +0.130 A 
ATOM      3  C   LIG    1        1.927  -0.605  -3.162  0.00  0.00    -0.020 A 
ATOM      4  C   LIG    1        1.603  -0.406  -1.834  0.00  0.00    +0.060 A 
ATOM      5  C   LIG    1        0.306  -0.083  -1.479  0.00  0.00    -0.130 A 
ATOM      6  C   LIG    1       -0.670   0.036  -2.450  0.00  0.00    +0.080 A 
ATOM      7  C   LIG    1       -0.350  -0.157  -3.780  0.00  0.00    -0.080 A 
BRANCH   2   9
ATOM      8  C   LIG    1        0.210  -0.532  -6.398  0.00  0.00    +0.250 C 
ATOM      9  O   LIG    1        1.266  -0.677  -5.447  0.00  0.00    -0.320 OA
ENDBRANCH   2   9
ENDBRANCH   1   5
BRANCH   1  10
ATOM     10  N   LIG    1       -1.279  -0.597   0.290  0.00  0.00    -0.510 NA
ATOM     11  C   LIG    1       -1.203  -2.003  -0.182  0.00  0.00    +0.180 C 
ATOM     12  C   LIG    1       -2.282  -2.720   0.667  0.00  0.00    +0.020 C 
ATOM     13  C   LIG    1       -2.156  -2.028   2.044  0.00  0.00    +0.010 C 
ATOM     14  C   LIG    1       -1.487  -0.672   1.753  0.00  0.00    +0.150 C 
ENDBRANCH   1  10
BRANCH   1  15
ATOM     15  C   LIG    1       -0.255   1.627   0.227  0.00  0.00    +0.300 C 
BRANCH  15  16
ATOM     16  N   LIG    1       -0.526   1.845   1.650  0.00  0.00    -0.730 N 
ATOM     17  H   LIG    1       -0.456   1.107   2.276  0.00  0.00    +0.400 HD
ATOM     18  C   LIG    1       -0.874   3.070   2.090  0.00  0.00    +0.510 C 
ATOM     19  O   LIG    1       -0.961   3.993   1.308  0.00  0.00    -0.510 OA
BRANCH  18  20
ATOM     20  C   LIG    1       -1.153   3.294   3.554  0.00  0.00    +0.240 C 
BRANCH  20  21
ATOM     21  O   LIG    1       -1.498   4.664   3.769  0.00  0.00    -0.280 OA
BRANCH  21  22
ATOM     22  C   LIG    1       -1.782   5.036   5.045  0.00  0.00    +0.140 A 
ATOM     23  C   LIG    1       -1.735   4.100   6.068  0.00  0.00    -0.070 A 
ATOM     24  C   LIG    1       -2.019   4.481   7.365  0.00  0.00    +0.090 A 
ATOM     25  C   LIG    1       -2.361   5.793   7.643  0.00  0.00    -0.130 A 
ATOM     26  C   LIG    1       -2.413   6.727   6.623  0.00  0.00    +0.090 A 
ATOM     27 BR   LIG    1       -2.756   6.310   9.418  0.00  0.00    -0.050 Br
ATOM     28  C   LIG    1       -2.125   6.351   5.326  0.00  0.00    +0.000 A 
ENDBRANCH  21  22
ENDBRANCH  20  21
ENDBRANCH  18  20
ENDBRANCH  15  16
ENDBRANCH   1  15
TORSDOF 8
