REMARK  Name = ZINCrH000004sRHV.0
REMARK                            x       y       z     vdW  Elec       q    Type
REMARK                         _______ _______ _______ _____ _____    ______ ____
ROOT
ATOM      1  C   LIG    1        0.641  -6.335   4.531  0.00  0.00    +0.140 A 
ATOM      2  C   LIG    1        0.758  -5.433   5.582  0.00  0.00    +0.010 A 
ATOM      3  C   LIG    1        0.805  -4.074   5.332  0.00  0.00    +0.040 A 
ATOM      4  C   LIG    1        0.742  -3.604   4.036  0.00  0.00    +0.030 A 
ATOM      5  C   LIG    1        0.620  -4.502   2.973  0.00  0.00    -0.110 A 
ATOM      6  C   LIG    1        0.573  -5.872   3.225  0.00  0.00    +0.090 A 
ENDROOT
BRANCH   1   8
ATOM      7  C   LIG    1        1.137  -8.578   3.914  0.00  0.00    +0.600 C 
ATOM      8  N   LIG    1        0.595  -7.709   4.789  0.00  0.00    -0.670 N 
ATOM      9  H   LIG    1        0.172  -8.036   5.599  0.00  0.00    +0.410 HD
ATOM     10  O   LIG    1        1.751  -8.166   2.948  0.00  0.00    -0.500 OA
BRANCH   7  14
ATOM     11  C   LIG    1       -0.640 -13.359   3.810  0.00  0.00    +0.190 C 
ATOM     12  C   LIG    1        0.189 -12.128   4.070  0.00  0.00    -0.010 A 
ATOM     13  C   LIG    1       -0.098 -10.891   3.635  0.00  0.00    -0.150 A 
ATOM     14  C   LIG    1        0.987 -10.028   4.127  0.00  0.00    -0.240 A 
ATOM     15  C   LIG    1        1.821 -10.850   4.826  0.00  0.00    +0.050 A 
ATOM     16  C   LIG    1        3.085 -10.430   5.531  0.00  0.00    +0.190 C 
ATOM     17  C   LIG    1       -1.287 -10.472   2.809  0.00  0.00    +0.120 C 
ATOM     18  O   LIG    1        1.328 -12.092   4.779  0.00  0.00    -0.170 OA
ENDBRANCH   7  14
ENDBRANCH   1   8
BRANCH   5  19
ATOM     19  C   LIG    1        0.547  -4.000   1.584  0.00  0.00    +0.560 C 
ATOM     20  N   LIG    1        0.594  -2.675   1.342  0.00  0.00    -0.720 N 
ATOM     21  H   LIG    1        0.674  -2.050   2.080  0.00  0.00    +0.400 HD
ATOM     22  O   LIG    1        0.446  -4.783   0.660  0.00  0.00    -0.530 OA
BRANCH  20  23
ATOM     23  C   LIG    1        0.522  -2.178  -0.034  0.00  0.00    +0.350 C 
BRANCH  23  24
ATOM     24  C   LIG    1        0.594  -0.673  -0.029  0.00  0.00    +0.100 A 
ATOM     25  C   LIG    1        1.812  -0.047  -0.214  0.00  0.00    -0.010 A 
ATOM     26  C   LIG    1        1.867   1.339  -0.208  0.00  0.00    +0.060 A 
ATOM     27  C   LIG    1        0.690   2.045  -0.015  0.00  0.00    -0.020 A 
ATOM     28  C   LIG    1       -0.492   1.350   0.163  0.00  0.00    +0.260 A 
ATOM     29  N   LIG    1       -0.507   0.031   0.151  0.00  0.00    -0.470 NA
ENDBRANCH  23  24
ENDBRANCH  20  23
ENDBRANCH   5  19
TORSDOF 5
