REMARK  Name = ZINCqH0000007sJv.0
REMARK                            x       y       z     vdW  Elec       q    Type
REMARK                         _______ _______ _______ _____ _____    ______ ____
ROOT
ATOM      1  N   LIG    1        0.616   3.622   1.146  0.00  0.00    -0.720 N 
ATOM      2  H   LIG    1        0.960   3.870   0.274  0.00  0.00    +0.400 HD
ATOM      3  C   LIG    1        1.395   3.748   2.239  0.00  0.00    +0.520 C 
ATOM      4  O   LIG    1        0.965   3.439   3.329  0.00  0.00    -0.500 OA
ENDROOT
BRANCH   1   5
ATOM      5  C   LIG    1       -0.751   3.111   1.277  0.00  0.00    +0.300 C 
BRANCH   5   9
ATOM      6  C   LIG    1       -3.123   4.543  -1.976  0.00  0.00    +0.130 A 
ATOM      7  C   LIG    1       -3.660   4.483  -0.699  0.00  0.00    -0.020 A 
ATOM      8  C   LIG    1       -2.891   4.020   0.351  0.00  0.00    +0.070 A 
ATOM      9  C   LIG    1       -1.587   3.616   0.130  0.00  0.00    -0.130 A 
ATOM     10  C   LIG    1       -1.048   3.680  -1.142  0.00  0.00    +0.050 A 
ATOM     11  C   LIG    1       -1.815   4.138  -2.196  0.00  0.00    -0.080 A 
BRANCH   6  13
ATOM     12  C   LIG    1       -3.260   5.032  -4.299  0.00  0.00    +0.250 C 
ATOM     13  O   LIG    1       -3.878   4.998  -3.011  0.00  0.00    -0.320 OA
ENDBRANCH   6  13
ENDBRANCH   5   9
BRANCH   5  14
ATOM     14  C   LIG    1       -0.728   1.582   1.256  0.00  0.00    -0.020 C 
ATOM     15  C   LIG    1        0.017   1.067   2.490  0.00  0.00    +0.030 C 
ATOM     16  C   LIG    1       -0.014   1.099  -0.008  0.00  0.00    +0.020 C 
ENDBRANCH   5  14
ENDBRANCH   1   5
BRANCH   3  17
ATOM     17  C   LIG    1        2.801   4.274   2.104  0.00  0.00    +0.240 C 
BRANCH  17  18
ATOM     18  O   LIG    1        3.420   4.314   3.392  0.00  0.00    -0.280 OA
BRANCH  18  19
ATOM     19  C   LIG    1        4.697   4.767   3.448  0.00  0.00    +0.160 A 
ATOM     20  C   LIG    1        5.345   5.159   2.281  0.00  0.00    -0.100 A 
ATOM     21  C   LIG    1        6.635   5.623   2.333  0.00  0.00    +0.110 A 
ATOM     22  C   LIG    1        7.303   5.689   3.561  0.00  0.00    -0.210 A 
ATOM     23  C   LIG    1        6.649   5.288   4.732  0.00  0.00    +0.120 A 
ATOM     24  C   LIG    1        5.357   4.832   4.670  0.00  0.00    -0.020 A 
BRANCH  22  25
ATOM     25  C   LIG    1        8.687   6.178   3.622  0.00  0.00    +0.400 C 
ATOM     26  O   LIG    1        9.231   6.330   4.695  0.00  0.00    -0.460 OA
ATOM     27  C   LIG    1        9.431   6.492   2.349  0.00  0.00    +0.070 C 
ENDBRANCH  22  25
ENDBRANCH  18  19
ENDBRANCH  17  18
ENDBRANCH   3  17
TORSDOF 8
