REMARK  Name = ZINCrH000004v1js.0
REMARK                            x       y       z     vdW  Elec       q    Type
REMARK                         _______ _______ _______ _____ _____    ______ ____
ROOT
ATOM      1  C   LIG    1        2.161   0.824   0.358  0.00  0.00    +0.010 C 
ATOM      2  C   LIG    1        1.440   2.176   0.150  0.00  0.00    +0.100 C 
ATOM      3  C   LIG    1       -0.029   1.815   0.137  0.00  0.00    +0.520 C 
ATOM      4  N   LIG    1       -0.178   0.492  -0.051  0.00  0.00    -0.550 N 
ATOM      5  O   LIG    1       -0.940   2.604   0.272  0.00  0.00    -0.500 OA
ATOM      6  C   LIG    1        1.121  -0.176  -0.194  0.00  0.00    +0.310 C 
ENDROOT
BRANCH   4   7
ATOM      7  C   LIG    1       -1.415  -0.164  -0.105  0.00  0.00    +0.170 A 
ATOM      8  C   LIG    1       -2.584   0.535   0.161  0.00  0.00    +0.010 A 
ATOM      9  C   LIG    1       -3.804  -0.112   0.110  0.00  0.00    +0.060 A 
ATOM     10  C   LIG    1       -3.864  -1.460  -0.207  0.00  0.00    +0.030 A 
ATOM     11  O   LIG    1       -5.075  -2.083  -0.245  0.00  0.00    -0.310 OA
ATOM     12  C   LIG    1       -5.131  -3.340  -0.928  0.00  0.00    +0.220 C 
ATOM     13  C   LIG    1       -3.938  -4.190  -0.470  0.00  0.00    +0.220 C 
ATOM     14  O   LIG    1       -2.735  -3.485  -0.796  0.00  0.00    -0.310 OA
ATOM     15  C   LIG    1       -2.695  -2.163  -0.476  0.00  0.00    +0.080 A 
ATOM     16  C   LIG    1       -1.472  -1.512  -0.429  0.00  0.00    -0.010 A 
ENDBRANCH   4   7
BRANCH   1  18
ATOM     17  O   LIG    1        3.538  -0.001  -1.372  0.00  0.00    -0.500 OA
ATOM     18  C   LIG    1        3.439   0.766  -0.438  0.00  0.00    +0.530 C 
ATOM     19  N   LIG    1        4.473   1.566  -0.111  0.00  0.00    -0.670 N 
ATOM     20  H   LIG    1        4.420   2.131   0.675  0.00  0.00    +0.420 HD
BRANCH  19  21
ATOM     21  C   LIG    1        5.625   1.581  -0.907  0.00  0.00    +0.170 A 
ATOM     22  C   LIG    1        6.073   0.411  -1.504  0.00  0.00    +0.050 A 
ATOM     23  C   LIG    1        7.208   0.429  -2.293  0.00  0.00    -0.010 A 
ATOM     24  C   LIG    1        7.903   1.611  -2.480  0.00  0.00    +0.040 A 
ATOM     25  C   LIG    1        7.461   2.778  -1.881  0.00  0.00    -0.010 A 
ATOM     26 CL   LIG    1        8.336   4.259  -2.118  0.00  0.00    -0.050 Cl
ATOM     27 CL   LIG    1        7.765  -1.032  -3.046  0.00  0.00    -0.050 Cl
ATOM     28  C   LIG    1        6.324   2.766  -1.095  0.00  0.00    +0.020 A 
ENDBRANCH  19  21
ENDBRANCH   1  18
TORSDOF 3
