REMARK  Name = ZINCpk00000xHYOv.0
REMARK                            x       y       z     vdW  Elec       q    Type
REMARK                         _______ _______ _______ _____ _____    ______ ____
ROOT
ATOM      1  N   LIG    1       -2.131   2.899   2.005  0.00  0.00    -0.500 NA
ATOM      2  C   LIG    1       -1.302   3.202   3.192  0.00  0.00    +0.160 C 
ATOM      3  C   LIG    1       -0.255   2.120   3.441  0.00  0.00    +0.220 C 
ATOM      4  O   LIG    1        0.488   1.812   2.246  0.00  0.00    -0.360 OA
ATOM      5  C   LIG    1       -0.383   1.449   1.198  0.00  0.00    +0.160 C 
ATOM      6  C   LIG    1        0.213   1.108  -0.160  0.00  0.00    +0.260 C 
ATOM      7  N   LIG    1       -0.764   1.595  -1.169  0.00  0.00    -0.470 N 
ATOM      8  C   LIG    1       -1.878   2.276  -0.450  0.00  0.00    +0.230 C 
ATOM      9  C   LIG    1       -1.239   2.709   0.871  0.00  0.00    +0.100 C 
ENDROOT
BRANCH   7  10
ATOM     10  C   LIG    1       -1.237   0.556  -1.940  0.00  0.00    +0.470 A 
ATOM     11  N   LIG    1       -1.456  -0.645  -1.417  0.00  0.00    -0.590 NA
ATOM     12  C   LIG    1       -1.910  -1.654  -2.143  0.00  0.00    +0.560 A 
ATOM     13  N   LIG    1       -2.186  -1.586  -3.418  0.00  0.00    -0.510 NA
ATOM     14  C   LIG    1       -2.019  -0.438  -4.103  0.00  0.00    +0.290 A 
ATOM     15  N   LIG    1       -2.195  -0.048  -5.346  0.00  0.00    -0.280 NA
ATOM     16  N   LIG    1       -1.838   1.301  -5.457  0.00  0.00    -0.410 N 
ATOM     17  H   LIG    1       -1.879   1.822  -6.275  0.00  0.00    +0.450 HD
ATOM     18  C   LIG    1       -1.431   1.766  -4.269  0.00  0.00    +0.350 A 
ATOM     19  C   LIG    1       -1.520   0.735  -3.361  0.00  0.00    -0.300 A 
ENDBRANCH   7  10
BRANCH   1  20
ATOM     20  C   LIG    1       -3.091   3.980   1.744  0.00  0.00    +0.230 C 
BRANCH  20  24
ATOM     21  C   LIG    1       -5.185   4.925   5.346  0.00  0.00    +0.000 A 
ATOM     22  C   LIG    1       -4.009   5.582   5.038  0.00  0.00    +0.000 A 
ATOM     23  C   LIG    1       -3.331   5.276   3.872  0.00  0.00    +0.010 A 
ATOM     24  C   LIG    1       -3.830   4.313   3.015  0.00  0.00    -0.090 A 
ATOM     25  C   LIG    1       -5.009   3.659   3.321  0.00  0.00    +0.020 A 
ATOM     26  C   LIG    1       -5.684   3.962   4.488  0.00  0.00    +0.000 A 
ENDBRANCH  20  24
ENDBRANCH   1  20
TORSDOF 3
