REMARK  Name = ZINCpe000000URVR.0
REMARK                            x       y       z     vdW  Elec       q    Type
REMARK                         _______ _______ _______ _____ _____    ______ ____
ROOT
ATOM      1  N   LIG    1       -0.011   0.966   0.007  0.00  0.00    -0.720 N 
ATOM      2  H   LIG    1        0.002  -0.004   0.002  0.00  0.00    +0.400 HD
ATOM      3  C   LIG    1       -1.187   1.624   0.017  0.00  0.00    +0.600 C 
ATOM      4  O   LIG    1       -1.204   2.840   0.023  0.00  0.00    -0.550 OA
ENDROOT
BRANCH   1   8
ATOM      5  N   LIG    1        3.990   1.948  -0.873  0.00  0.00    -0.520 NA
ATOM      6  C   LIG    1        3.686   1.615   0.524  0.00  0.00    +0.180 C 
ATOM      7  C   LIG    1        2.363   0.849   0.591  0.00  0.00    +0.040 C 
ATOM      8  C   LIG    1        1.248   1.716  -0.001  0.00  0.00    +0.240 C 
ATOM      9  C   LIG    1        1.611   2.090  -1.440  0.00  0.00    +0.030 C 
ATOM     10  C   LIG    1        2.957   2.818  -1.448  0.00  0.00    +0.180 C 
BRANCH   5  11
ATOM     11  C   LIG    1        5.320   2.561  -0.991  0.00  0.00    +0.220 C 
BRANCH  11  15
ATOM     12  C   LIG    1        7.254   3.298  -4.212  0.00  0.00    +0.290 C 
ATOM     13  N   LIG    1        6.885   3.198  -2.797  0.00  0.00    -0.740 N 
ATOM     14  H   LIG    1        7.495   3.517  -2.114  0.00  0.00    +0.400 HD
ATOM     15  C   LIG    1        5.699   2.664  -2.446  0.00  0.00    +0.510 C 
ATOM     16  O   LIG    1        4.936   2.265  -3.301  0.00  0.00    -0.520 OA
ENDBRANCH  11  15
ENDBRANCH   5  11
ENDBRANCH   1   8
BRANCH   3  17
ATOM     17  C   LIG    1       -2.454   0.869   0.018  0.00  0.00    -0.290 A 
ATOM     18  C   LIG    1       -3.726   1.405   0.033  0.00  0.00    +0.320 A 
ATOM     19  N   LIG    1       -4.595   0.377   0.026  0.00  0.00    -0.310 N 
ATOM     20  N   LIG    1       -3.867  -0.818   0.017  0.00  0.00    -0.290 NA
ATOM     21  C   LIG    1       -2.592  -0.537   0.012  0.00  0.00    +0.290 A 
BRANCH  19  22
ATOM     22  C   LIG    1       -5.992   0.485   0.034  0.00  0.00    +0.150 A 
ATOM     23  C   LIG    1       -6.593   1.737   0.050  0.00  0.00    -0.010 A 
ATOM     24  C   LIG    1       -7.970   1.840   0.051  0.00  0.00    +0.050 A 
ATOM     25  C   LIG    1       -8.751   0.698   0.049  0.00  0.00    +0.010 A 
ATOM     26  C   LIG    1       -8.155  -0.550   0.040  0.00  0.00    +0.030 A 
ATOM     27  C   LIG    1       -6.778  -0.659   0.032  0.00  0.00    +0.030 A 
ENDBRANCH  19  22
ENDBRANCH   3  17
TORSDOF 5
