REMARK  Name = ZINCtV00000L6jY9.0
REMARK                            x       y       z     vdW  Elec       q    Type
REMARK                         _______ _______ _______ _____ _____    ______ ____
ROOT
ATOM      1  P   LIG    1        0.002  -0.004   0.002  0.00  0.00    +2.560 P 
ATOM      2  C   LIG    1        0.801  -0.618  -1.523  0.00  0.00    -0.720 C 
ATOM      3  C   LIG    1        0.138  -1.578  -2.183  0.00  0.00    +0.230 C 
ATOM      4  O   LIG    1       -1.023  -2.105  -1.789  0.00  0.00    -0.270 OA
ATOM      5  C   LIG    1       -1.940  -1.613  -0.953  0.00  0.00    +0.220 C 
ATOM      6  O   LIG    1        0.715  -0.513   1.195  0.00  0.00    -0.990 OA
ATOM      7  C   LIG    1       -1.703  -0.660  -0.045  0.00  0.00    -0.690 C 
ENDROOT
BRANCH   1  17
ATOM      8  C   LIG    1        1.419   3.539   0.786  0.00  0.00    +0.060 C 
ATOM      9  C   LIG    1        1.353   2.228   0.001  0.00  0.00    +0.200 C 
ATOM     10  C   LIG    1        1.607   2.475  -1.504  0.00  0.00    +0.070 C 
ATOM     11  C   LIG    1        0.207   2.661  -2.055  0.00  0.00    -0.120 A 
ATOM     12  C   LIG    1       -0.244   3.192  -3.244  0.00  0.00    +0.040 A 
ATOM     13  C   LIG    1       -1.602   3.252  -3.506  0.00  0.00    +0.010 A 
ATOM     14  C   LIG    1       -2.505   2.778  -2.572  0.00  0.00    +0.030 A 
ATOM     15  C   LIG    1       -2.058   2.244  -1.382  0.00  0.00    +0.020 A 
ATOM     16  C   LIG    1       -0.692   2.178  -1.112  0.00  0.00    +0.050 A 
ATOM     17  N   LIG    1       -0.021   1.679   0.011  0.00  0.00    -0.860 N 
ENDBRANCH   1  17
BRANCH   5  18
ATOM     18  C   LIG    1       -3.313  -2.160  -1.036  0.00  0.00    -0.070 A 
ATOM     19  C   LIG    1       -4.309  -1.687  -0.183  0.00  0.00    +0.050 A 
ATOM     20  C   LIG    1       -5.588  -2.196  -0.269  0.00  0.00    +0.010 A 
ATOM     21  C   LIG    1       -5.881  -3.183  -1.193  0.00  0.00    +0.030 A 
ATOM     22  C   LIG    1       -4.896  -3.662  -2.039  0.00  0.00    +0.010 A 
ATOM     23  C   LIG    1       -3.615  -3.156  -1.966  0.00  0.00    +0.040 A 
ENDBRANCH   5  18
BRANCH   3  24
ATOM     24  C   LIG    1        0.739  -2.091  -3.436  0.00  0.00    -0.070 A 
ATOM     25  C   LIG    1        1.948  -1.572  -3.897  0.00  0.00    +0.050 A 
ATOM     26  C   LIG    1        2.506  -2.059  -5.061  0.00  0.00    +0.010 A 
ATOM     27  C   LIG    1        1.861  -3.052  -5.777  0.00  0.00    +0.030 A 
ATOM     28  C   LIG    1        0.658  -3.567  -5.328  0.00  0.00    +0.010 A 
ATOM     29  C   LIG    1        0.094  -3.092  -4.162  0.00  0.00    +0.040 A 
ENDBRANCH   3  24
TORSDOF 3
