REMARK  Name = ZINCvU0000000D7l.0
REMARK                            x       y       z     vdW  Elec       q    Type
REMARK                         _______ _______ _______ _____ _____    ______ ____
ROOT
ATOM      1  C   LIG    1       -0.013   1.086   0.008  0.00  0.00    +0.110 C 
ATOM      2  C   LIG    1       -0.718   1.572   1.248  0.00  0.00    -0.020 A 
ATOM      3  C   LIG    1        0.006   1.802   2.396  0.00  0.00    +0.020 A 
ATOM      4  C   LIG    1       -0.636   2.254   3.549  0.00  0.00    +0.140 A 
ATOM      5  C   LIG    1       -2.024   2.467   3.505  0.00  0.00    -0.210 A 
ATOM      6  C   LIG    1       -2.715   2.959   4.724  0.00  0.00    +0.460 A 
ATOM      7  C   LIG    1       -1.800   3.375   5.791  0.00  0.00    -0.240 A 
ATOM      8  C   LIG    1       -0.460   3.118   5.709  0.00  0.00    +0.090 A 
ATOM      9  C   LIG    1        0.189   3.664   6.914  0.00  0.00    +0.570 C 
ATOM     10  N   LIG    1       -0.730   4.236   7.717  0.00  0.00    -0.530 N 
ATOM     11  O   LIG    1        1.380   3.606   7.149  0.00  0.00    -0.460 OA
ATOM     12  C   LIG    1       -2.047   4.097   7.074  0.00  0.00    +0.360 C 
ATOM     13  O   LIG    1       -3.928   3.011   4.827  0.00  0.00    -0.430 OA
ATOM     14  C   LIG    1       -2.742   2.226   2.334  0.00  0.00    +0.120 A 
ATOM     15  O   LIG    1        0.093   2.468   4.667  0.00  0.00    -0.180 OA
ATOM     16  C   LIG    1       -2.089   1.787   1.217  0.00  0.00    -0.110 A 
ATOM     17  C   LIG    1       -2.860   1.532  -0.052  0.00  0.00    +0.110 C 
ENDROOT
BRANCH  10  18
ATOM     18  C   LIG    1       -0.477   4.854   8.946  0.00  0.00    +0.160 A 
ATOM     19  C   LIG    1       -1.521   5.412   9.673  0.00  0.00    +0.030 A 
ATOM     20  C   LIG    1       -1.269   6.018  10.888  0.00  0.00    +0.020 A 
ATOM     21  C   LIG    1        0.025   6.078  11.377  0.00  0.00    +0.080 A 
ATOM     22  C   LIG    1        1.068   5.528  10.652  0.00  0.00    +0.020 A 
ATOM     23  F   LIG    1        0.270   6.676  12.564  0.00  0.00    -0.140 F 
ATOM     24  C   LIG    1        0.820   4.916   9.439  0.00  0.00    +0.040 A 
ENDBRANCH  10  18
BRANCH  12  25
ATOM     25  C   LIG    1       -2.639   5.456   6.801  0.00  0.00    -0.090 A 
ATOM     26  C   LIG    1       -1.829   6.484   6.354  0.00  0.00    +0.020 A 
ATOM     27  C   LIG    1       -2.370   7.731   6.097  0.00  0.00    +0.030 A 
ATOM     28  C   LIG    1       -3.718   7.954   6.296  0.00  0.00    +0.000 A 
ATOM     29  C   LIG    1       -4.531   6.926   6.750  0.00  0.00    +0.110 A 
ATOM     30  C   LIG    1       -3.988   5.675   7.002  0.00  0.00    +0.020 A 
BRANCH  29  31
ATOM     31  O   LIG    1       -5.858   7.144   6.946  0.00  0.00    -0.490 OA
ATOM     32  H   LIG    1       -6.080   7.446   7.838  0.00  0.00    +0.390 HD
ENDBRANCH  29  31
ENDBRANCH  12  25
TORSDOF 3
