REMARK  Name = ZINCrD00000l1HZH.0
REMARK                            x       y       z     vdW  Elec       q    Type
REMARK                         _______ _______ _______ _____ _____    ______ ____
ROOT
ATOM      1  N   LIG    1        0.669   4.134   0.020  0.00  0.00    -0.650 N 
ATOM      2  H   LIG    1       -0.132   3.857  -0.453  0.00  0.00    +0.420 HD
ATOM      3  C   LIG    1        1.471   3.210   0.585  0.00  0.00    +0.610 C 
ATOM      4  O   LIG    1        2.516   3.549   1.107  0.00  0.00    -0.510 OA
ENDROOT
BRANCH   3   5
ATOM      5  C   LIG    1        1.081   1.786   0.571  0.00  0.00    -0.020 A 
ATOM      6  N   LIG    1       -0.017   1.278   0.043  0.00  0.00    -0.250 NA
ATOM      7  N   LIG    1       -0.040   0.007   0.209  0.00  0.00    -0.280 N 
ATOM      8  C   LIG    1       -1.087  -0.929  -0.227  0.00  0.00    +0.290 C 
ATOM      9  C   LIG    1       -0.907  -2.244   0.540  0.00  0.00    +0.170 C 
ATOM     10  N   LIG    1        0.490  -2.691   0.439  0.00  0.00    -0.680 NA
ATOM     11  H   LIG    1        0.787  -2.733  -0.524  0.00  0.00    +0.350 HD
ATOM     12  C   LIG    1        1.380  -1.823   1.230  0.00  0.00    +0.340 C 
ATOM     13  C   LIG    1       -1.827  -3.310  -0.059  0.00  0.00    +0.070 C 
ATOM     14  C   LIG    1        1.077  -0.391   0.870  0.00  0.00    -0.030 A 
ATOM     15  C   LIG    1        1.815   0.705   1.121  0.00  0.00    +0.010 A 
ENDBRANCH   3   5
BRANCH   1  21
ATOM     16  C   LIG    1       -0.024   6.443   0.221  0.00  0.00    +0.110 A 
ATOM     17  C   LIG    1        0.295   7.785   0.320  0.00  0.00    -0.040 A 
ATOM     18  C   LIG    1        1.631   8.185   0.303  0.00  0.00    -0.020 A 
ATOM     19  C   LIG    1        2.641   7.231   0.192  0.00  0.00    +0.000 A 
ATOM     20  C   LIG    1        2.320   5.893   0.098  0.00  0.00    +0.070 A 
ATOM     21  C   LIG    1        0.991   5.492   0.115  0.00  0.00    +0.120 A 
BRANCH  18  22
ATOM     22  C   LIG    1        1.976   9.624   0.405  0.00  0.00    -0.050 A 
ATOM     23  C   LIG    1        0.967  10.579   0.510  0.00  0.00    +0.010 A 
ATOM     24  C   LIG    1        1.294  11.917   0.609  0.00  0.00    +0.000 A 
ATOM     25  C   LIG    1        2.620  12.310   0.592  0.00  0.00    +0.000 A 
ATOM     26  C   LIG    1        3.625  11.366   0.482  0.00  0.00    +0.010 A 
ATOM     27  C   LIG    1        3.310  10.026   0.388  0.00  0.00    +0.020 A 
ENDBRANCH  18  22
BRANCH  16  29
ATOM     28  C   LIG    1       -2.312   7.078   0.344  0.00  0.00    +0.250 C 
ATOM     29  O   LIG    1       -1.325   6.050   0.233  0.00  0.00    -0.320 OA
ENDBRANCH  16  29
ENDBRANCH   1  21
TORSDOF 4
