REMARK  Name = ZINCrH000004sVgC.0
REMARK                            x       y       z     vdW  Elec       q    Type
REMARK                         _______ _______ _______ _____ _____    ______ ____
ROOT
ATOM      1  C   LIG    1        4.957  -2.734   0.154  0.00  0.00    +0.060 C 
ENDROOT
BRANCH   1   2
ATOM      2  C   LIG    1        3.642  -2.005   0.057  0.00  0.00    +0.520 C 
ATOM      3  N   LIG    1        3.622  -0.661  -0.037  0.00  0.00    -0.660 N 
ATOM      4  H   LIG    1        4.454  -0.167  -0.107  0.00  0.00    +0.420 HD
ATOM      5  O   LIG    1        2.601  -2.628   0.064  0.00  0.00    -0.520 OA
BRANCH   3   6
ATOM      6  C   LIG    1        2.399   0.023  -0.032  0.00  0.00    +0.130 A 
ATOM      7  C   LIG    1        1.283  -0.543  -0.629  0.00  0.00    +0.060 A 
ATOM      8  C   LIG    1        0.078   0.134  -0.624  0.00  0.00    +0.010 A 
ATOM      9  C   LIG    1       -0.018   1.376  -0.025  0.00  0.00    +0.040 A 
ATOM     10  C   LIG    1        1.091   1.948   0.572  0.00  0.00    -0.030 A 
ATOM     11  C   LIG    1        2.302   1.276   0.571  0.00  0.00    +0.080 A 
BRANCH  11  12
ATOM     12  O   LIG    1        3.393   1.836   1.157  0.00  0.00    -0.320 OA
BRANCH  12  13
ATOM     13  C   LIG    1        3.219   3.122   1.756  0.00  0.00    +0.590 C 
ATOM     14  F   LIG    1        2.251   3.041   2.763  0.00  0.00    -0.200 F 
ATOM     15  F   LIG    1        2.804   4.037   0.783  0.00  0.00    -0.200 F 
ENDBRANCH  12  13
ENDBRANCH  11  12
ENDBRANCH   3   6
ENDBRANCH   1   2
BRANCH   1  16
ATOM     16  C   LIG    1        4.700  -4.240   0.249  0.00  0.00    +0.330 C 
BRANCH  16  24
ATOM     17  C   LIG    1       10.669  -7.410   3.501  0.00  0.00    +0.150 C 
ATOM     18  C   LIG    1        9.684  -6.911   2.475  0.00  0.00    -0.200 A 
ATOM     19  C   LIG    1        8.566  -6.272   2.764  0.00  0.00    -0.040 A 
ATOM     20  C   LIG    1        7.771  -5.886   1.615  0.00  0.00    -0.220 A 
ATOM     21  C   LIG    1        8.360  -6.274   0.416  0.00  0.00    +0.070 A 
ATOM     22  N   LIG    1        7.745  -5.989  -0.752  0.00  0.00    -0.500 NA
ATOM     23  C   LIG    1        6.607  -5.361  -0.788  0.00  0.00    +0.590 A 
ATOM     24  N   LIG    1        5.979  -4.948   0.343  0.00  0.00    -0.540 N 
ATOM     25  C   LIG    1        6.523  -5.192   1.551  0.00  0.00    +0.560 A 
ATOM     26  O   LIG    1        5.962  -4.828   2.570  0.00  0.00    -0.510 OA
ATOM     27  C   LIG    1        8.148  -5.967   4.180  0.00  0.00    +0.120 C 
ATOM     28  S   LIG    1        9.876  -7.104   0.743  0.00  0.00    +0.200 S 
ENDBRANCH  16  24
ENDBRANCH   1  16
TORSDOF 6
