REMARK  Name = ZINCvU0000000Ia2.0
REMARK                            x       y       z     vdW  Elec       q    Type
REMARK                         _______ _______ _______ _____ _____    ______ ____
ROOT
ATOM      1  C   LIG    1        1.343  -0.853   1.310  0.00  0.00    -0.250 A 
ATOM      2  C   LIG    1        0.131  -0.269   1.697  0.00  0.00    +0.130 A 
ATOM      3  C   LIG    1        0.142   1.136   2.124  0.00  0.00    -0.130 A 
ATOM      4  C   LIG    1       -1.040   1.766   2.527  0.00  0.00    +0.140 A 
ATOM      5  C   LIG    1       -1.011   3.086   2.918  0.00  0.00    -0.130 A 
ATOM      6  C   LIG    1        0.187   3.788   2.926  0.00  0.00    +0.120 A 
ATOM      7  C   LIG    1        1.361   3.180   2.538  0.00  0.00    -0.010 A 
ATOM      8 BR   LIG    1       -2.609   3.944   3.454  0.00  0.00    -0.030 Br
ATOM      9  C   LIG    1        1.355   1.848   2.132  0.00  0.00    +0.210 A 
ATOM     10  N   LIG    1        2.530   1.238   1.743  0.00  0.00    -0.630 N 
ATOM     11  H   LIG    1        3.354   1.749   1.756  0.00  0.00    +0.420 HD
ATOM     12  C   LIG    1        2.563  -0.045   1.346  0.00  0.00    +0.560 A 
ATOM     13  O   LIG    1        3.623  -0.543   1.011  0.00  0.00    -0.510 OA
ENDROOT
BRANCH   2  14
ATOM     14  C   LIG    1       -1.125  -1.045   1.676  0.00  0.00    -0.070 A 
ATOM     15  C   LIG    1       -2.158  -0.686   0.806  0.00  0.00    +0.030 A 
ATOM     16  C   LIG    1       -3.326  -1.418   0.789  0.00  0.00    +0.010 A 
ATOM     17  C   LIG    1       -3.482  -2.500   1.638  0.00  0.00    +0.020 A 
ATOM     18  C   LIG    1       -2.465  -2.858   2.507  0.00  0.00    +0.010 A 
ATOM     19  C   LIG    1       -1.289  -2.138   2.531  0.00  0.00    +0.060 A 
ENDBRANCH   2  14
BRANCH   1  20
ATOM     20  C   LIG    1        1.389  -2.257   0.874  0.00  0.00    +0.440 C 
ATOM     21  O   LIG    1        0.355  -2.886   0.735  0.00  0.00    -0.450 OA
BRANCH  20  23
ATOM     22  C   LIG    1        2.725  -4.209   0.285  0.00  0.00    +0.130 C 
ATOM     23  C   LIG    1        2.676  -2.897   0.606  0.00  0.00    -0.090 C 
BRANCH  22  27
ATOM     24  C   LIG    1        6.454  -6.064  -0.488  0.00  0.00    +0.230 A 
ATOM     25  C   LIG    1        5.279  -6.808  -0.565  0.00  0.00    -0.080 A 
ATOM     26  C   LIG    1        4.070  -6.212  -0.316  0.00  0.00    +0.090 A 
ATOM     27  C   LIG    1        4.017  -4.852   0.017  0.00  0.00    -0.150 A 
ATOM     28  C   LIG    1        5.201  -4.106   0.087  0.00  0.00    +0.090 A 
ATOM     29  C   LIG    1        6.406  -4.712  -0.158  0.00  0.00    -0.070 A 
BRANCH  24  31
ATOM     30  C   LIG    1        7.744  -8.119  -0.971  0.00  0.00    +0.280 C 
ATOM     31  N   LIG    1        7.678  -6.673  -0.742  0.00  0.00    -0.630 N 
ATOM     32  C   LIG    1        8.902  -5.869  -0.781  0.00  0.00    +0.280 C 
ENDBRANCH  24  31
ENDBRANCH  22  27
ENDBRANCH  20  23
ENDBRANCH   1  20
TORSDOF 5
