REMARK  Name = ZINCvU00000004eN.0
REMARK                            x       y       z     vdW  Elec       q    Type
REMARK                         _______ _______ _______ _____ _____    ______ ____
ROOT
ATOM      1  C   LIG    1        6.211  -1.899  -0.067  0.00  0.00    -0.170 A 
ATOM      2  C   LIG    1        5.484  -0.738  -0.053  0.00  0.00    +0.040 A 
ATOM      3  S   LIG    1        6.508   0.624  -0.063  0.00  0.00    +0.240 S 
ATOM      4  C   LIG    1        7.958  -0.364  -0.076  0.00  0.00    -0.030 A 
ATOM      5  C   LIG    1        7.645  -1.665  -0.080  0.00  0.00    +0.010 A 
ENDROOT
BRANCH   5   6
ATOM      6  C   LIG    1        8.654  -2.751  -0.095  0.00  0.00    -0.050 A 
ATOM      7  C   LIG    1        8.575  -3.793   0.829  0.00  0.00    +0.030 A 
ATOM      8  C   LIG    1        9.514  -4.804   0.806  0.00  0.00    +0.010 A 
ATOM      9  C   LIG    1       10.539  -4.779  -0.122  0.00  0.00    -0.070 A 
ATOM     10  C   LIG    1       10.626  -3.746  -1.037  0.00  0.00    +0.010 A 
ATOM     11  C   LIG    1       11.564  -5.883  -0.137  0.00  0.00    +0.090 C 
ATOM     12  C   LIG    1        9.689  -2.732  -1.028  0.00  0.00    +0.040 A 
ENDBRANCH   5   6
BRANCH   1  13
ATOM     13  C   LIG    1        5.608  -3.232  -0.067  0.00  0.00    +0.530 C 
ATOM     14  O   LIG    1        5.347  -3.781  -1.121  0.00  0.00    -0.480 OA
BRANCH  13  15
ATOM     15  O   LIG    1        5.342  -3.853   1.101  0.00  0.00    -0.340 OA
BRANCH  15  17
ATOM     16  C   LIG    1        4.526  -5.692   2.439  0.00  0.00    +0.070 C 
ATOM     17  C   LIG    1        4.753  -5.152   1.025  0.00  0.00    +0.200 C 
ENDBRANCH  15  17
ENDBRANCH  13  15
ENDBRANCH   1  13
BRANCH   2  18
ATOM     18  N   LIG    1        4.102  -0.679  -0.040  0.00  0.00    -0.580 N 
ATOM     19  H   LIG    1        3.582  -1.497  -0.040  0.00  0.00    +0.430 HD
BRANCH  18  20
ATOM     20  C   LIG    1        3.472   0.529  -0.028  0.00  0.00    +0.460 C 
ATOM     21  C   LIG    1        2.094   0.588  -0.015  0.00  0.00    -0.190 C 
ATOM     22  N   LIG    1        1.221  -0.464  -0.012  0.00  0.00    -0.460 NA
ATOM     23  C   LIG    1        0.002  -0.004   0.002  0.00  0.00    +0.320 C 
ATOM     24  O   LIG    1       -0.016   1.343   0.009  0.00  0.00    -0.280 OA
ATOM     25  C   LIG    1        1.256   1.793  -0.000  0.00  0.00    +0.500 C 
ATOM     26  O   LIG    1        1.630   2.953   0.002  0.00  0.00    -0.440 OA
BRANCH  23  27
ATOM     27  C   LIG    1       -1.207  -0.852   0.009  0.00  0.00    -0.040 A 
ATOM     28  C   LIG    1       -1.088  -2.244  -0.005  0.00  0.00    +0.070 A 
ATOM     29  C   LIG    1       -2.222  -3.030   0.007  0.00  0.00    +0.010 A 
ATOM     30  C   LIG    1       -3.475  -2.443   0.022  0.00  0.00    +0.040 A 
ATOM     31  C   LIG    1       -3.600  -1.065   0.030  0.00  0.00    +0.010 A 
ATOM     32  C   LIG    1       -2.475  -0.267   0.024  0.00  0.00    +0.060 A 
ENDBRANCH  23  27
ENDBRANCH  18  20
ENDBRANCH   2  18
TORSDOF 7
