REMARK  Name = ZINCpk00000y6zhx.0
REMARK                            x       y       z     vdW  Elec       q    Type
REMARK                         _______ _______ _______ _____ _____    ______ ____
ROOT
ATOM      1  C   LIG    1       -3.100   4.083  -2.207  0.00  0.00    -0.020 C 
ATOM      2  C   LIG    1       -2.858   5.095  -1.085  0.00  0.00    +0.020 C 
ATOM      3  C   LIG    1       -1.351   5.316  -0.908  0.00  0.00    +0.020 C 
ATOM      4  C   LIG    1       -0.691   3.989  -0.518  0.00  0.00    +0.260 C 
ATOM      5  N   LIG    1       -1.040   2.972  -1.519  0.00  0.00    -0.600 N 
ATOM      6  C   LIG    1       -0.078   2.260  -2.139  0.00  0.00    +0.580 C 
ATOM      7  O   LIG    1       -0.379   1.321  -2.850  0.00  0.00    -0.510 OA
ATOM      8  C   LIG    1       -2.458   2.745  -1.830  0.00  0.00    +0.300 C 
ENDROOT
BRANCH   6   9
ATOM      9  C   LIG    1        1.340   2.621  -1.955  0.00  0.00    -0.250 A 
ATOM     10  C   LIG    1        1.983   3.410  -2.887  0.00  0.00    +0.430 A 
ATOM     11  N   LIG    1        3.277   3.743  -2.723  0.00  0.00    -0.580 N 
ATOM     12  H   LIG    1        3.715   4.298  -3.387  0.00  0.00    +0.440 HD
ATOM     13  C   LIG    1        3.973   3.316  -1.653  0.00  0.00    +0.540 A 
ATOM     14  C   LIG    1        3.359   2.510  -0.677  0.00  0.00    -0.180 A 
ATOM     15  O   LIG    1        5.144   3.632  -1.528  0.00  0.00    -0.470 OA
ATOM     16  C   LIG    1        2.051   2.166  -0.819  0.00  0.00    +0.280 A 
BRANCH  14  17
ATOM     17  N   LIG    1        4.129   2.044   0.498  0.00  0.00    +0.050 N 
ATOM     18  O   LIG    1        5.300   2.358   0.622  0.00  0.00    -0.120 OA
ATOM     19  O   LIG    1        3.594   1.346   1.340  0.00  0.00    -0.170 OA
ENDBRANCH  14  17
ENDBRANCH   6   9
BRANCH   1  20
ATOM     20  C   LIG    1       -4.605   3.889  -2.404  0.00  0.00    +0.180 C 
BRANCH  20  24
ATOM     21  C   LIG    1       -5.335  -0.132  -5.297  0.00  0.00    +0.240 C 
ATOM     22  C   LIG    1       -5.153   1.278  -4.797  0.00  0.00    +0.190 A 
ATOM     23  N   LIG    1       -4.947   1.645  -3.555  0.00  0.00    -0.480 NA
ATOM     24  C   LIG    1       -4.845   2.986  -3.586  0.00  0.00    +0.170 A 
ATOM     25  N   LIG    1       -4.998   3.359  -4.821  0.00  0.00    -0.380 NA
ATOM     26  O   LIG    1       -5.171   2.393  -5.534  0.00  0.00    +0.080 OA
ENDBRANCH  20  24
ENDBRANCH   1  20
TORSDOF 4
