REMARK  Name = ZINCqH0000062QSI.0
REMARK                            x       y       z     vdW  Elec       q    Type
REMARK                         _______ _______ _______ _____ _____    ______ ____
ROOT
ATOM      1  N   LIG    1        4.772   1.409   2.825  0.00  0.00    -0.460 N 
ATOM      2  C   LIG    1        5.024   0.377   3.839  0.00  0.00    +0.210 C 
ATOM      3  C   LIG    1        6.253  -0.445   3.434  0.00  0.00    +0.100 C 
ATOM      4  C   LIG    1        7.402   0.509   3.188  0.00  0.00    -0.100 C 
ATOM      5  C   LIG    1        7.146   1.708   2.298  0.00  0.00    +0.090 C 
ATOM      6  C   LIG    1        8.593   0.303   3.733  0.00  0.00    +0.000 C 
ATOM      7  C   LIG    1        5.861   2.393   2.775  0.00  0.00    +0.210 C 
ENDROOT
BRANCH   6   8
ATOM      8  C   LIG    1        8.868  -0.961   4.450  0.00  0.00    -0.020 A 
ATOM      9  C   LIG    1        8.287  -2.152   4.017  0.00  0.00    +0.010 A 
ATOM     10  C   LIG    1        8.548  -3.329   4.689  0.00  0.00    +0.040 A 
ATOM     11  C   LIG    1        9.384  -3.330   5.790  0.00  0.00    -0.020 A 
ATOM     12  C   LIG    1        9.966  -2.150   6.226  0.00  0.00    +0.100 A 
ATOM     13  F   LIG    1       10.783  -2.158   7.302  0.00  0.00    -0.140 F 
ATOM     14  C   LIG    1        9.716  -0.966   5.558  0.00  0.00    -0.010 A 
ENDBRANCH   6   8
BRANCH   1  18
ATOM     15  C   LIG    1        1.507   2.748   2.825  0.00  0.00    +0.150 A 
ATOM     16  N   LIG    1        2.007   3.169   3.952  0.00  0.00    -0.280 NA
ATOM     17  N   LIG    1        3.214   2.747   4.084  0.00  0.00    -0.300 NA
ATOM     18  C   LIG    1        3.551   2.029   3.039  0.00  0.00    +0.350 A 
ATOM     19  N   LIG    1        2.471   2.003   2.205  0.00  0.00    -0.460 N 
ATOM     20  C   LIG    1        2.367   1.320   0.913  0.00  0.00    +0.340 C 
BRANCH  15  21
ATOM     21  C   LIG    1        0.121   3.027   2.303  0.00  0.00    +0.320 C 
BRANCH  21  22
ATOM     22  C   LIG    1        0.047   4.469   1.796  0.00  0.00    -0.040 C 
ATOM     23  C   LIG    1        1.065   4.666   0.671  0.00  0.00    +0.030 C 
BRANCH  22  25
ATOM     24  C   LIG    1       -1.471   6.226   0.875  0.00  0.00    +0.020 C 
ATOM     25  C   LIG    1       -1.360   4.752   1.267  0.00  0.00    +0.010 C 
ENDBRANCH  22  25
ENDBRANCH  21  22
BRANCH  21  26
ATOM     26  O   LIG    1       -0.829   2.843   3.355  0.00  0.00    -0.540 OA
ATOM     27  H   LIG    1       -0.690   3.421   4.117  0.00  0.00    +0.390 HD
ENDBRANCH  21  26
ENDBRANCH  15  21
ENDBRANCH   1  18
TORSDOF 6
