REMARK  Name = ZINCrg00000SjSrI.0
REMARK                            x       y       z     vdW  Elec       q    Type
REMARK                         _______ _______ _______ _____ _____    ______ ____
ROOT
ATOM      1  C   LIG    1       -2.822   1.573  -1.452  0.00  0.00    +0.280 C 
ATOM      2  C   LIG    1       -1.813   0.435  -1.277  0.00  0.00    +0.020 C 
ATOM      3  C   LIG    1       -0.755   0.851  -0.249  0.00  0.00    +0.290 C 
ATOM      4  N   LIG    1       -1.431   1.254   0.992  0.00  0.00    -0.610 N 
ATOM      5  C   LIG    1       -2.486   2.274   0.922  0.00  0.00    +0.280 C 
ATOM      6  C   LIG    1       -1.091   0.697   2.171  0.00  0.00    +0.560 C 
ATOM      7  O   LIG    1       -0.294  -0.221   2.203  0.00  0.00    -0.520 OA
ATOM      8  C   LIG    1       -3.524   1.843  -0.119  0.00  0.00    +0.020 C 
ENDROOT
BRANCH   1  12
ATOM      9  N   LIG    1       -5.454   0.002  -3.431  0.00  0.00    -0.640 N 
ATOM     10  C   LIG    1       -5.199   1.095  -4.382  0.00  0.00    +0.250 C 
ATOM     11  C   LIG    1       -4.076   1.911  -3.714  0.00  0.00    +0.250 C 
ATOM     12  N   LIG    1       -3.817   1.192  -2.458  0.00  0.00    -0.630 N 
ATOM     13  C   LIG    1       -4.630   0.130  -2.383  0.00  0.00    +0.700 C 
ATOM     14  O   LIG    1       -4.624  -0.645  -1.446  0.00  0.00    -0.580 OA
BRANCH   9  16
ATOM     15  C   LIG    1       -5.804  -2.243  -4.335  0.00  0.00    +0.020 C 
ATOM     16  C   LIG    1       -6.446  -1.061  -3.606  0.00  0.00    +0.310 C 
ENDBRANCH   9  16
ENDBRANCH   1  12
BRANCH   6  17
ATOM     17  C   LIG    1       -1.688   1.201   3.426  0.00  0.00    -0.110 A 
ATOM     18  C   LIG    1       -1.949   2.563   3.579  0.00  0.00    +0.060 A 
ATOM     19  C   LIG    1       -2.507   3.031   4.752  0.00  0.00    +0.050 A 
ATOM     20  C   LIG    1       -2.808   2.154   5.778  0.00  0.00    +0.040 A 
ATOM     21  C   LIG    1       -2.550   0.796   5.635  0.00  0.00    +0.130 A 
ATOM     22  C   LIG    1       -1.996   0.316   4.460  0.00  0.00    +0.100 A 
BRANCH  21  23
ATOM     23  N   LIG    1       -2.858  -0.089   6.679  0.00  0.00    -0.330 N 
ATOM     24  C   LIG    1       -3.487   0.198   7.839  0.00  0.00    +0.470 A 
ATOM     25  N   LIG    1       -3.568  -0.914   8.522  0.00  0.00    -0.330 NA
ATOM     26  N   LIG    1       -3.033  -1.884   7.873  0.00  0.00    -0.030 NA
ATOM     27  N   LIG    1       -2.583  -1.467   6.739  0.00  0.00    -0.070 NA
ENDBRANCH  21  23
ENDBRANCH   6  17
TORSDOF 4
