REMARK  Name = ZINCkj000005hoVH.0
REMARK                            x       y       z     vdW  Elec       q    Type
REMARK                         _______ _______ _______ _____ _____    ______ ____
ROOT
ATOM      1  C   LIG    1        4.495   4.518  -1.450  0.00  0.00    +0.310 C 
ATOM      2  N   LIG    1        3.199   3.833  -1.369  0.00  0.00    -0.390 N 
ATOM      3  C   LIG    1        2.451   4.346  -0.217  0.00  0.00    +0.240 C 
ATOM      4  C   LIG    1        1.073   3.680  -0.140  0.00  0.00    +0.110 C 
ATOM      5  C   LIG    1        1.268   2.170  -0.008  0.00  0.00    +0.250 C 
ATOM      6  C   LIG    1        2.072   1.675  -1.217  0.00  0.00    -0.030 C 
ATOM      7  C   LIG    1        2.240   0.161  -1.113  0.00  0.00    +0.050 C 
ATOM      8  C   LIG    1        0.858  -0.498  -1.162  0.00  0.00    +0.020 C 
ATOM      9  C   LIG    1        0.002  -0.004   0.008  0.00  0.00    +0.270 C 
ATOM     10  N   LIG    1       -0.018   1.468   0.009  0.00  0.00    -0.630 N 
ATOM     11  C   LIG    1       -1.182   2.148   0.019  0.00  0.00    +0.720 C 
ATOM     12  N   LIG    1       -2.350   1.484  -0.080  0.00  0.00    -0.740 N 
ATOM     13  H   LIG    1       -2.359   0.514  -0.086  0.00  0.00    +0.400 HD
ATOM     14  O   LIG    1       -1.177   3.359   0.119  0.00  0.00    -0.580 OA
ATOM     15  C   LIG    1        3.422   2.386  -1.235  0.00  0.00    +0.260 C 
ATOM     16  H   LIG    1        2.674   4.011  -2.213  0.00  0.00    +0.420 HD
ENDROOT
BRANCH  12  17
ATOM     17  C   LIG    1       -3.609   2.228  -0.181  0.00  0.00    +0.410 C 
BRANCH  17  18
ATOM     18  C   LIG    1       -4.758   1.259  -0.280  0.00  0.00    -0.020 A 
ATOM     19  N   LIG    1       -5.213   0.697  -1.363  0.00  0.00    -0.350 NA
ATOM     20  O   LIG    1       -6.144  -0.038  -1.126  0.00  0.00    +0.110 OA
ATOM     21  C   LIG    1       -6.441  -0.051   0.181  0.00  0.00    +0.170 A 
ATOM     22  C   LIG    1       -5.561   0.784   0.783  0.00  0.00    -0.040 A 
ENDBRANCH  17  18
ENDBRANCH  12  17
TORSDOF 2
