REMARK  Name = ZINCkj000005hoVH.1
REMARK                            x       y       z     vdW  Elec       q    Type
REMARK                         _______ _______ _______ _____ _____    ______ ____
ROOT
ATOM      1  C   LIG    1        1.386   1.521  -0.017  0.00  0.00    +0.310 C 
ATOM      2  N   LIG    1        0.009   1.011  -0.005  0.00  0.00    -0.380 N 
ATOM      3  C   LIG    1       -0.667   1.473   1.212  0.00  0.00    +0.240 C 
ATOM      4  C   LIG    1       -0.664   3.005   1.270  0.00  0.00    +0.110 C 
ATOM      5  C   LIG    1       -1.385   3.541   0.034  0.00  0.00    +0.250 C 
ATOM      6  C   LIG    1       -0.665   3.019  -1.215  0.00  0.00    -0.030 C 
ATOM      7  C   LIG    1       -1.356   3.580  -2.455  0.00  0.00    +0.050 C 
ATOM      8  C   LIG    1       -1.236   5.107  -2.444  0.00  0.00    +0.020 C 
ATOM      9  C   LIG    1       -1.909   5.675  -1.192  0.00  0.00    +0.270 C 
ATOM     10  N   LIG    1       -1.362   5.006   0.000  0.00  0.00    -0.630 N 
ATOM     11  C   LIG    1       -0.857   5.718   1.027  0.00  0.00    +0.720 C 
ATOM     12  N   LIG    1       -0.748   7.058   0.929  0.00  0.00    -0.740 N 
ATOM     13  H   LIG    1       -1.099   7.517   0.150  0.00  0.00    +0.400 HD
ATOM     14  O   LIG    1       -0.500   5.152   2.042  0.00  0.00    -0.580 OA
ATOM     15  C   LIG    1       -0.698   1.493  -1.201  0.00  0.00    +0.260 C 
ATOM     16  H   LIG    1        0.027   0.002  -0.013  0.00  0.00    +0.430 HD
ENDROOT
BRANCH  12  17
ATOM     17  C   LIG    1       -0.098   7.820   1.998  0.00  0.00    +0.410 C 
BRANCH  17  18
ATOM     18  C   LIG    1       -0.106   9.285   1.646  0.00  0.00    -0.020 A 
ATOM     19  N   LIG    1        0.766   9.916   0.913  0.00  0.00    -0.350 NA
ATOM     20  O   LIG    1        0.491  11.089   0.805  0.00  0.00    +0.110 OA
ATOM     21  C   LIG    1       -0.624  11.398   1.481  0.00  0.00    +0.170 A 
ATOM     22  C   LIG    1       -1.058  10.248   2.052  0.00  0.00    -0.040 A 
ENDBRANCH  17  18
ENDBRANCH  12  17
TORSDOF 2
