REMARK  Name = ZINCpe000000Uhbr.0
REMARK                            x       y       z     vdW  Elec       q    Type
REMARK                         _______ _______ _______ _____ _____    ______ ____
ROOT
ATOM      1  C   LIG    1        4.232  -1.740  -0.047  0.00  0.00    +0.350 C 
ENDROOT
BRANCH   1   4
ATOM      2  N   LIG    1        3.706   1.839  -0.024  0.00  0.00    -0.540 N 
ATOM      3  C   LIG    1        4.496   0.749  -0.037  0.00  0.00    +0.680 A 
ATOM      4  N   LIG    1        3.736  -0.362  -0.035  0.00  0.00    -0.540 N 
ATOM      5  C   LIG    1        2.397   0.022  -0.020  0.00  0.00    +0.090 A 
ATOM      6  C   LIG    1        1.204  -0.684  -0.013  0.00  0.00    +0.030 A 
ATOM      7  C   LIG    1        0.002  -0.004   0.002  0.00  0.00    +0.020 A 
ATOM      8  C   LIG    1       -0.017   1.380   0.010  0.00  0.00    +0.020 A 
ATOM      9  C   LIG    1        1.167   2.093   0.002  0.00  0.00    +0.030 A 
ATOM     10  O   LIG    1        5.713   0.766  -0.049  0.00  0.00    -0.550 OA
ATOM     11  C   LIG    1        2.378   1.419  -0.013  0.00  0.00    +0.090 A 
BRANCH   2  13
ATOM     12  C   LIG    1        4.338   3.707   1.423  0.00  0.00    +0.030 C 
ATOM     13  C   LIG    1        4.165   3.231  -0.021  0.00  0.00    +0.310 C 
ENDBRANCH   2  13
ENDBRANCH   1   4
BRANCH   1  14
ATOM     14  C   LIG    1        4.391  -2.213  -1.493  0.00  0.00    +0.040 C 
BRANCH  14  15
ATOM     15  C   LIG    1        4.901  -3.631  -1.505  0.00  0.00    +0.530 C 
ATOM     16  N   LIG    1        5.118  -4.260  -2.677  0.00  0.00    -0.600 N 
ATOM     17  C   LIG    1        4.857  -3.565  -3.940  0.00  0.00    +0.300 C 
ATOM     18  O   LIG    1        5.117  -4.207  -0.459  0.00  0.00    -0.530 OA
BRANCH  16  19
ATOM     19  C   LIG    1        5.614  -5.638  -2.688  0.00  0.00    +0.270 C 
ATOM     20  C   LIG    1        6.928  -5.719  -3.485  0.00  0.00    +0.060 C 
ATOM     21  C   LIG    1        7.243  -7.200  -3.770  0.00  0.00    -0.310 C 
ATOM     22  S   LIG    1        5.616  -8.034  -3.810  0.00  0.00    +2.400 S 
ATOM     23  O   LIG    1        5.334  -8.455  -5.138  0.00  0.00    -0.930 OA
ATOM     24  O   LIG    1        5.537  -8.965  -2.739  0.00  0.00    -0.930 OA
ATOM     25  C   LIG    1        4.600  -6.562  -3.411  0.00  0.00    -0.330 C 
ENDBRANCH  16  19
ENDBRANCH  14  15
ENDBRANCH   1  14
TORSDOF 5
