REMARK  Name = ZINCqH0000036z1S.0
REMARK                            x       y       z     vdW  Elec       q    Type
REMARK                         _______ _______ _______ _____ _____    ______ ____
ROOT
ATOM      1  C   LIG    1       -2.496   2.419  -0.987  0.00  0.00    +0.510 C 
ATOM      2  N   LIG    1       -3.681   1.777  -0.992  0.00  0.00    -0.600 N 
ATOM      3  C   LIG    1       -4.033   0.890   0.121  0.00  0.00    +0.350 C 
ATOM      4  C   LIG    1       -3.771  -0.543  -0.296  0.00  0.00    -0.140 A 
ATOM      5  C   LIG    1       -2.797  -1.292   0.326  0.00  0.00    +0.050 A 
ATOM      6  C   LIG    1       -2.600  -2.610  -0.050  0.00  0.00    +0.000 A 
ATOM      7  C   LIG    1       -3.383  -3.170  -1.043  0.00  0.00    +0.030 A 
ATOM      8  C   LIG    1       -4.351  -2.415  -1.677  0.00  0.00    -0.010 A 
ATOM      9  C   LIG    1       -4.538  -1.088  -1.317  0.00  0.00    +0.110 A 
ATOM     10  O   LIG    1       -5.415  -0.312  -2.000  0.00  0.00    -0.320 OA
ATOM     11  C   LIG    1       -4.836   0.671  -2.866  0.00  0.00    +0.100 C 
ATOM     12  C   LIG    1       -5.780   0.930  -4.042  0.00  0.00    +0.070 C 
ATOM     13  C   LIG    1       -3.498   0.154  -3.397  0.00  0.00    +0.030 C 
ATOM     14  C   LIG    1       -4.611   1.975  -2.104  0.00  0.00    +0.260 C 
ATOM     15  O   LIG    1       -1.679   2.178  -0.124  0.00  0.00    -0.510 OA
ENDROOT
BRANCH   1  17
ATOM     16  C   LIG    1       -2.064   2.735  -3.409  0.00  0.00    +0.070 C 
ATOM     17  C   LIG    1       -2.186   3.437  -2.055  0.00  0.00    +0.240 C 
BRANCH  17  18
ATOM     18  N   LIG    1       -0.924   4.109  -1.737  0.00  0.00    -0.480 N 
ATOM     19  C   LIG    1        0.293   3.517  -1.601  0.00  0.00    +0.500 A 
ATOM     20  N   LIG    1        1.195   4.408  -1.310  0.00  0.00    -0.500 NA
ATOM     21  C   LIG    1        0.618   5.636  -1.246  0.00  0.00    +0.050 A 
ATOM     22  C   LIG    1        1.107   6.917  -0.977  0.00  0.00    +0.070 A 
ATOM     23  C   LIG    1        0.256   7.986  -0.986  0.00  0.00    +0.000 A 
ATOM     24  C   LIG    1       -1.093   7.814  -1.259  0.00  0.00    +0.030 A 
ATOM     25  C   LIG    1       -1.598   6.559  -1.527  0.00  0.00    +0.010 A 
ATOM     26  C   LIG    1       -0.749   5.462  -1.522  0.00  0.00    +0.050 A 
ENDBRANCH  17  18
ENDBRANCH   1  17
TORSDOF 2
