REMARK  Name = ZINCpk00000ebpCa.0
REMARK                            x       y       z     vdW  Elec       q    Type
REMARK                         _______ _______ _______ _____ _____    ______ ____
ROOT
ATOM      1  N   LIG    1       -2.728   5.500   0.045  0.00  0.00    -0.730 N 
ATOM      2  H   LIG    1       -1.967   6.101   0.044  0.00  0.00    +0.410 HD
ATOM      3  C   LIG    1       -2.534   4.166   0.037  0.00  0.00    +0.520 C 
ATOM      4  O   LIG    1       -3.485   3.414   0.037  0.00  0.00    -0.510 OA
ENDROOT
BRANCH   1   5
ATOM      5  C   LIG    1       -4.090   6.041   0.054  0.00  0.00    +0.340 C 
BRANCH   5   9
ATOM      6  C   LIG    1       -3.925  10.309   0.077  0.00  0.00    -0.670 A 
ATOM      7  C   LIG    1       -3.957   9.625  -1.124  0.00  0.00    +0.130 A 
ATOM      8  C   LIG    1       -4.010   8.244  -1.131  0.00  0.00    +0.020 A 
ATOM      9  C   LIG    1       -4.031   7.547   0.062  0.00  0.00    -0.050 A 
ATOM     10  C   LIG    1       -4.004   8.231   1.263  0.00  0.00    +0.020 A 
ATOM     11  C   LIG    1       -3.946   9.612   1.270  0.00  0.00    +0.130 A 
BRANCH   6  12
ATOM     12  S   LIG    1       -3.858  12.070   0.086  0.00  0.00    +2.700 S 
ATOM     13  O   LIG    1       -3.304  12.457  -1.164  0.00  0.00    -0.960 OA
ATOM     14  O   LIG    1       -3.292  12.444   1.335  0.00  0.00    -0.960 OA
BRANCH  12  15
ATOM     15  N   LIG    1       -5.420  12.620   0.096  0.00  0.00    -1.250 NA
ATOM     16  H   LIG    1       -6.121  12.098  -0.323  0.00  0.00    +0.420 HD
ATOM     17  H   LIG    1       -5.633  13.465   0.522  0.00  0.00    +0.420 HD
ENDBRANCH  12  15
ENDBRANCH   6  12
ENDBRANCH   5   9
ENDBRANCH   1   5
BRANCH   3  18
ATOM     18  C   LIG    1       -1.133   3.609   0.027  0.00  0.00    +0.250 C 
BRANCH  18  19
ATOM     19  O   LIG    1       -1.190   2.158   0.019  0.00  0.00    -0.330 OA
BRANCH  19  20
ATOM     20  C   LIG    1       -0.018   1.503   0.010  0.00  0.00    +0.460 C 
ATOM     21  O   LIG    1        1.020   2.121   0.004  0.00  0.00    -0.500 OA
BRANCH  20  22
ATOM     22  C   LIG    1        0.002  -0.004   0.002  0.00  0.00    +0.110 C 
BRANCH  22  23
ATOM     23  C   LIG    1        1.451  -0.494  -0.015  0.00  0.00    +0.000 C 
ATOM     24  C   LIG    1        2.117  -0.073  -1.326  0.00  0.00    +0.020 C 
ATOM     25  C   LIG    1        3.567  -0.564  -1.342  0.00  0.00    +0.000 C 
ATOM     26  C   LIG    1        3.590  -2.089  -1.225  0.00  0.00    +0.000 C 
ATOM     27  C   LIG    1        2.924  -2.510   0.086  0.00  0.00    +0.000 C 
ATOM     28  C   LIG    1        1.475  -2.020   0.103  0.00  0.00    +0.030 C 
ENDBRANCH  22  23
ENDBRANCH  20  22
ENDBRANCH  19  20
ENDBRANCH  18  19
ENDBRANCH   3  18
TORSDOF 9
