REMARK  Name = ZINCtj00001UqOnc.0
REMARK                            x       y       z     vdW  Elec       q    Type
REMARK                         _______ _______ _______ _____ _____    ______ ____
ROOT
ATOM      1  C   LIG    1       -2.846  -5.114  -0.912  0.00  0.00    +0.510 C 
ATOM      2  N   LIG    1       -2.944  -6.436  -1.159  0.00  0.00    -0.720 N 
ATOM      3  H   LIG    1       -3.372  -7.019  -0.512  0.00  0.00    +0.400 HD
ATOM      4  O   LIG    1       -2.311  -4.385  -1.719  0.00  0.00    -0.510 OA
ENDROOT
BRANCH   1   5
ATOM      5  C   LIG    1       -3.400  -4.544   0.368  0.00  0.00    +0.140 C 
ATOM      6  C   LIG    1       -2.333  -4.614   1.462  0.00  0.00    +0.080 C 
BRANCH   5  10
ATOM      7  N   LIG    1       -5.618  -0.950   0.183  0.00  0.00    -0.390 N 
ATOM      8  C   LIG    1       -4.522  -1.036   1.157  0.00  0.00    +0.270 C 
ATOM      9  C   LIG    1       -4.183  -2.505   1.416  0.00  0.00    +0.210 C 
ATOM     10  N   LIG    1       -3.789  -3.144   0.152  0.00  0.00    -0.520 NA
ATOM     11  C   LIG    1       -4.867  -3.044  -0.842  0.00  0.00    +0.210 C 
ATOM     12  C   LIG    1       -5.200  -1.569  -1.082  0.00  0.00    +0.280 C 
ATOM     13  H   LIG    1       -6.427  -1.434   0.543  0.00  0.00    +0.420 HD
BRANCH   7  14
ATOM     14  C   LIG    1       -5.955   0.461  -0.051  0.00  0.00    +0.250 C 
BRANCH  14  15
ATOM     15  C   LIG    1       -6.508   1.073   1.237  0.00  0.00    -0.030 C 
ATOM     16  C   LIG    1       -6.776   2.564   1.019  0.00  0.00    +0.070 C 
BRANCH  15  18
ATOM     17  C   LIG    1       -8.301   0.896   2.968  0.00  0.00    +0.040 C 
ATOM     18  C   LIG    1       -7.814   0.371   1.617  0.00  0.00    +0.000 C 
ENDBRANCH  15  18
ENDBRANCH  14  15
ENDBRANCH   7  14
ENDBRANCH   5  10
ENDBRANCH   1   5
BRANCH   2  19
ATOM     19  C   LIG    1       -2.405  -6.991  -2.403  0.00  0.00    +0.390 C 
BRANCH  19  20
ATOM     20  C   LIG    1       -2.642  -8.479  -2.433  0.00  0.00    -0.050 A 
ATOM     21  C   LIG    1       -3.682  -9.121  -3.014  0.00  0.00    +0.170 A 
ATOM     22  N   LIG    1       -3.479 -10.441  -2.795  0.00  0.00    -0.280 N 
ATOM     23  N   LIG    1       -2.392 -10.575  -2.119  0.00  0.00    -0.070 NA
ATOM     24  N   LIG    1       -1.869  -9.424  -1.887  0.00  0.00    -0.250 NA
BRANCH  22  25
ATOM     25  C   LIG    1       -4.351 -11.530  -3.244  0.00  0.00    +0.420 C 
BRANCH  25  26
ATOM     26  C   LIG    1       -3.544 -12.522  -4.041  0.00  0.00    +0.090 A 
ATOM     27  C   LIG    1       -3.540 -13.854  -3.670  0.00  0.00    -0.010 A 
ATOM     28  C   LIG    1       -2.799 -14.760  -4.413  0.00  0.00    +0.070 A 
ATOM     29  C   LIG    1       -2.078 -14.289  -5.500  0.00  0.00    -0.020 A 
ATOM     30  C   LIG    1       -2.127 -12.942  -5.808  0.00  0.00    +0.270 A 
ATOM     31  N   LIG    1       -2.847 -12.110  -5.082  0.00  0.00    -0.470 NA
ENDBRANCH  25  26
ENDBRANCH  22  25
ENDBRANCH  19  20
ENDBRANCH   2  19
TORSDOF 9
