REMARK  Name = ZINCrg000000oVhi.0
REMARK                            x       y       z     vdW  Elec       q    Type
REMARK                         _______ _______ _______ _____ _____    ______ ____
ROOT
ATOM      1  C   LIG    1       -1.087  -0.744  -0.633  0.00  0.00    +0.300 C 
ATOM      2  N   LIG    1        0.005  -0.004   0.003  0.00  0.00    -0.600 N 
ATOM      3  C   LIG    1        1.025  -0.670   0.580  0.00  0.00    +0.510 C 
ATOM      4  O   LIG    1        1.929  -0.057   1.107  0.00  0.00    -0.520 OA
ENDROOT
BRANCH   3   5
ATOM      5  C   LIG    1        1.042  -2.177   0.569  0.00  0.00    +0.360 C 
BRANCH   5   6
ATOM      6  N   LIG    1        2.245  -2.657   1.253  0.00  0.00    -0.570 N 
ATOM      7  C   LIG    1        3.413  -2.896   0.643  0.00  0.00    +0.710 C 
ATOM      8  N   LIG    1        4.361  -3.325   1.500  0.00  0.00    -0.710 N 
ATOM      9  H   LIG    1        5.279  -3.557   1.285  0.00  0.00    +0.440 HD
ATOM     10  C   LIG    1        3.727  -3.379   2.819  0.00  0.00    +0.120 C 
ATOM     11  C   LIG    1        3.753  -4.804   3.388  0.00  0.00    +0.060 C 
ATOM     12  C   LIG    1        4.958  -4.796   4.364  0.00  0.00    +0.030 C 
ATOM     13  C   LIG    1        4.886  -3.380   4.989  0.00  0.00    +0.040 C 
ATOM     14  C   LIG    1        4.444  -2.471   3.821  0.00  0.00    +0.050 C 
ATOM     15  O   LIG    1        3.599  -2.739  -0.547  0.00  0.00    -0.540 OA
ATOM     16  C   LIG    1        2.313  -2.918   2.577  0.00  0.00    +0.540 C 
ATOM     17  O   LIG    1        1.425  -2.806   3.395  0.00  0.00    -0.450 OA
ENDBRANCH   5   6
ENDBRANCH   3   5
BRANCH   2  18
ATOM     18  C   LIG    1       -0.012   1.461   0.013  0.00  0.00    +0.340 C 
BRANCH  18  19
ATOM     19  C   LIG    1       -0.725   1.947   1.249  0.00  0.00    +0.500 C 
ATOM     20  N   LIG    1       -0.862   3.269   1.472  0.00  0.00    -0.670 N 
ATOM     21  H   LIG    1       -0.445   3.908   0.873  0.00  0.00    +0.420 HD
ATOM     22  O   LIG    1       -1.175   1.148   2.043  0.00  0.00    -0.500 OA
BRANCH  20  23
ATOM     23  C   LIG    1       -1.607   3.720   2.567  0.00  0.00    +0.170 A 
ATOM     24  C   LIG    1       -2.356   4.885   2.466  0.00  0.00    -0.030 A 
ATOM     25  C   LIG    1       -3.096   5.325   3.547  0.00  0.00    +0.070 A 
ATOM     26  C   LIG    1       -3.081   4.615   4.732  0.00  0.00    -0.030 A 
ATOM     27  C   LIG    1       -2.330   3.456   4.839  0.00  0.00    +0.120 A 
ATOM     28  F   LIG    1       -2.319   2.763   5.999  0.00  0.00    -0.130 F 
ATOM     29  C   LIG    1       -1.593   3.007   3.758  0.00  0.00    -0.010 A 
ENDBRANCH  20  23
ENDBRANCH  18  19
ENDBRANCH   2  18
TORSDOF 5
