REMARK  Name = ZINCpe000000TAIH.0
REMARK                            x       y       z     vdW  Elec       q    Type
REMARK                         _______ _______ _______ _____ _____    ______ ____
ROOT
ATOM      1  N   LIG    1        3.775  -4.546  -1.348  0.00  0.00    -0.520 NA
ATOM      2  C   LIG    1        4.981  -3.708  -1.379  0.00  0.00    +0.180 C 
ATOM      3  C   LIG    1        4.981  -2.772  -0.166  0.00  0.00    +0.280 C 
ATOM      4  N   LIG    1        3.710  -2.032  -0.147  0.00  0.00    -0.610 N 
ATOM      5  C   LIG    1        2.458  -2.797  -0.245  0.00  0.00    +0.300 C 
ATOM      6  C   LIG    1        3.693  -0.689  -0.037  0.00  0.00    +0.560 C 
ATOM      7  O   LIG    1        2.634  -0.099   0.049  0.00  0.00    -0.520 OA
ATOM      8  C   LIG    1        2.557  -3.732  -1.461  0.00  0.00    +0.180 C 
ENDROOT
BRANCH   6   9
ATOM      9  C   LIG    1        4.962   0.067  -0.023  0.00  0.00    -0.160 A 
ATOM     10  C   LIG    1        5.975  -0.280   0.874  0.00  0.00    +0.080 A 
ATOM     11  C   LIG    1        7.157   0.430   0.883  0.00  0.00    +0.010 A 
ATOM     12  C   LIG    1        7.343   1.484   0.006  0.00  0.00    +0.070 A 
ATOM     13  C   LIG    1        6.347   1.835  -0.886  0.00  0.00    -0.020 A 
ATOM     14  C   LIG    1        5.156   1.133  -0.907  0.00  0.00    +0.150 A 
ATOM     15  F   LIG    1        4.182   1.476  -1.778  0.00  0.00    -0.120 F 
ENDBRANCH   6   9
BRANCH   1  16
ATOM     16  C   LIG    1        3.820  -5.574  -2.396  0.00  0.00    +0.190 C 
ATOM     17  C   LIG    1        3.788  -4.902  -3.771  0.00  0.00    +0.030 C 
BRANCH  16  23
ATOM     18  N   LIG    1        1.229  -9.354  -3.849  0.00  0.00    -0.740 N 
ATOM     19  H   LIG    1        1.874  -9.503  -4.558  0.00  0.00    +0.400 HD
ATOM     20  C   LIG    1        1.397  -8.329  -2.989  0.00  0.00    +0.690 C 
ATOM     21  N   LIG    1        2.462  -7.512  -3.115  0.00  0.00    -0.690 N 
ATOM     22  H   LIG    1        3.107  -7.661  -3.824  0.00  0.00    +0.410 HD
ATOM     23  C   LIG    1        2.630  -6.487  -2.256  0.00  0.00    +0.520 C 
ATOM     24  O   LIG    1        1.823  -6.301  -1.370  0.00  0.00    -0.440 OA
ATOM     25  O   LIG    1        0.589  -8.142  -2.101  0.00  0.00    -0.530 OA
BRANCH  18  27
ATOM     26  C   LIG    1        0.119 -11.312  -4.804  0.00  0.00    +0.030 C 
ATOM     27  C   LIG    1        0.072 -10.242  -3.712  0.00  0.00    +0.270 C 
ENDBRANCH  18  27
ENDBRANCH  16  23
ENDBRANCH   1  16
TORSDOF 4
