REMARK  Name = ZINCvU0000000HDe.0
REMARK                            x       y       z     vdW  Elec       q    Type
REMARK                         _______ _______ _______ _____ _____    ______ ____
ROOT
ATOM      1  C   LIG    1        2.439  -0.240  -0.048  0.00  0.00    +0.550 C 
ATOM      2  N   LIG    1        2.417   1.103  -0.159  0.00  0.00    -0.670 N 
ATOM      3  H   LIG    1        3.249   1.598  -0.221  0.00  0.00    +0.420 HD
ATOM      4  O   LIG    1        1.399  -0.865  -0.045  0.00  0.00    -0.490 OA
ENDROOT
BRANCH   2   5
ATOM      5  C   LIG    1        1.195   1.784  -0.185  0.00  0.00    +0.250 A 
ATOM      6  C   LIG    1        0.089   1.204  -0.793  0.00  0.00    +0.060 A 
ATOM      7  C   LIG    1       -1.115   1.881  -0.822  0.00  0.00    +0.170 A 
ATOM      8  C   LIG    1       -1.222   3.129  -0.236  0.00  0.00    -0.060 A 
ATOM      9  C   LIG    1       -0.123   3.709   0.369  0.00  0.00    +0.190 A 
ATOM     10  C   LIG    1        1.085   3.040   0.396  0.00  0.00    -0.220 A 
BRANCH  10  11
ATOM     11  C   LIG    1        2.283   3.673   1.056  0.00  0.00    +0.520 C 
ATOM     12  F   LIG    1        3.308   3.825   0.115  0.00  0.00    -0.170 F 
ATOM     13  F   LIG    1        2.727   2.855   2.100  0.00  0.00    -0.170 F 
ATOM     14  F   LIG    1        1.927   4.927   1.564  0.00  0.00    -0.160 F 
ENDBRANCH  10  11
BRANCH   8  15
ATOM     15  N   LIG    1       -2.516   3.848  -0.264  0.00  0.00    +0.030 N 
ATOM     16  O   LIG    1       -3.485   3.338  -0.796  0.00  0.00    -0.150 OA
ATOM     17  O   LIG    1       -2.610   4.950   0.246  0.00  0.00    -0.150 OA
ENDBRANCH   8  15
ENDBRANCH   2   5
BRANCH   1  18
ATOM     18  C   LIG    1        3.754  -0.965   0.072  0.00  0.00    +0.120 C 
BRANCH  18  19
ATOM     19  S   LIG    1        3.451  -2.749   0.205  0.00  0.00    +0.110 S 
BRANCH  19  23
ATOM     20  C   LIG    1        7.183  -4.745   0.540  0.00  0.00    +0.310 A 
ATOM     21  N   LIG    1        7.337  -3.462   0.442  0.00  0.00    -0.340 NA
ATOM     22  N   LIG    1        6.175  -2.730   0.324  0.00  0.00    -0.260 NA
ATOM     23  C   LIG    1        5.076  -3.418   0.335  0.00  0.00    -0.010 A 
ATOM     24  S   LIG    1        5.466  -5.127   0.493  0.00  0.00    +0.110 S 
BRANCH  20  25
ATOM     25  N   LIG    1        8.212  -5.672   0.663  0.00  0.00    -0.620 N 
ATOM     26  H   LIG    1        8.012  -6.621   0.665  0.00  0.00    +0.430 HD
BRANCH  25  31
ATOM     27  C   LIG    1       13.579  -3.905   1.156  0.00  0.00    +0.090 C 
ATOM     28  C   LIG    1       12.152  -4.375   1.025  0.00  0.00    -0.100 A 
ATOM     29  C   LIG    1       11.740  -5.519   1.682  0.00  0.00    +0.030 A 
ATOM     30  C   LIG    1       10.434  -5.952   1.565  0.00  0.00    -0.010 A 
ATOM     31  C   LIG    1        9.534  -5.236   0.785  0.00  0.00    +0.140 A 
ATOM     32  C   LIG    1        9.953  -4.090   0.122  0.00  0.00    +0.020 A 
ATOM     33  C   LIG    1       11.259  -3.659   0.248  0.00  0.00    +0.030 A 
ENDBRANCH  25  31
ENDBRANCH  20  25
ENDBRANCH  19  23
ENDBRANCH  18  19
ENDBRANCH   1  18
TORSDOF 8
