REMARK  Name = ZINCvU00000008Zk.0
REMARK                            x       y       z     vdW  Elec       q    Type
REMARK                         _______ _______ _______ _____ _____    ______ ____
ROOT
ATOM      1  N   LIG    1        3.411   7.215  -0.076  0.00  0.00    -0.610 N 
ATOM      2  C   LIG    1        4.666   6.731   0.010  0.00  0.00    +0.520 C 
ATOM      3  O   LIG    1        4.957   5.954   0.894  0.00  0.00    -0.530 OA
ATOM      4  C   LIG    1        3.059   8.154  -1.144  0.00  0.00    +0.270 C 
ENDROOT
BRANCH   1   5
ATOM      5  C   LIG    1        2.399   6.803   0.900  0.00  0.00    +0.380 C 
BRANCH   5  12
ATOM      6  C   LIG    1       -0.213   6.762  -0.895  0.00  0.00    +0.160 C 
ATOM      7  C   LIG    1        0.535   5.553  -0.395  0.00  0.00    +0.090 A 
ATOM      8  N   LIG    1        0.222   4.305  -0.632  0.00  0.00    -0.290 NA
ATOM      9  N   LIG    1        1.161   3.488   0.009  0.00  0.00    -0.320 N 
ATOM     10  C   LIG    1        2.054   4.290   0.632  0.00  0.00    +0.120 A 
ATOM     11  C   LIG    1        3.241   3.839   1.443  0.00  0.00    +0.160 C 
ATOM     12  C   LIG    1        1.689   5.572   0.397  0.00  0.00    -0.260 A 
BRANCH   9  13
ATOM     13  C   LIG    1        1.177   2.086   0.002  0.00  0.00    +0.150 A 
ATOM     14  C   LIG    1       -0.017   1.377   0.010  0.00  0.00    +0.020 A 
ATOM     15  C   LIG    1        0.002  -0.004   0.002  0.00  0.00    +0.030 A 
ATOM     16  C   LIG    1        1.208  -0.680  -0.013  0.00  0.00    +0.010 A 
ATOM     17  C   LIG    1        2.398   0.023  -0.020  0.00  0.00    +0.030 A 
ATOM     18  C   LIG    1        2.386   1.404  -0.013  0.00  0.00    +0.000 A 
ENDBRANCH   9  13
ENDBRANCH   5  12
ENDBRANCH   1   5
BRANCH   2  19
ATOM     19  C   LIG    1        5.707   7.156  -0.994  0.00  0.00    +0.060 C 
BRANCH  19  20
ATOM     20  C   LIG    1        7.035   6.467  -0.673  0.00  0.00    +0.170 C 
BRANCH  20  21
ATOM     21  C   LIG    1        8.076   6.891  -1.677  0.00  0.00    -0.000 A 
ATOM     22  C   LIG    1        8.898   7.951  -1.555  0.00  0.00    -0.050 A 
ATOM     23  C   LIG    1        9.706   7.982  -2.709  0.00  0.00    -0.040 A 
ATOM     24  C   LIG    1        9.328   6.928  -3.480  0.00  0.00    +0.030 A 
ATOM     25  O   LIG    1        8.342   6.272  -2.839  0.00  0.00    -0.170 OA
BRANCH  24  26
ATOM     26  C   LIG    1        9.903   6.563  -4.792  0.00  0.00    -0.020 A 
ATOM     27  C   LIG    1       10.927   7.332  -5.347  0.00  0.00    +0.030 A 
ATOM     28  C   LIG    1       11.462   6.982  -6.569  0.00  0.00    +0.010 A 
ATOM     29  C   LIG    1       10.980   5.877  -7.249  0.00  0.00    +0.020 A 
ATOM     30  C   LIG    1        9.961   5.114  -6.707  0.00  0.00    +0.010 A 
ATOM     31  C   LIG    1        9.420   5.450  -5.483  0.00  0.00    +0.030 A 
ENDBRANCH  24  26
ENDBRANCH  20  21
ENDBRANCH  19  20
ENDBRANCH   2  19
TORSDOF 7
