REMARK  Name = ZINCrD00000hQ79g.0
REMARK                            x       y       z     vdW  Elec       q    Type
REMARK                         _______ _______ _______ _____ _____    ______ ____
ROOT
ATOM      1  C   LIG    1        1.065  -0.681   3.508  0.00  0.00    +0.020 C 
ATOM      2  C   LIG    1        1.667  -1.205   2.203  0.00  0.00    +0.200 C 
ATOM      3  C   LIG    1        2.861  -0.333   1.803  0.00  0.00    +0.150 C 
ATOM      4  N   LIG    1        2.394   1.037   1.542  0.00  0.00    -0.500 NA
ATOM      5  C   LIG    1        1.382   1.048   0.475  0.00  0.00    +0.180 C 
ATOM      6  C   LIG    1        0.204   0.161   0.888  0.00  0.00    +0.220 C 
ATOM      7  O   LIG    1        0.681  -1.157   1.168  0.00  0.00    -0.370 OA
ENDROOT
BRANCH   6   8
ATOM      8  C   LIG    1       -0.800   0.105  -0.234  0.00  0.00    -0.090 A 
ATOM      9  C   LIG    1       -0.636  -0.803  -1.263  0.00  0.00    +0.080 A 
ATOM     10  C   LIG    1       -1.560  -0.859  -2.290  0.00  0.00    -0.020 A 
ATOM     11  C   LIG    1       -2.643   0.003  -2.294  0.00  0.00    +0.100 A 
ATOM     12  C   LIG    1       -2.803   0.916  -1.266  0.00  0.00    -0.020 A 
ATOM     13  F   LIG    1       -3.544  -0.048  -3.300  0.00  0.00    -0.140 F 
ATOM     14  C   LIG    1       -1.882   0.966  -0.237  0.00  0.00    +0.050 A 
ENDBRANCH   6   8
BRANCH   4  15
ATOM     15  C   LIG    1        3.519   1.922   1.210  0.00  0.00    +0.180 C 
ATOM     16  C   LIG    1        2.981   3.274   0.737  0.00  0.00    +0.070 C 
BRANCH  15  17
ATOM     17  C   LIG    1        4.343   1.297   0.114  0.00  0.00    +0.490 C 
ATOM     18  N   LIG    1        5.664   1.553   0.035  0.00  0.00    -0.720 N 
ATOM     19  H   LIG    1        6.084   2.139   0.683  0.00  0.00    +0.410 HD
ATOM     20  O   LIG    1        3.817   0.564  -0.698  0.00  0.00    -0.520 OA
BRANCH  18  21
ATOM     21  C   LIG    1        6.465   0.946  -1.031  0.00  0.00    +0.280 C 
ATOM     22  C   LIG    1        6.389  -0.579  -0.921  0.00  0.00    +0.040 C 
ATOM     23  C   LIG    1        7.226  -1.213  -2.034  0.00  0.00    +0.020 C 
ATOM     24  C   LIG    1        8.682  -0.763  -1.897  0.00  0.00    +0.020 C 
ATOM     25  C   LIG    1        8.757   0.761  -2.007  0.00  0.00    +0.020 C 
ATOM     26  C   LIG    1        7.921   1.395  -0.894  0.00  0.00    +0.050 C 
BRANCH  21  27
ATOM     27  C   LIG    1        5.941   1.369  -2.340  0.00  0.00    +0.210 C 
ATOM     28  N   LIG    1        5.538   1.696  -3.351  0.00  0.00    -0.410 NA
ENDBRANCH  21  27
ENDBRANCH  18  21
ENDBRANCH  15  17
ENDBRANCH   4  15
TORSDOF 5
