REMARK  Name = ZINCqH0000033MwJ.0
REMARK                            x       y       z     vdW  Elec       q    Type
REMARK                         _______ _______ _______ _____ _____    ______ ____
ROOT
ATOM      1  N   LIG    1        2.199   0.884  -0.367  0.00  0.00    -0.570 N 
ATOM      2  C   LIG    1        1.373  -0.297  -0.647  0.00  0.00    +0.300 C 
ATOM      3  C   LIG    1        0.002  -0.004   0.002  0.00  0.00    +0.140 C 
ATOM      4  C   LIG    1       -0.019   1.542   0.011  0.00  0.00    +0.090 C 
ATOM      5  C   LIG    1        1.442   1.933  -0.001  0.00  0.00    +0.530 C 
ATOM      6  O   LIG    1        1.870   3.033   0.278  0.00  0.00    -0.510 OA
ENDROOT
BRANCH   1  12
ATOM      7  C   LIG    1        4.384   0.597   0.636  0.00  0.00    +0.140 A 
ATOM      8  C   LIG    1        5.764   0.623   0.528  0.00  0.00    -0.080 A 
ATOM      9  C   LIG    1        6.358   0.973  -0.671  0.00  0.00    +0.060 A 
ATOM     10  C   LIG    1        5.577   1.293  -1.766  0.00  0.00    -0.020 A 
ATOM     11  C   LIG    1        4.199   1.264  -1.668  0.00  0.00    +0.060 A 
ATOM     12  C   LIG    1        3.596   0.913  -0.469  0.00  0.00    +0.100 A 
BRANCH   7  13
ATOM     13  O   LIG    1        3.798   0.258   1.815  0.00  0.00    -0.310 OA
BRANCH  13  15
ATOM     14  C   LIG    1        3.835  -0.408   4.138  0.00  0.00    +0.070 C 
ATOM     15  C   LIG    1        4.668  -0.054   2.905  0.00  0.00    +0.170 C 
ENDBRANCH  13  15
ENDBRANCH   7  13
ENDBRANCH   1  12
BRANCH   3  16
ATOM     16  C   LIG    1       -1.121  -0.554  -0.839  0.00  0.00    +0.180 A 
ATOM     17  N   LIG    1       -2.073  -1.362  -0.438  0.00  0.00    -0.460 NA
ATOM     18  C   LIG    1       -2.841  -1.582  -1.521  0.00  0.00    +0.180 A 
ATOM     19  N   LIG    1       -2.326  -0.909  -2.506  0.00  0.00    -0.380 NA
ATOM     20  O   LIG    1       -1.341  -0.307  -2.134  0.00  0.00    +0.080 OA
BRANCH  18  21
ATOM     21  C   LIG    1       -4.072  -2.449  -1.580  0.00  0.00    +0.160 C 
BRANCH  21  22
ATOM     22  C   LIG    1       -5.306  -1.606  -1.251  0.00  0.00    -0.020 C 
ATOM     23  C   LIG    1       -5.259  -1.154   0.223  0.00  0.00    +0.010 C 
ATOM     24  C   LIG    1       -6.737  -1.218   0.686  0.00  0.00    +0.010 C 
ATOM     25  C   LIG    1       -7.265  -2.486  -0.031  0.00  0.00    +0.010 C 
ATOM     26  C   LIG    1       -6.580  -2.452  -1.413  0.00  0.00    +0.020 C 
ENDBRANCH  21  22
ENDBRANCH  18  21
ENDBRANCH   3  16
TORSDOF 6
