REMARK  Name = ZINCrH000004mmNS.0
REMARK                            x       y       z     vdW  Elec       q    Type
REMARK                         _______ _______ _______ _____ _____    ______ ____
ROOT
ATOM      1  C   LIG    1       -1.310   2.116   0.014  0.00  0.00    -0.130 A 
ATOM      2  C   LIG    1       -1.339   3.515   0.022  0.00  0.00    +0.100 A 
ATOM      3  C   LIG    1       -2.568   4.146   0.033  0.00  0.00    -0.060 A 
ATOM      4  C   LIG    1       -3.727   3.377   0.035  0.00  0.00    +0.370 A 
ATOM      5  N   LIG    1       -3.665   2.054   0.027  0.00  0.00    -0.470 NA
ATOM      6  C   LIG    1       -2.513   1.414   0.012  0.00  0.00    +0.310 A 
ENDROOT
BRANCH   1  10
ATOM      7  C   LIG    1        2.401   0.037  -0.032  0.00  0.00    +0.140 A 
ATOM      8  C   LIG    1        2.384   1.424  -0.024  0.00  0.00    -0.050 A 
ATOM      9  C   LIG    1        1.182   2.101  -0.007  0.00  0.00    +0.060 A 
ATOM     10  C   LIG    1       -0.017   1.391   0.002  0.00  0.00    -0.060 A 
ATOM     11  C   LIG    1        0.003  -0.003  -0.006  0.00  0.00    +0.070 A 
ATOM     12  C   LIG    1        1.208  -0.675  -0.023  0.00  0.00    -0.060 A 
ATOM     13 CL   LIG    1        1.233  -2.411  -0.032  0.00  0.00    -0.050 Cl
BRANCH   7  15
ATOM     14  C   LIG    1        4.775   0.167  -0.057  0.00  0.00    +0.240 C 
ATOM     15  O   LIG    1        3.587  -0.627  -0.048  0.00  0.00    -0.300 OA
ENDBRANCH   7  15
ENDBRANCH   1  10
BRANCH   4  16
ATOM     16  N   LIG    1       -4.970   4.006   0.046  0.00  0.00    -0.660 N 
ATOM     17  H   LIG    1       -5.024   4.972   0.126  0.00  0.00    +0.410 HD
ATOM     18  C   LIG    1       -6.097   3.275  -0.055  0.00  0.00    +0.590 C 
ATOM     19  O   LIG    1       -6.034   2.059  -0.062  0.00  0.00    -0.460 OA
BRANCH  18  20
ATOM     20  C   LIG    1       -7.397   3.942  -0.156  0.00  0.00    -0.300 A 
ATOM     21  C   LIG    1       -8.654   3.317  -0.267  0.00  0.00    +0.330 A 
ATOM     22  N   LIG    1       -9.022   2.036  -0.310  0.00  0.00    -0.440 NA
ATOM     23  C   LIG    1      -10.290   1.701  -0.419  0.00  0.00    +0.380 A 
ATOM     24  C   LIG    1      -11.274   2.694  -0.491  0.00  0.00    -0.040 A 
ATOM     25  C   LIG    1      -10.906   4.000  -0.447  0.00  0.00    +0.360 A 
ATOM     26  N   LIG    1       -9.585   4.315  -0.334  0.00  0.00    -0.310 N 
ATOM     27  N   LIG    1       -8.914   5.540  -0.266  0.00  0.00    -0.310 NA
ATOM     28  C   LIG    1       -7.629   5.330  -0.155  0.00  0.00    +0.340 A 
ENDBRANCH  18  20
ENDBRANCH   4  16
TORSDOF 4
