REMARK  Name = ZINCpe00000VVGXH.0
REMARK                            x       y       z     vdW  Elec       q    Type
REMARK                         _______ _______ _______ _____ _____    ______ ____
ROOT
ATOM      1  N   LIG    1        1.362   1.593  -0.002  0.00  0.00    -0.730 N 
ATOM      2  H   LIG    1        1.583   2.404   0.482  0.00  0.00    +0.400 HD
ATOM      3  C   LIG    1        2.318   0.933  -0.685  0.00  0.00    +0.520 C 
ATOM      4  O   LIG    1        2.042  -0.081  -1.290  0.00  0.00    -0.510 OA
ENDROOT
BRANCH   1   6
ATOM      5  C   LIG    1       -0.753   1.593  -1.232  0.00  0.00    +0.040 C 
ATOM      6  C   LIG    1       -0.013   1.086   0.008  0.00  0.00    +0.290 C 
BRANCH   6   7
ATOM      7  C   LIG    1       -0.718   1.572   1.248  0.00  0.00    -0.090 A 
ATOM      8  C   LIG    1       -0.510   2.861   1.699  0.00  0.00    +0.020 A 
ATOM      9  C   LIG    1       -1.159   3.312   2.834  0.00  0.00    +0.030 A 
ATOM     10  C   LIG    1       -2.011   2.468   3.528  0.00  0.00    +0.050 A 
ATOM     11  O   LIG    1       -2.636   2.923   4.649  0.00  0.00    -0.310 OA
ATOM     12  C   LIG    1       -3.769   2.175   5.102  0.00  0.00    +0.220 C 
ATOM     13  C   LIG    1       -3.401   0.685   5.081  0.00  0.00    +0.220 C 
ATOM     14  O   LIG    1       -3.057   0.327   3.738  0.00  0.00    -0.310 OA
ATOM     15  C   LIG    1       -2.218   1.170   3.076  0.00  0.00    +0.060 A 
ATOM     16  C   LIG    1       -1.568   0.725   1.935  0.00  0.00    +0.040 A 
ENDBRANCH   6   7
ENDBRANCH   1   6
BRANCH   3  17
ATOM     17  C   LIG    1        3.732   1.454  -0.695  0.00  0.00    +0.220 C 
BRANCH  17  18
ATOM     18  N   LIG    1        4.577   0.564  -1.503  0.00  0.00    -0.510 NA
ATOM     19  C   LIG    1        4.697  -0.759  -0.875  0.00  0.00    +0.210 C 
BRANCH  18  20
ATOM     20  C   LIG    1        5.900   1.159  -1.734  0.00  0.00    +0.220 C 
BRANCH  20  21
ATOM     21  C   LIG    1        6.646   0.343  -2.758  0.00  0.00    +0.520 C 
ATOM     22  N   LIG    1        7.890   0.704  -3.130  0.00  0.00    -0.710 N 
ATOM     23  H   LIG    1        8.305   1.488  -2.739  0.00  0.00    +0.400 HD
ATOM     24  O   LIG    1        6.127  -0.638  -3.247  0.00  0.00    -0.510 OA
BRANCH  22  25
ATOM     25  C   LIG    1        8.615  -0.089  -4.125  0.00  0.00    +0.220 C 
ATOM     26  C   LIG    1       10.090  -0.392  -3.850  0.00  0.00    +0.010 C 
ATOM     27  C   LIG    1        9.705   0.617  -4.934  0.00  0.00    +0.010 C 
ENDBRANCH  22  25
ENDBRANCH  20  21
ENDBRANCH  18  20
ENDBRANCH  17  18
ENDBRANCH   3  17
TORSDOF 7
