REMARK  Name = ZINCvU0000000E6q.0
REMARK                            x       y       z     vdW  Elec       q    Type
REMARK                         _______ _______ _______ _____ _____    ______ ____
ROOT
ATOM      1  C   LIG    1       -1.363   4.137  -2.174  0.00  0.00    +0.510 C 
ATOM      2  N   LIG    1       -1.519   3.128  -1.294  0.00  0.00    -0.620 N 
ATOM      3  C   LIG    1       -1.221   1.740  -1.676  0.00  0.00    +0.290 C 
ATOM      4  C   LIG    1       -0.037   1.247  -0.838  0.00  0.00    +0.110 C 
ATOM      5  C   LIG    1       -0.254   1.642   0.608  0.00  0.00    -0.170 A 
ATOM      6  C   LIG    1       -1.113   2.590   1.030  0.00  0.00    -0.120 A 
ATOM      7  C   LIG    1       -1.119   2.768   2.409  0.00  0.00    +0.030 A 
ATOM      8  C   LIG    1       -0.294   1.982   3.094  0.00  0.00    -0.040 A 
ATOM      9  S   LIG    1        0.574   0.931   1.986  0.00  0.00    +0.110 S 
ATOM     10  C   LIG    1       -1.993   3.387   0.073  0.00  0.00    +0.390 C 
ATOM     11  O   LIG    1       -1.712   5.260  -1.877  0.00  0.00    -0.500 OA
ENDROOT
BRANCH  10  12
ATOM     12  C   LIG    1       -1.883   4.858   0.382  0.00  0.00    -0.140 A 
ATOM     13  C   LIG    1       -2.896   5.644   0.749  0.00  0.00    +0.000 A 
ATOM     14  C   LIG    1       -2.554   6.966   0.982  0.00  0.00    +0.000 A 
ATOM     15  C   LIG    1       -1.263   7.252   0.803  0.00  0.00    -0.060 A 
ATOM     16  S   LIG    1       -0.398   5.798   0.321  0.00  0.00    +0.130 S 
ENDBRANCH  10  12
BRANCH   1  17
ATOM     17  C   LIG    1       -0.753   3.869  -3.526  0.00  0.00    +0.070 C 
BRANCH  17  18
ATOM     18  C   LIG    1       -0.690   5.173  -4.324  0.00  0.00    +0.070 C 
BRANCH  18  20
ATOM     19  O   LIG    1        0.268   3.782  -5.972  0.00  0.00    -0.450 OA
ATOM     20  C   LIG    1       -0.081   4.906  -5.676  0.00  0.00    +0.400 C 
BRANCH  20  21
ATOM     21  C   LIG    1        0.089   6.005  -6.635  0.00  0.00    -0.170 A 
ATOM     22  C   LIG    1       -0.313   7.301  -6.295  0.00  0.00    +0.090 A 
ATOM     23  C   LIG    1       -0.152   8.332  -7.195  0.00  0.00    +0.010 A 
ATOM     24  C   LIG    1        0.410   8.084  -8.440  0.00  0.00    +0.100 A 
ATOM     25  O   LIG    1        0.571   9.101  -9.332  0.00  0.00    -0.320 OA
ATOM     26  C   LIG    1       -0.250   9.044 -10.500  0.00  0.00    +0.230 C 
ATOM     27  C   LIG    1        0.386   8.162 -11.564  0.00  0.00    -0.010 C 
ATOM     28  C   LIG    1        0.482   6.709 -11.129  0.00  0.00    +0.230 C 
ATOM     29  O   LIG    1        1.364   6.571 -10.013  0.00  0.00    -0.320 OA
ATOM     30  C   LIG    1        0.813   6.798  -8.785  0.00  0.00    +0.050 A 
ATOM     31  C   LIG    1        0.661   5.759  -7.891  0.00  0.00    +0.090 A 
ENDBRANCH  20  21
ENDBRANCH  18  20
ENDBRANCH  17  18
ENDBRANCH   1  17
TORSDOF 5
