REMARK  Name = ZINCrH000004rOJR.0
REMARK                            x       y       z     vdW  Elec       q    Type
REMARK                         _______ _______ _______ _____ _____    ______ ____
ROOT
ATOM      1  C   LIG    1       -1.454   3.517   3.131  0.00  0.00    -0.150 A 
ATOM      2  C   LIG    1       -0.727   3.138   2.001  0.00  0.00    +0.170 A 
ATOM      3  C   LIG    1       -0.930   1.894   1.440  0.00  0.00    -0.690 A 
ATOM      4  C   LIG    1       -1.843   1.018   1.999  0.00  0.00    +0.180 A 
ATOM      5  C   LIG    1       -2.564   1.384   3.122  0.00  0.00    +0.010 A 
ATOM      6  C   LIG    1       -2.376   2.628   3.691  0.00  0.00    +0.060 A 
ATOM      7 CL   LIG    1       -3.280   3.086   5.100  0.00  0.00    -0.010 Cl
ENDROOT
BRANCH   1  10
ATOM      8  N   LIG    1       -0.357   5.704   3.191  0.00  0.00    -0.720 N 
ATOM      9  H   LIG    1        0.147   5.444   2.404  0.00  0.00    +0.400 HD
ATOM     10  C   LIG    1       -1.246   4.849   3.735  0.00  0.00    +0.550 C 
ATOM     11  O   LIG    1       -1.878   5.175   4.721  0.00  0.00    -0.510 OA
BRANCH   8  12
ATOM     12  C   LIG    1       -0.151   7.025   3.790  0.00  0.00    +0.320 C 
BRANCH  12  18
ATOM     13  C   LIG    1        1.036  10.134   0.052  0.00  0.00    +0.090 C 
ATOM     14  C   LIG    1        1.455   9.266   1.211  0.00  0.00    -0.090 A 
ATOM     15  C   LIG    1        2.791   9.162   1.548  0.00  0.00    +0.010 A 
ATOM     16  C   LIG    1        3.176   8.366   2.611  0.00  0.00    +0.010 A 
ATOM     17  C   LIG    1        2.223   7.678   3.339  0.00  0.00    +0.010 A 
ATOM     18  C   LIG    1        0.887   7.779   2.999  0.00  0.00    -0.110 A 
ATOM     19  C   LIG    1        0.503   8.575   1.936  0.00  0.00    +0.020 A 
ENDBRANCH  12  18
ENDBRANCH   8  12
ENDBRANCH   1  10
BRANCH   3  20
ATOM     20  S   LIG    1       -0.017   1.417   0.010  0.00  0.00    +2.690 S 
ATOM     21  O   LIG    1        1.162   2.210   0.003  0.00  0.00    -0.950 OA
ATOM     22  O   LIG    1        0.002  -0.004   0.002  0.00  0.00    -0.950 OA
BRANCH  20  23
ATOM     23  N   LIG    1       -0.900   1.880  -1.312  0.00  0.00    -0.990 NA
ATOM     24  C   LIG    1       -1.882   0.967  -1.914  0.00  0.00    +0.290 C 
ATOM     25  C   LIG    1       -3.234   1.691  -2.000  0.00  0.00    +0.010 C 
ATOM     26  C   LIG    1       -3.054   3.008  -2.759  0.00  0.00    +0.020 C 
ATOM     27  C   LIG    1       -2.074   3.906  -1.999  0.00  0.00    +0.010 C 
ATOM     28  C   LIG    1       -0.713   3.209  -1.910  0.00  0.00    +0.290 C 
ENDBRANCH  20  23
ENDBRANCH   3  20
TORSDOF 5
