REMARK  Name = ZINCrH000004jYwg.0
REMARK                            x       y       z     vdW  Elec       q    Type
REMARK                         _______ _______ _______ _____ _____    ______ ____
ROOT
ATOM      1  C   LIG    1        0.002  -0.004   0.002  0.00  0.00    +0.150 C 
ENDROOT
BRANCH   1   2
ATOM      2  C   LIG    1        0.707  -0.490  -1.238  0.00  0.00    +0.450 A 
ATOM      3  N   LIG    1        1.168   0.392  -2.081  0.00  0.00    -0.580 NA
ATOM      4  C   LIG    1        1.810   0.020  -3.201  0.00  0.00    +0.540 A 
ATOM      5  C   LIG    1        1.978  -1.421  -3.474  0.00  0.00    -0.210 A 
ATOM      6  C   LIG    1        1.467  -2.309  -2.550  0.00  0.00    +0.050 A 
ATOM      7  S   LIG    1        1.780  -3.954  -3.073  0.00  0.00    +0.200 S 
ATOM      8  C   LIG    1        2.599  -3.410  -4.537  0.00  0.00    -0.220 A 
ATOM      9  C   LIG    1        3.290  -4.024  -5.750  0.00  0.00    +0.130 C 
ATOM     10  C   LIG    1        4.129  -2.877  -6.349  0.00  0.00    +0.050 C 
ATOM     11  C   LIG    1        3.337  -1.639  -5.883  0.00  0.00    +0.110 C 
ATOM     12  C   LIG    1        2.624  -2.086  -4.607  0.00  0.00    -0.050 A 
ATOM     13  O   LIG    1        2.241   0.856  -3.980  0.00  0.00    -0.480 OA
ATOM     14  N   LIG    1        0.831  -1.812  -1.431  0.00  0.00    -0.590 N 
ATOM     15  H   LIG    1        0.467  -2.428  -0.776  0.00  0.00    +0.430 HD
ENDBRANCH   1   2
BRANCH   1  16
ATOM     16  C   LIG    1       -0.019   1.526   0.010  0.00  0.00    +0.100 C 
BRANCH  16  19
ATOM     17  C   LIG    1       -0.329   4.298   0.508  0.00  0.00    +0.280 C 
ATOM     18  N   LIG    1       -0.863   3.334   1.472  0.00  0.00    -0.610 N 
ATOM     19  C   LIG    1       -0.724   2.012   1.250  0.00  0.00    +0.520 C 
ATOM     20  O   LIG    1       -1.167   1.213   2.049  0.00  0.00    -0.540 OA
BRANCH  18  21
ATOM     21  C   LIG    1       -1.549   3.806   2.677  0.00  0.00    +0.340 C 
BRANCH  21  22
ATOM     22  C   LIG    1       -0.547   3.981   3.789  0.00  0.00    -0.100 A 
ATOM     23  C   LIG    1       -0.273   2.930   4.644  0.00  0.00    +0.050 A 
ATOM     24  C   LIG    1        0.651   3.088   5.661  0.00  0.00    +0.020 A 
ATOM     25  C   LIG    1        1.292   4.301   5.830  0.00  0.00    +0.020 A 
ATOM     26  C   LIG    1        1.013   5.355   4.979  0.00  0.00    -0.040 A 
ATOM     27 CL   LIG    1        1.818   6.878   5.191  0.00  0.00    -0.070 Cl
ATOM     28  C   LIG    1        0.093   5.195   3.958  0.00  0.00    +0.030 A 
ENDBRANCH  21  22
ENDBRANCH  18  21
ENDBRANCH  16  19
ENDBRANCH   1  16
TORSDOF 5
