REMARK  Name = ZINCkj00000hbrUq.1
REMARK                            x       y       z     vdW  Elec       q    Type
REMARK                         _______ _______ _______ _____ _____    ______ ____
ROOT
ATOM      1  C   LIG    1       -2.458   0.250   3.708  0.00  0.00    +0.330 C 
ATOM      2  N   LIG    1       -3.361   0.164   2.551  0.00  0.00    -0.390 N 
ATOM      3  H   LIG    1       -4.081   0.866   2.634  0.00  0.00    +0.420 HD
ENDROOT
BRANCH   2   4
ATOM      4  C   LIG    1       -3.977  -1.169   2.509  0.00  0.00    +0.280 C 
BRANCH   4   5
ATOM      5  C   LIG    1       -4.872  -1.355   3.736  0.00  0.00    -0.020 C 
ATOM      6  C   LIG    1       -5.416  -2.787   3.758  0.00  0.00    +0.070 C 
ATOM      7  C   LIG    1       -6.113  -3.043   5.100  0.00  0.00    +0.170 C 
ATOM      8  C   LIG    1       -7.055  -1.893   5.369  0.00  0.00    +0.200 A 
ATOM      9  N   LIG    1       -8.027  -1.855   6.232  0.00  0.00    -0.480 NA
ATOM     10  C   LIG    1       -8.630  -0.656   6.165  0.00  0.00    +0.170 A 
ATOM     11  C   LIG    1       -8.003   0.075   5.222  0.00  0.00    +0.120 A 
ATOM     12  N   LIG    1       -7.006  -0.707   4.719  0.00  0.00    -0.470 N 
ATOM     13  C   LIG    1       -6.041  -0.366   3.671  0.00  0.00    +0.280 C 
ENDBRANCH   4   5
ENDBRANCH   2   4
BRANCH   2  14
ATOM     14  C   LIG    1       -2.597   0.390   1.317  0.00  0.00    +0.270 C 
BRANCH  14  15
ATOM     15  C   LIG    1       -2.059   1.822   1.304  0.00  0.00    +0.080 C 
BRANCH  15  16
ATOM     16  C   LIG    1       -1.264   2.057   0.019  0.00  0.00    -0.020 C 
ATOM     17  C   LIG    1       -0.750   3.513  -0.034  0.00  0.00    +0.060 C 
ATOM     18  C   LIG    1        0.719   3.321  -0.475  0.00  0.00    +0.270 C 
ATOM     19  O   LIG    1        1.072   1.990   0.003  0.00  0.00    -0.340 OA
ATOM     20  C   LIG    1       -0.014   1.204   0.009  0.00  0.00    +0.480 C 
ATOM     21  O   LIG    1        0.002  -0.004   0.002  0.00  0.00    -0.450 OA
ENDBRANCH  15  16
ENDBRANCH  14  15
ENDBRANCH   2  14
TORSDOF 5
