REMARK  Name = ZINCkj00000hbrUq.0
REMARK                            x       y       z     vdW  Elec       q    Type
REMARK                         _______ _______ _______ _____ _____    ______ ____
ROOT
ATOM      1  C   LIG    1       -3.422  -1.605  -0.574  0.00  0.00    +0.330 C 
ATOM      2  N   LIG    1       -2.968  -2.937  -0.995  0.00  0.00    -0.390 N 
ATOM      3  H   LIG    1       -2.790  -2.933  -1.988  0.00  0.00    +0.420 HD
ENDROOT
BRANCH   2   4
ATOM      4  C   LIG    1       -1.733  -3.282  -0.277  0.00  0.00    +0.280 C 
BRANCH   4   5
ATOM      5  C   LIG    1       -0.609  -2.340  -0.714  0.00  0.00    -0.020 C 
ATOM      6  C   LIG    1       -0.310  -2.556  -2.201  0.00  0.00    +0.030 C 
ATOM      7  C   LIG    1        0.641  -1.457  -2.690  0.00  0.00    +0.170 C 
ATOM      8  C   LIG    1        1.790  -1.358  -1.715  0.00  0.00    +0.190 A 
ATOM      9  N   LIG    1        2.936  -0.771  -1.901  0.00  0.00    -0.480 NA
ATOM     10  C   LIG    1        3.686  -0.907  -0.796  0.00  0.00    +0.160 A 
ATOM     11  C   LIG    1        2.974  -1.606   0.111  0.00  0.00    +0.130 A 
ATOM     12  N   LIG    1        1.774  -1.891  -0.470  0.00  0.00    -0.460 N 
ATOM     13  C   LIG    1        0.650  -2.632   0.108  0.00  0.00    +0.320 C 
ENDBRANCH   4   5
ENDBRANCH   2   4
BRANCH   2  14
ATOM     14  C   LIG    1       -4.006  -3.929  -0.687  0.00  0.00    +0.260 C 
BRANCH  14  15
ATOM     15  C   LIG    1       -5.252  -3.641  -1.528  0.00  0.00    +0.070 C 
BRANCH  15  16
ATOM     16  C   LIG    1       -6.333  -4.675  -1.208  0.00  0.00    -0.020 C 
ATOM     17  C   LIG    1       -7.631  -4.353  -1.983  0.00  0.00    +0.060 C 
ATOM     18  C   LIG    1       -8.027  -5.741  -2.541  0.00  0.00    +0.270 C 
ATOM     19  O   LIG    1       -6.765  -6.465  -2.647  0.00  0.00    -0.340 OA
ATOM     20  C   LIG    1       -5.916  -6.044  -1.698  0.00  0.00    +0.480 C 
ATOM     21  O   LIG    1       -4.961  -6.665  -1.295  0.00  0.00    -0.450 OA
ENDBRANCH  15  16
ENDBRANCH  14  15
ENDBRANCH   2  14
TORSDOF 5
