REMARK  Name = ZINCpe00000MJMeF.0
REMARK                            x       y       z     vdW  Elec       q    Type
REMARK                         _______ _______ _______ _____ _____    ______ ____
ROOT
ATOM      1  C   LIG    1       -0.944   0.534  -2.944  0.00  0.00    -0.100 C 
ATOM      2  C   LIG    1       -0.030  -0.377  -2.546  0.00  0.00    +0.210 C 
ENDROOT
BRANCH   2   3
ATOM      3  C   LIG    1       -0.003  -0.829  -1.148  0.00  0.00    -0.240 A 
ATOM      4  C   LIG    1        0.025  -2.140  -0.708  0.00  0.00    +0.120 A 
ATOM      5  N   LIG    1        0.036  -2.112   0.638  0.00  0.00    -0.310 N 
ATOM      6  N   LIG    1        0.022  -0.776   1.054  0.00  0.00    -0.290 NA
ATOM      7  C   LIG    1        0.033  -3.372  -1.576  0.00  0.00    +0.160 C 
ATOM      8  C   LIG    1        0.002  -0.004   0.002  0.00  0.00    +0.110 A 
ATOM      9  C   LIG    1       -0.018   1.503   0.010  0.00  0.00    +0.160 C 
BRANCH   5  10
ATOM     10  C   LIG    1        0.060  -3.231   1.480  0.00  0.00    +0.140 A 
ATOM     11  C   LIG    1       -0.621  -4.387   1.121  0.00  0.00    +0.000 A 
ATOM     12  C   LIG    1       -0.592  -5.490   1.951  0.00  0.00    +0.040 A 
ATOM     13  C   LIG    1        0.106  -5.442   3.144  0.00  0.00    +0.010 A 
ATOM     14  C   LIG    1        0.781  -4.291   3.507  0.00  0.00    +0.030 A 
ATOM     15  C   LIG    1        0.760  -3.186   2.679  0.00  0.00    +0.020 A 
ENDBRANCH   5  10
ENDBRANCH   2   3
BRANCH   1  18
ATOM     16  N   LIG    1       -1.881   1.879  -4.690  0.00  0.00    -0.520 N 
ATOM     17  H   LIG    1       -2.520   2.236  -4.053  0.00  0.00    +0.440 HD
ATOM     18  C   LIG    1       -0.969   0.970  -4.293  0.00  0.00    +0.560 C 
ATOM     19  O   LIG    1       -0.167   0.523  -5.092  0.00  0.00    -0.540 OA
BRANCH  16  21
ATOM     20  C   LIG    1       -2.818   3.219  -6.421  0.00  0.00    +0.530 C 
ATOM     21  N   LIG    1       -1.906   2.310  -6.023  0.00  0.00    -0.490 N 
ATOM     22  H   LIG    1       -1.267   1.954  -6.660  0.00  0.00    +0.450 HD
ATOM     23  O   LIG    1       -3.618   3.665  -5.624  0.00  0.00    -0.490 OA
BRANCH  20  24
ATOM     24  C   LIG    1       -2.845   3.679  -7.842  0.00  0.00    +0.470 C 
ATOM     25  O   LIG    1       -2.046   3.233  -8.639  0.00  0.00    -0.470 OA
BRANCH  24  27
ATOM     26  C   LIG    1       -3.723   4.986  -9.634  0.00  0.00    +0.280 C 
ATOM     27  O   LIG    1       -3.756   4.586  -8.239  0.00  0.00    -0.320 OA
ENDBRANCH  24  27
ENDBRANCH  20  24
ENDBRANCH  16  21
ENDBRANCH   1  18
TORSDOF 6
