REMARK  Name = ZINCrD0000073m4r.0
REMARK                            x       y       z     vdW  Elec       q    Type
REMARK                         _______ _______ _______ _____ _____    ______ ____
ROOT
ATOM      1  C   LIG    1       -1.998   1.758   2.928  0.00  0.00    +0.220 A 
ATOM      2  N   LIG    1       -1.219   2.807   2.857  0.00  0.00    -0.370 NA
ATOM      3  O   LIG    1       -0.481   2.715   1.900  0.00  0.00    +0.100 OA
ATOM      4  C   LIG    1       -0.718   1.572   1.248  0.00  0.00    +0.180 A 
ATOM      5  N   LIG    1       -1.682   0.957   1.886  0.00  0.00    -0.440 NA
ENDROOT
BRANCH   1   9
ATOM      6  C   LIG    1       -4.978   1.011   5.874  0.00  0.00    +0.130 A 
ATOM      7  C   LIG    1       -4.758   0.091   4.860  0.00  0.00    -0.030 A 
ATOM      8  C   LIG    1       -3.792   0.331   3.904  0.00  0.00    +0.080 A 
ATOM      9  C   LIG    1       -3.035   1.500   3.956  0.00  0.00    -0.030 A 
ATOM     10  C   LIG    1       -3.251   2.423   4.978  0.00  0.00    +0.000 A 
ATOM     11  C   LIG    1       -4.224   2.181   5.931  0.00  0.00    +0.100 A 
BRANCH   6  13
ATOM     12  C   LIG    1       -6.665  -0.449   6.696  0.00  0.00    +0.240 C 
ATOM     13  O   LIG    1       -5.930   0.771   6.814  0.00  0.00    -0.300 OA
ENDBRANCH   6  13
BRANCH  11  14
ATOM     14  O   LIG    1       -4.440   3.082   6.926  0.00  0.00    -0.300 OA
ATOM     15  C   LIG    1       -3.631   4.260   6.922  0.00  0.00    +0.250 C 
ENDBRANCH  11  14
ENDBRANCH   1   9
BRANCH   4  16
ATOM     16  C   LIG    1       -0.013   1.086   0.008  0.00  0.00    +0.420 C 
BRANCH  16  17
ATOM     17  O   LIG    1       -0.715   1.567  -1.168  0.00  0.00    -0.350 OA
BRANCH  17  18
ATOM     18  C   LIG    1       -0.209   1.218  -2.368  0.00  0.00    +0.520 C 
ATOM     19  O   LIG    1        0.791   0.531  -2.429  0.00  0.00    -0.480 OA
BRANCH  18  20
ATOM     20  C   LIG    1       -0.870   1.671  -3.606  0.00  0.00    -0.180 A 
ATOM     21  C   LIG    1       -2.024   2.456  -3.539  0.00  0.00    +0.160 A 
ATOM     22  C   LIG    1       -2.634   2.881  -4.699  0.00  0.00    -0.020 A 
ATOM     23  C   LIG    1       -2.112   2.522  -5.933  0.00  0.00    +0.180 A 
ATOM     24  C   LIG    1       -0.972   1.738  -6.009  0.00  0.00    -0.050 A 
ATOM     25  F   LIG    1       -2.719   2.938  -7.066  0.00  0.00    -0.120 F 
ATOM     26  C   LIG    1       -0.347   1.310  -4.854  0.00  0.00    +0.200 A 
ATOM     27  F   LIG    1        0.764   0.546  -4.928  0.00  0.00    -0.100 F 
ENDBRANCH  18  20
ENDBRANCH  17  18
ENDBRANCH  16  17
ENDBRANCH   4  16
TORSDOF 7
