REMARK  Name = ZINCrH000004szLt.0
REMARK                            x       y       z     vdW  Elec       q    Type
REMARK                         _______ _______ _______ _____ _____    ______ ____
ROOT
ATOM      1  C   LIG    1        2.029   6.062  -2.005  0.00  0.00    +0.520 C 
ATOM      2  N   LIG    1        0.847   6.051  -1.358  0.00  0.00    -0.610 N 
ATOM      3  C   LIG    1       -0.363   6.526  -2.035  0.00  0.00    +0.280 C 
ATOM      4  O   LIG    1        3.030   5.669  -1.444  0.00  0.00    -0.520 OA
ENDROOT
BRANCH   1   5
ATOM      5  C   LIG    1        2.107   6.562  -3.424  0.00  0.00    +0.120 C 
BRANCH   5  17
ATOM      6  C   LIG    1        3.021   4.160  -4.726  0.00  0.00    +0.120 C 
ATOM      7  C   LIG    1        3.977   5.310  -4.542  0.00  0.00    +0.180 A 
ATOM      8  N   LIG    1        5.207   5.193  -4.980  0.00  0.00    -0.480 NA
ATOM      9  C   LIG    1        6.092   6.186  -4.840  0.00  0.00    +0.140 A 
ATOM     10  C   LIG    1        7.410   6.055  -5.311  0.00  0.00    +0.030 A 
ATOM     11  C   LIG    1        8.288   7.083  -5.154  0.00  0.00    +0.030 A 
ATOM     12  C   LIG    1        7.903   8.269  -4.532  0.00  0.00    +0.010 A 
ATOM     13  C   LIG    1        6.636   8.432  -4.063  0.00  0.00    +0.040 A 
ATOM     14  C   LIG    1        5.703   7.393  -4.207  0.00  0.00    -0.100 A 
ATOM     15  C   LIG    1        4.381   7.524  -3.741  0.00  0.00    -0.010 A 
ATOM     16  C   LIG    1        3.920   8.790  -3.067  0.00  0.00    +0.110 C 
ATOM     17  C   LIG    1        3.530   6.469  -3.912  0.00  0.00    -0.120 A 
ENDBRANCH   5  17
ENDBRANCH   1   5
BRANCH   2  18
ATOM     18  C   LIG    1        0.771   5.565   0.022  0.00  0.00    +0.350 C 
BRANCH  18  19
ATOM     19  C   LIG    1        0.496   4.083   0.018  0.00  0.00    -0.100 A 
ATOM     20  C   LIG    1       -0.808   3.624   0.028  0.00  0.00    +0.040 A 
ATOM     21  C   LIG    1       -1.065   2.265   0.019  0.00  0.00    +0.040 A 
ATOM     22  C   LIG    1       -0.016   1.361   0.009  0.00  0.00    +0.040 A 
ATOM     23  O   LIG    1        0.002  -0.004   0.002  0.00  0.00    -0.310 OA
ATOM     24  C   LIG    1        1.336  -0.373   0.399  0.00  0.00    +0.430 C 
ATOM     25  O   LIG    1        2.139   0.749  -0.014  0.00  0.00    -0.310 OA
ATOM     26  C   LIG    1        1.297   1.824  -0.001  0.00  0.00    +0.030 A 
ATOM     27  C   LIG    1        1.548   3.186   0.004  0.00  0.00    +0.060 A 
ENDBRANCH  18  19
ENDBRANCH   2  18
TORSDOF 4
