REMARK  Name = ZINCrH00000No4Gx.0
REMARK                            x       y       z     vdW  Elec       q    Type
REMARK                         _______ _______ _______ _____ _____    ______ ____
ROOT
ATOM      1  O   LIG    1       -1.111   1.174  -0.886  0.00  0.00    -0.480 OA
ATOM      2  C   LIG    1       -0.167   1.350  -0.135  0.00  0.00    +0.570 C 
ENDROOT
BRANCH   2   3
ATOM      3  C   LIG    1       -0.231   0.862   1.261  0.00  0.00    -0.290 A 
ATOM      4  C   LIG    1        0.847   1.045   2.135  0.00  0.00    +0.390 A 
ATOM      5  N   LIG    1        0.750   0.601   3.374  0.00  0.00    -0.520 NA
ATOM      6  C   LIG    1       -0.346  -0.022   3.790  0.00  0.00    +0.390 A 
ATOM      7  N   LIG    1       -1.387  -0.219   2.990  0.00  0.00    -0.520 NA
ATOM      8  C   LIG    1       -1.368   0.201   1.739  0.00  0.00    +0.400 A 
BRANCH   6   9
ATOM      9  C   LIG    1       -0.410  -0.510   5.188  0.00  0.00    -0.060 A 
ATOM     10  C   LIG    1       -1.553  -1.162   5.650  0.00  0.00    +0.080 A 
ATOM     11  C   LIG    1       -1.604  -1.619   6.951  0.00  0.00    +0.000 A 
ATOM     12  C   LIG    1       -0.529  -1.423   7.799  0.00  0.00    +0.040 A 
ATOM     13  C   LIG    1        0.605  -0.772   7.348  0.00  0.00    +0.000 A 
ATOM     14  C   LIG    1        0.670  -0.315   6.047  0.00  0.00    +0.080 A 
ENDBRANCH   6   9
ENDBRANCH   2   3
BRANCH   2  15
ATOM     15  N   LIG    1        0.926   1.978  -0.573  0.00  0.00    -0.610 NA
ATOM     16  C   LIG    1        1.048   3.295  -0.411  0.00  0.00    +0.380 A 
ATOM     17  S   LIG    1        2.496   4.223  -0.500  0.00  0.00    +0.170 S 
ATOM     18  C   LIG    1        1.702   5.773  -0.172  0.00  0.00    -0.050 A 
ATOM     19  C   LIG    1        0.416   5.485  -0.013  0.00  0.00    +0.260 A 
ATOM     20  N   LIG    1        0.059   4.179  -0.137  0.00  0.00    -0.520 N 
BRANCH  20  21
ATOM     21  C   LIG    1       -1.332   3.747   0.019  0.00  0.00    +0.320 C 
BRANCH  21  22
ATOM     22  C   LIG    1       -2.089   4.026  -1.254  0.00  0.00    -0.120 A 
ATOM     23  C   LIG    1       -2.906   5.138  -1.344  0.00  0.00    +0.020 A 
ATOM     24  C   LIG    1       -3.597   5.395  -2.513  0.00  0.00    -0.010 A 
ATOM     25  C   LIG    1       -3.480   4.535  -3.589  0.00  0.00    +0.010 A 
ATOM     26  C   LIG    1       -2.668   3.420  -3.497  0.00  0.00    +0.000 A 
ATOM     27  C   LIG    1       -1.972   3.165  -2.330  0.00  0.00    +0.060 A 
ENDBRANCH  21  22
ENDBRANCH  20  21
ENDBRANCH   2  15
TORSDOF 5
