REMARK  Name = ZINCvU000000048a.0
REMARK                            x       y       z     vdW  Elec       q    Type
REMARK                         _______ _______ _______ _____ _____    ______ ____
ROOT
ATOM      1  C   LIG    1       -7.138  -8.047  -1.040  0.00  0.00    +0.280 A 
ATOM      2  N   LIG    1       -7.290  -6.751  -0.900  0.00  0.00    -0.280 NA
ATOM      3  N   LIG    1       -6.215  -6.232  -0.425  0.00  0.00    -0.280 NA
ATOM      4  C   LIG    1       -5.307  -7.162  -0.240  0.00  0.00    +0.160 A 
ATOM      5  N   LIG    1       -5.864  -8.352  -0.622  0.00  0.00    -0.450 N 
ENDROOT
BRANCH   1   8
ATOM      6  C   LIG    1      -10.078  -7.364  -1.889  0.00  0.00    +0.200 C 
ATOM      7  C   LIG    1       -9.425  -8.722  -1.923  0.00  0.00    +0.070 A 
ATOM      8  C   LIG    1       -8.147  -9.001  -1.551  0.00  0.00    -0.140 A 
ATOM      9  C   LIG    1       -7.974 -10.443  -1.767  0.00  0.00    -0.050 A 
ATOM     10  C   LIG    1       -9.151 -10.891  -2.234  0.00  0.00    +0.190 A 
ATOM     11  O   LIG    1      -10.007  -9.861  -2.327  0.00  0.00    -0.170 OA
ENDBRANCH   1   8
BRANCH   4  12
ATOM     12  S   LIG    1       -3.679  -6.925   0.390  0.00  0.00    +0.030 S 
BRANCH  12  13
ATOM     13  C   LIG    1       -3.702  -5.134   0.651  0.00  0.00    +0.100 C 
BRANCH  13  14
ATOM     14  C   LIG    1       -2.351  -4.683   1.211  0.00  0.00    +0.280 C 
BRANCH  14  15
ATOM     15  O   LIG    1       -2.369  -3.246   1.421  0.00  0.00    -0.360 OA
BRANCH  15  16
ATOM     16  C   LIG    1       -1.248  -2.686   1.914  0.00  0.00    +0.650 C 
ATOM     17  N   LIG    1       -1.199  -1.357   2.132  0.00  0.00    -0.650 N 
ATOM     18  H   LIG    1       -1.993  -0.815   2.005  0.00  0.00    +0.420 HD
ATOM     19  O   LIG    1       -0.282  -3.379   2.163  0.00  0.00    -0.550 OA
BRANCH  17  20
ATOM     20  C   LIG    1       -0.002  -0.759   2.541  0.00  0.00    +0.160 A 
ATOM     21  C   LIG    1        1.214  -1.259   2.092  0.00  0.00    +0.020 A 
ATOM     22  C   LIG    1        2.394  -0.666   2.497  0.00  0.00    +0.030 A 
ATOM     23  C   LIG    1        2.366   0.424   3.348  0.00  0.00    +0.000 A 
ATOM     24  C   LIG    1        1.157   0.923   3.797  0.00  0.00    +0.030 A 
ATOM     25  C   LIG    1       -0.026   0.335   3.396  0.00  0.00    -0.010 A 
ENDBRANCH  17  20
ENDBRANCH  15  16
ENDBRANCH  14  15
ENDBRANCH  13  14
ENDBRANCH  12  13
ENDBRANCH   4  12
BRANCH   5  26
ATOM     26  C   LIG    1       -5.234  -9.674  -0.592  0.00  0.00    +0.360 C 
BRANCH  26  27
ATOM     27  C   LIG    1       -5.396 -10.276   0.780  0.00  0.00    -0.130 A 
ATOM     28  C   LIG    1       -4.385 -10.151   1.714  0.00  0.00    +0.040 A 
ATOM     29  C   LIG    1       -4.535 -10.700   2.974  0.00  0.00    +0.010 A 
ATOM     30  C   LIG    1       -5.693 -11.382   3.297  0.00  0.00    +0.030 A 
ATOM     31  C   LIG    1       -6.703 -11.512   2.361  0.00  0.00    +0.010 A 
ATOM     32  C   LIG    1       -6.554 -10.959   1.103  0.00  0.00    +0.030 A 
ENDBRANCH  26  27
ENDBRANCH   5  26
TORSDOF 9
