REMARK  Name = ZINCkj000005kRng.1
REMARK                            x       y       z     vdW  Elec       q    Type
REMARK                         _______ _______ _______ _____ _____    ______ ____
ROOT
ATOM      1  N   LIG    1       -3.273   1.670   1.606  0.00  0.00    -1.110 NA
ATOM      2  H   LIG    1       -3.526   0.803   1.961  0.00  0.00    +0.430 HD
ENDROOT
BRANCH   1   3
ATOM      3  S   LIG    1       -2.808   1.813   0.023  0.00  0.00    +2.730 S 
ATOM      4  O   LIG    1       -2.852   0.504  -0.528  0.00  0.00    -0.930 OA
ATOM      5  O   LIG    1       -3.540   2.907  -0.512  0.00  0.00    -0.930 OA
BRANCH   3  12
ATOM      6  C   LIG    1       -1.365   4.899   0.039  0.00  0.00    +0.180 C 
ATOM      7  C   LIG    1       -0.584   3.610   0.026  0.00  0.00    +0.100 A 
ATOM      8  N   LIG    1        0.711   3.482   0.013  0.00  0.00    -0.350 NA
ATOM      9  O   LIG    1        1.044   2.320   0.004  0.00  0.00    +0.110 OA
ATOM     10  C   LIG    1       -0.018   1.503   0.010  0.00  0.00    +0.130 A 
ATOM     11  C   LIG    1        0.002  -0.004   0.002  0.00  0.00    +0.220 C 
ATOM     12  C   LIG    1       -1.114   2.299   0.019  0.00  0.00    -0.810 A 
ENDBRANCH   3  12
ENDBRANCH   1   3
BRANCH   1  13
ATOM     13  C   LIG    1       -3.302   2.852   2.471  0.00  0.00    +0.280 C 
BRANCH  13  14
ATOM     14  C   LIG    1       -4.102   2.538   3.737  0.00  0.00    +0.260 C 
BRANCH  14  15
ATOM     15  N   LIG    1       -4.132   3.723   4.604  0.00  0.00    -0.380 N 
ATOM     16  C   LIG    1       -4.868   4.801   3.932  0.00  0.00    +0.240 C 
ATOM     17  C   LIG    1       -4.832   6.063   4.796  0.00  0.00    +0.060 C 
ATOM     18  C   LIG    1       -5.482   5.767   6.151  0.00  0.00    +0.050 C 
ATOM     19  C   LIG    1       -4.753   4.592   6.810  0.00  0.00    +0.010 C 
ATOM     20  C   LIG    1       -3.299   4.982   7.083  0.00  0.00    +0.040 C 
ATOM     21  C   LIG    1       -4.793   3.385   5.870  0.00  0.00    +0.260 C 
ATOM     22  H   LIG    1       -3.188   4.027   4.790  0.00  0.00    +0.420 HD
ENDBRANCH  14  15
ENDBRANCH  13  14
ENDBRANCH   1  13
TORSDOF 5
