REMARK  Name = ZINCkj000005kRng.2
REMARK                            x       y       z     vdW  Elec       q    Type
REMARK                         _______ _______ _______ _____ _____    ______ ____
ROOT
ATOM      1  N   LIG    1       -0.900   1.880  -1.312  0.00  0.00    -1.110 NA
ATOM      2  H   LIG    1       -1.261   1.209  -1.914  0.00  0.00    +0.430 HD
ENDROOT
BRANCH   1   3
ATOM      3  S   LIG    1       -0.017   1.417   0.010  0.00  0.00    +2.730 S 
ATOM      4  O   LIG    1        1.162   2.210   0.003  0.00  0.00    -0.940 OA
ATOM      5  O   LIG    1        0.002  -0.004   0.002  0.00  0.00    -0.920 OA
BRANCH   3  12
ATOM      6  C   LIG    1       -2.368  -0.252   1.824  0.00  0.00    +0.180 C 
ATOM      7  C   LIG    1       -1.897   1.143   2.146  0.00  0.00    +0.110 A 
ATOM      8  N   LIG    1       -2.301   1.895   3.128  0.00  0.00    -0.350 NA
ATOM      9  O   LIG    1       -1.740   2.966   3.129  0.00  0.00    +0.110 OA
ATOM     10  C   LIG    1       -0.862   3.063   2.120  0.00  0.00    +0.110 A 
ATOM     11  C   LIG    1        0.023   4.241   1.804  0.00  0.00    +0.220 C 
ATOM     12  C   LIG    1       -0.930   1.894   1.440  0.00  0.00    -0.810 A 
ENDBRANCH   3  12
ENDBRANCH   1   3
BRANCH   1  13
ATOM     13  C   LIG    1       -1.137   3.302  -1.574  0.00  0.00    +0.290 C 
BRANCH  13  14
ATOM     14  C   LIG    1       -1.634   3.480  -3.010  0.00  0.00    +0.260 C 
BRANCH  14  15
ATOM     15  N   LIG    1       -1.871   4.906  -3.272  0.00  0.00    -0.380 N 
ATOM     16  C   LIG    1       -2.964   5.385  -2.416  0.00  0.00    +0.240 C 
ATOM     17  C   LIG    1       -3.161   6.887  -2.627  0.00  0.00    +0.050 C 
ATOM     18  C   LIG    1       -3.508   7.150  -4.095  0.00  0.00    +0.040 C 
ATOM     19  C   LIG    1       -2.397   6.581  -4.982  0.00  0.00    -0.010 C 
ATOM     20  C   LIG    1       -2.771   6.770  -6.453  0.00  0.00    +0.070 C 
ATOM     21  C   LIG    1       -2.230   5.089  -4.684  0.00  0.00    +0.250 C 
ATOM     22  H   LIG    1       -1.032   5.428  -3.069  0.00  0.00    +0.430 HD
ENDBRANCH  14  15
ENDBRANCH  13  14
ENDBRANCH   1  13
TORSDOF 5
