REMARK  Name = ZINC550000001I4F.0
REMARK                            x       y       z     vdW  Elec       q    Type
REMARK                         _______ _______ _______ _____ _____    ______ ____
ROOT
ATOM      1  C   LIG    1       -1.187   1.624   0.017  0.00  0.00    +0.510 C 
ATOM      2  O   LIG    1       -2.229   1.003   0.018  0.00  0.00    -0.540 OA
ATOM      3  N   LIG    1       -0.011   0.966   0.007  0.00  0.00    -0.860 N 
ATOM      4  H   LIG    1        0.822   1.462   0.002  0.00  0.00    +0.400 HD
ATOM      5  H   LIG    1        0.002  -0.004   0.002  0.00  0.00    +0.400 HD
ENDROOT
BRANCH   1   7
ATOM      6  C   LIG    1       -2.657   3.621   0.034  0.00  0.00    +0.040 C 
ATOM      7  C   LIG    1       -1.208   3.131   0.025  0.00  0.00    +0.030 C 
ENDBRANCH   1   7
TORSDOF 1
