REMARK  Name = ZINCpk00000y6vf2.0
REMARK                            x       y       z     vdW  Elec       q    Type
REMARK                         _______ _______ _______ _____ _____    ______ ____
ROOT
ATOM      1  C   LIG    1       -1.332   2.095   0.020  0.00  0.00    +0.060 C 
ATOM      2  C   LIG    1       -1.426   3.051   1.238  0.00  0.00    +0.080 C 
ATOM      3  C   LIG    1       -2.404   4.140   0.748  0.00  0.00    +0.230 C 
ATOM      4  N   LIG    1       -2.382   4.117  -0.722  0.00  0.00    -0.620 N 
ATOM      5  C   LIG    1       -3.118   4.905  -1.531  0.00  0.00    +0.610 C 
ATOM      6  O   LIG    1       -3.018   4.799  -2.738  0.00  0.00    -0.510 OA
ATOM      7  C   LIG    1       -1.423   3.089  -1.165  0.00  0.00    +0.300 C 
ENDROOT
BRANCH   1  10
ATOM      8  C   LIG    1        2.292   1.430  -0.012  0.00  0.00    +0.640 A 
ATOM      9  N   LIG    1        1.126   2.044   0.002  0.00  0.00    -0.590 NA
ATOM     10  C   LIG    1       -0.016   1.360   0.009  0.00  0.00    +0.240 A 
ATOM     11  C   LIG    1        0.002  -0.004   0.002  0.00  0.00    -0.190 A 
ATOM     12  C   LIG    1        1.242  -0.667  -0.013  0.00  0.00    +0.540 A 
ATOM     13  O   LIG    1        1.296  -1.886  -0.021  0.00  0.00    -0.540 OA
ATOM     14  N   LIG    1        2.373   0.072  -0.020  0.00  0.00    -0.650 N 
ATOM     15  H   LIG    1        3.239  -0.365  -0.031  0.00  0.00    +0.410 HD
BRANCH   8  17
ATOM     16  C   LIG    1        3.371   3.635  -0.010  0.00  0.00    +0.330 C 
ATOM     17  N   LIG    1        3.443   2.172  -0.019  0.00  0.00    -0.590 N 
ATOM     18  C   LIG    1        4.746   1.502  -0.034  0.00  0.00    +0.300 C 
ENDBRANCH   8  17
ENDBRANCH   1  10
BRANCH   5  19
ATOM     19  C   LIG    1       -4.041   5.895  -0.953  0.00  0.00    -0.040 A 
ATOM     20  C   LIG    1       -4.855   6.775  -1.645  0.00  0.00    +0.030 A 
ATOM     21  C   LIG    1       -5.537   7.498  -0.663  0.00  0.00    +0.060 A 
ATOM     22  N   LIG    1       -5.135   7.067   0.505  0.00  0.00    -0.260 NA
ATOM     23  N   LIG    1       -4.263   6.132   0.374  0.00  0.00    -0.380 N 
ATOM     24  H   LIG    1       -3.828   5.667   1.105  0.00  0.00    +0.440 HD
BRANCH  21  25
ATOM     25  C   LIG    1       -6.551   8.586  -0.907  0.00  0.00    +0.040 C 
ATOM     26  C   LIG    1       -6.605   9.201  -2.306  0.00  0.00    +0.030 C 
ATOM     27  C   LIG    1       -6.024  10.003  -1.139  0.00  0.00    +0.030 C 
ENDBRANCH  21  25
ENDBRANCH   5  19
TORSDOF 4
