REMARK  Name = ZINCpk00000KfKHA.0
REMARK                            x       y       z     vdW  Elec       q    Type
REMARK                         _______ _______ _______ _____ _____    ______ ____
ROOT
ATOM      1  C   LIG    1       -4.261  -0.236   0.532  0.00  0.00    +0.360 A 
ATOM      2  N   LIG    1       -4.045   1.057   0.568  0.00  0.00    -0.300 NA
ATOM      3  N   LIG    1       -3.038   1.317   1.323  0.00  0.00    -0.280 NA
ATOM      4  C   LIG    1       -2.544   0.203   1.809  0.00  0.00    +0.260 A 
ATOM      5  N   LIG    1       -3.313  -0.826   1.320  0.00  0.00    -0.460 N 
ENDROOT
BRANCH   4   6
ATOM      6  C   LIG    1       -1.381   0.079   2.716  0.00  0.00    -0.160 A 
ATOM      7  C   LIG    1       -1.035  -1.027   3.440  0.00  0.00    +0.250 A 
ATOM      8  N   LIG    1        0.078  -0.725   4.138  0.00  0.00    -0.360 N 
ATOM      9  N   LIG    1        0.439   0.594   3.840  0.00  0.00    -0.290 NA
ATOM     10  C   LIG    1        0.788  -1.624   5.051  0.00  0.00    +0.370 C 
ATOM     11  C   LIG    1       -0.425   1.080   2.989  0.00  0.00    +0.300 A 
ENDBRANCH   4   6
BRANCH   1  12
ATOM     12  N   LIG    1       -5.262  -0.884  -0.173  0.00  0.00    -0.430 N 
BRANCH  12  13
ATOM     13  C   LIG    1       -6.572  -0.274   0.091  0.00  0.00    +0.180 C 
ATOM     14  C   LIG    1       -6.628   0.861   1.116  0.00  0.00    -0.000 C 
ATOM     15  C   LIG    1       -7.199  -0.515   1.465  0.00  0.00    +0.020 C 
ENDBRANCH  12  13
BRANCH  12  16
ATOM     16  C   LIG    1       -4.968  -0.897  -1.613  0.00  0.00    +0.230 C 
BRANCH  16  17
ATOM     17  C   LIG    1       -5.753  -2.026  -2.283  0.00  0.00    +0.190 C 
BRANCH  17  19
ATOM     18  C   LIG    1       -7.981  -2.783  -2.738  0.00  0.00    +0.200 C 
ATOM     19  O   LIG    1       -7.153  -1.782  -2.143  0.00  0.00    -0.380 OA
ENDBRANCH  17  19
ENDBRANCH  16  17
ENDBRANCH  12  16
ENDBRANCH   1  12
BRANCH   5  20
ATOM     20  C   LIG    1       -3.150  -2.257   1.589  0.00  0.00    +0.320 C 
BRANCH  20  21
ATOM     21  C   LIG    1       -3.851  -2.613   2.901  0.00  0.00    +0.120 C 
ATOM     22  C   LIG    1       -3.587  -4.090   3.269  0.00  0.00    +0.010 C 
ATOM     23  C   LIG    1       -4.921  -4.568   3.884  0.00  0.00    +0.010 C 
ATOM     24  C   LIG    1       -5.833  -3.323   3.815  0.00  0.00    +0.200 C 
ATOM     25  O   LIG    1       -5.284  -2.522   2.747  0.00  0.00    -0.340 OA
ENDBRANCH  20  21
ENDBRANCH   5  20
TORSDOF 8
