REMARK  Name = ZINCrH000004nC1R.0
REMARK                            x       y       z     vdW  Elec       q    Type
REMARK                         _______ _______ _______ _____ _____    ______ ____
ROOT
ATOM      1  N   LIG    1        6.942   3.753   1.277  0.00  0.00    -0.570 N 
ATOM      2  C   LIG    1        6.026   3.064   0.360  0.00  0.00    +0.310 C 
ATOM      3  C   LIG    1        4.819   4.013   0.194  0.00  0.00    +0.010 C 
ATOM      4  C   LIG    1        4.870   4.822   1.511  0.00  0.00    +0.090 C 
ATOM      5  C   LIG    1        6.318   4.742   1.940  0.00  0.00    +0.530 C 
ATOM      6  O   LIG    1        6.840   5.465   2.762  0.00  0.00    -0.510 OA
ENDROOT
BRANCH   1  12
ATOM      7  C   LIG    1        9.262   4.031   0.644  0.00  0.00    +0.140 A 
ATOM      8  C   LIG    1       10.598   3.701   0.809  0.00  0.00    -0.070 A 
ATOM      9  C   LIG    1       10.967   2.770   1.763  0.00  0.00    +0.060 A 
ATOM     10  C   LIG    1       10.007   2.166   2.553  0.00  0.00    -0.020 A 
ATOM     11  C   LIG    1        8.673   2.493   2.397  0.00  0.00    +0.060 A 
ATOM     12  C   LIG    1        8.294   3.423   1.440  0.00  0.00    +0.110 A 
BRANCH   7  14
ATOM     13  C   LIG    1        9.944   5.530  -1.072  0.00  0.00    +0.250 C 
ATOM     14  O   LIG    1        8.898   4.947  -0.293  0.00  0.00    -0.310 OA
ENDBRANCH   7  14
ENDBRANCH   1  12
BRANCH   3  15
ATOM     15  C   LIG    1        3.532   3.236   0.088  0.00  0.00    +0.530 C 
ATOM     16  N   LIG    1        2.356   3.889   0.001  0.00  0.00    -0.670 N 
ATOM     17  H   LIG    1        2.341   4.856  -0.061  0.00  0.00    +0.420 HD
ATOM     18  O   LIG    1        3.554   2.023   0.082  0.00  0.00    -0.510 OA
BRANCH  16  19
ATOM     19  C   LIG    1        1.155   3.170   0.000  0.00  0.00    +0.140 A 
ATOM     20  C   LIG    1        0.028   3.698   0.615  0.00  0.00    +0.030 A 
ATOM     21  C   LIG    1       -1.156   2.986   0.612  0.00  0.00    +0.040 A 
ATOM     22  C   LIG    1       -1.217   1.746   0.003  0.00  0.00    +0.060 A 
ATOM     23  C   LIG    1       -0.098   1.220  -0.615  0.00  0.00    -0.160 A 
ATOM     24  C   LIG    1        1.089   1.927  -0.616  0.00  0.00    +0.080 A 
BRANCH  23  25
ATOM     25  C   LIG    1       -0.171  -0.128  -1.284  0.00  0.00    +0.510 C 
ATOM     26  F   LIG    1        0.734  -0.170  -2.350  0.00  0.00    -0.180 F 
ATOM     27  F   LIG    1       -1.468  -0.341  -1.764  0.00  0.00    -0.180 F 
ATOM     28  F   LIG    1        0.153  -1.126  -0.358  0.00  0.00    -0.170 F 
ENDBRANCH  23  25
ENDBRANCH  16  19
ENDBRANCH   3  15
TORSDOF 5
