REMARK  Name = ZINCah0000002Dhb.0
REMARK                            x       y       z     vdW  Elec       q    Type
REMARK                         _______ _______ _______ _____ _____    ______ ____
ROOT
ATOM      1  C   LIG    1       -1.212   1.769   0.017  0.00  0.00    +0.190 A 
ATOM      2  C   LIG    1       -0.013   1.076   0.008  0.00  0.00    -0.040 A 
ATOM      3  C   LIG    1        1.169   1.801   0.001  0.00  0.00    +0.360 A 
ATOM      4  N   LIG    1        1.112   3.123   0.008  0.00  0.00    -0.500 NA
ATOM      5  C   LIG    1       -0.049   3.750   0.023  0.00  0.00    +0.370 A 
ATOM      6 CL   LIG    1       -0.072   5.486   0.032  0.00  0.00    +0.030 Cl
ATOM      7  N   LIG    1       -1.192   3.092   0.030  0.00  0.00    -0.500 NA
ENDROOT
BRANCH   1   8
ATOM      8  C   LIG    1       -2.523   1.026   0.019  0.00  0.00    +0.310 C 
BRANCH   8  10
ATOM      9  N   LIG    1       -3.966   1.812   2.045  0.00  0.00    -0.410 NA
ATOM     10  C   LIG    1       -3.338   1.470   1.162  0.00  0.00    +0.210 C 
ENDBRANCH   8  10
ENDBRANCH   1   8
TORSDOF 2
