REMARK  Name = ZINCtV000002ILSG.0
REMARK                            x       y       z     vdW  Elec       q    Type
REMARK                         _______ _______ _______ _____ _____    ______ ____
ROOT
ATOM      1  C   LIG    1       -4.829   1.262   0.252  0.00  0.00    -0.270 A 
ATOM      2  C   LIG    1       -6.050   1.784   0.438  0.00  0.00    +0.190 A 
ATOM      3  C   LIG    1       -7.097   0.854   0.491  0.00  0.00    -0.220 A 
ATOM      4  C   LIG    1       -6.667  -0.455   0.347  0.00  0.00    +0.030 A 
ATOM      5  N   LIG    1       -7.773  -1.260   0.420  0.00  0.00    -0.300 N 
ATOM      6  N   LIG    1       -8.892  -0.443   0.611  0.00  0.00    -0.250 NA
ATOM      7  C   LIG    1       -8.517   0.800   0.655  0.00  0.00    +0.150 A 
ATOM      8  C   LIG    1       -9.426   1.986   0.847  0.00  0.00    +0.180 C 
ATOM      9  S   LIG    1       -4.921  -0.488   0.138  0.00  0.00    +0.200 S 
ENDROOT
BRANCH   5  10
ATOM     10  C   LIG    1       -7.781  -2.658   0.322  0.00  0.00    +0.140 A 
ATOM     11  C   LIG    1       -6.892  -3.300  -0.529  0.00  0.00    +0.040 A 
ATOM     12  C   LIG    1       -6.898  -4.678  -0.620  0.00  0.00    +0.020 A 
ATOM     13  C   LIG    1       -7.798  -5.419   0.129  0.00  0.00    +0.100 A 
ATOM     14  C   LIG    1       -8.690  -4.779   0.974  0.00  0.00    +0.020 A 
ATOM     15  F   LIG    1       -7.806  -6.766   0.035  0.00  0.00    -0.130 F 
ATOM     16  C   LIG    1       -8.683  -3.402   1.072  0.00  0.00    +0.070 A 
ENDBRANCH   5  10
BRANCH   1  19
ATOM     17  N   LIG    1       -2.412   1.415  -0.022  0.00  0.00    -0.680 N 
ATOM     18  H   LIG    1       -2.389   0.456  -0.164  0.00  0.00    +0.400 HD
ATOM     19  C   LIG    1       -3.591   2.042   0.162  0.00  0.00    +0.600 C 
ATOM     20  O   LIG    1       -3.628   3.255   0.253  0.00  0.00    -0.510 OA
BRANCH  17  27
ATOM     21  C   LIG    1       -1.424   2.324   2.487  0.00  0.00    +0.080 C 
ATOM     22  C   LIG    1       -0.703   2.611   1.195  0.00  0.00    -0.070 A 
ATOM     23  C   LIG    1        0.470   3.340   1.205  0.00  0.00    +0.010 A 
ATOM     24  C   LIG    1        1.131   3.604   0.020  0.00  0.00    +0.020 A 
ATOM     25  C   LIG    1        0.621   3.141  -1.179  0.00  0.00    +0.020 A 
ATOM     26  C   LIG    1       -0.551   2.411  -1.196  0.00  0.00    -0.060 A 
ATOM     27  C   LIG    1       -1.221   2.148  -0.008  0.00  0.00    +0.130 A 
BRANCH  26  28
ATOM     28  C   LIG    1       -1.106   1.905  -2.502  0.00  0.00    +0.020 C 
ATOM     29  C   LIG    1       -0.085   0.979  -3.165  0.00  0.00    +0.040 C 
ATOM     30  C   LIG    1       -1.395   3.090  -3.426  0.00  0.00    +0.040 C 
ENDBRANCH  26  28
ENDBRANCH  17  27
ENDBRANCH   1  19
TORSDOF 4
