REMARK  Name = ZINCqH000003245j.0
REMARK                            x       y       z     vdW  Elec       q    Type
REMARK                         _______ _______ _______ _____ _____    ______ ____
ROOT
ATOM      1  C   LIG    1       -2.139  -0.048   1.253  0.00  0.00    +0.530 C 
ATOM      2  N   LIG    1       -3.422  -0.392   1.476  0.00  0.00    -0.620 N 
ATOM      3  C   LIG    1       -4.250  -1.232   0.598  0.00  0.00    +0.250 C 
ATOM      4  C   LIG    1       -5.648  -1.332   1.244  0.00  0.00    +0.050 C 
ATOM      5  C   LIG    1       -5.698  -0.080   2.159  0.00  0.00    -0.010 C 
ATOM      6  C   LIG    1       -4.228   0.007   2.645  0.00  0.00    +0.300 C 
ATOM      7  O   LIG    1       -1.551   0.653   2.049  0.00  0.00    -0.520 OA
ENDROOT
BRANCH   5   8
ATOM      8  C   LIG    1       -6.637  -0.295   3.318  0.00  0.00    +0.540 C 
ATOM      9  N   LIG    1       -7.945  -0.528   3.091  0.00  0.00    -0.620 N 
ATOM     10  C   LIG    1       -8.588  -0.592   1.771  0.00  0.00    +0.230 C 
ATOM     11  C   LIG    1      -10.090  -0.855   2.004  0.00  0.00    +0.030 C 
ATOM     12  C   LIG    1      -10.307  -0.353   3.457  0.00  0.00    +0.030 C 
ATOM     13  C   LIG    1       -8.969  -0.755   4.127  0.00  0.00    +0.250 C 
ATOM     14  O   LIG    1       -6.215  -0.259   4.455  0.00  0.00    -0.530 OA
ENDBRANCH   5   8
BRANCH   1  15
ATOM     15  C   LIG    1       -1.433  -0.534   0.013  0.00  0.00    +0.050 C 
BRANCH  15  17
ATOM     16  C   LIG    1       -0.019   1.526   0.010  0.00  0.00    +0.030 C 
ATOM     17  C   LIG    1        0.002  -0.004   0.002  0.00  0.00    -0.040 C 
ATOM     18  C   LIG    1        0.742  -0.511   1.242  0.00  0.00    +0.030 C 
BRANCH  17  19
ATOM     19  C   LIG    1        0.718  -0.497  -1.257  0.00  0.00    +0.090 C 
BRANCH  19  20
ATOM     20  C   LIG    1        2.132   0.024  -1.268  0.00  0.00    -0.070 A 
ATOM     21  C   LIG    1        2.417   1.237  -1.867  0.00  0.00    +0.030 A 
ATOM     22  C   LIG    1        3.712   1.718  -1.873  0.00  0.00    +0.020 A 
ATOM     23  C   LIG    1        4.726   0.981  -1.287  0.00  0.00    -0.040 A 
ATOM     24  C   LIG    1        4.442  -0.235  -0.692  0.00  0.00    +0.020 A 
ATOM     25 CL   LIG    1        6.355   1.582  -1.299  0.00  0.00    -0.070 Cl
ATOM     26  C   LIG    1        3.145  -0.713  -0.682  0.00  0.00    +0.030 A 
ENDBRANCH  19  20
ENDBRANCH  17  19
ENDBRANCH  15  17
ENDBRANCH   1  15
TORSDOF 5
