REMARK  Name = ZINCnE000001EDYs.1
REMARK                            x       y       z     vdW  Elec       q    Type
REMARK                         _______ _______ _______ _____ _____    ______ ____
ROOT
ATOM      1  C   LIG    1       -2.677   3.664   0.049  0.00  0.00    +0.470 C 
ATOM      2  N   LIG    1       -3.107   4.581   0.938  0.00  0.00    -0.650 NA
ATOM      3  O   LIG    1       -3.457   3.170  -0.737  0.00  0.00    -0.590 OA
ENDROOT
BRANCH   2   4
ATOM      4  C   LIG    1       -4.440   4.960   0.954  0.00  0.00    +0.410 A 
ATOM      5  N   LIG    1       -4.949   5.825   1.760  0.00  0.00    -0.550 NA
ATOM      6  C   LIG    1       -6.267   6.090   1.652  0.00  0.00    +0.110 A 
ATOM      7  C   LIG    1       -7.053   6.987   2.409  0.00  0.00    +0.130 A 
ATOM      8  C   LIG    1       -8.396   7.123   2.152  0.00  0.00    -0.030 A 
ATOM      9  C   LIG    1       -9.000   6.382   1.144  0.00  0.00    +0.080 A 
ATOM     10  C   LIG    1       -8.251   5.502   0.393  0.00  0.00    +0.040 A 
ATOM     11  F   LIG    1      -10.322   6.525   0.901  0.00  0.00    -0.140 F 
ATOM     12  F   LIG    1       -6.481   7.715   3.393  0.00  0.00    -0.130 F 
ATOM     13  C   LIG    1       -6.888   5.351   0.641  0.00  0.00    -0.200 A 
ATOM     14  S   LIG    1       -5.674   4.334  -0.130  0.00  0.00    +0.000 S 
ENDBRANCH   2   4
BRANCH   1  21
ATOM     15  C   LIG    1        1.860  -1.648   1.053  0.00  0.00    +0.170 C 
ATOM     16  C   LIG    1        1.385  -0.307   0.555  0.00  0.00    +0.080 C 
ATOM     17  N   LIG    1        2.077   0.767   0.526  0.00  0.00    -0.300 NA
ATOM     18  O   LIG    1        1.367   1.875  -0.001  0.00  0.00    -0.170 OA
ATOM     19  C   LIG    1       -0.019   1.531   0.011  0.00  0.00    +0.040 C 
ATOM     20  C   LIG    1       -0.879   2.184   1.086  0.00  0.00    +0.050 C 
ATOM     21  C   LIG    1       -1.228   3.252   0.032  0.00  0.00    +0.020 C 
ATOM     22  C   LIG    1       -0.900   2.196  -1.040  0.00  0.00    +0.090 C 
ATOM     23  C   LIG    1        0.002  -0.004   0.002  0.00  0.00    +0.060 C 
ENDBRANCH   1  21
TORSDOF 2
