REMARK  Name = ZINCnE00000hdbJL.0
REMARK                            x       y       z     vdW  Elec       q    Type
REMARK                         _______ _______ _______ _____ _____    ______ ____
ROOT
ATOM      1  C   LIG    1        5.666   2.815  -0.038  0.00  0.00    +0.220 A 
ATOM      2  N   LIG    1        4.913   1.742  -0.036  0.00  0.00    -0.510 NA
ATOM      3  C   LIG    1        3.625   2.087  -0.022  0.00  0.00    +0.310 A 
ATOM      4  C   LIG    1        2.416   1.353  -0.014  0.00  0.00    -0.150 A 
ATOM      5  C   LIG    1        2.399  -0.046  -0.022  0.00  0.00    +0.100 A 
ATOM      6  C   LIG    1        1.204  -0.705  -0.014  0.00  0.00    -0.050 A 
ATOM      7  C   LIG    1        0.002  -0.004   0.002  0.00  0.00    +0.050 A 
ATOM      8  C   LIG    1       -0.016   1.360   0.009  0.00  0.00    +0.000 A 
ATOM      9  C   LIG    1        1.191   2.071   0.002  0.00  0.00    +0.190 A 
ATOM     10  N   LIG    1        1.217   3.412   0.008  0.00  0.00    -0.530 NA
ATOM     11  C   LIG    1        2.363   4.075   0.000  0.00  0.00    +0.510 A 
ATOM     12  S   LIG    1        2.328   5.787   0.010  0.00  0.00    -0.690 S 
ATOM     13  N   LIG    1        3.551   3.453  -0.015  0.00  0.00    -0.310 N 
ATOM     14  N   LIG    1        4.877   3.911  -0.025  0.00  0.00    -0.290 NA
ENDROOT
BRANCH   1  15
ATOM     15  C   LIG    1        7.173   2.824  -0.052  0.00  0.00    +0.350 C 
BRANCH  15  16
ATOM     16  O   LIG    1        7.658   1.480  -0.064  0.00  0.00    -0.290 OA
BRANCH  16  23
ATOM     17  C   LIG    1        8.637  -1.170  -0.075  0.00  0.00    +0.100 C 
ATOM     18  C   LIG    1        9.546   0.032  -0.085  0.00  0.00    -0.110 A 
ATOM     19  C   LIG    1       10.916  -0.138  -0.105  0.00  0.00    +0.040 A 
ATOM     20  C   LIG    1       11.751   0.965  -0.106  0.00  0.00    -0.040 A 
ATOM     21  C   LIG    1       11.216   2.240  -0.094  0.00  0.00    +0.030 A 
ATOM     22  C   LIG    1        9.845   2.415  -0.080  0.00  0.00    -0.080 A 
ATOM     23  C   LIG    1        9.006   1.310  -0.078  0.00  0.00    +0.130 A 
ENDBRANCH  16  23
ENDBRANCH  15  16
ENDBRANCH   1  15
TORSDOF 3
