REMARK  Name = ZINC9l0000002lhP.0
REMARK                            x       y       z     vdW  Elec       q    Type
REMARK                         _______ _______ _______ _____ _____    ______ ____
ROOT
ATOM      1  C   LIG    1       -1.284   3.480   0.027  0.00  0.00    -0.120 C 
ATOM      2  C   LIG    1       -1.698   2.721   1.289  0.00  0.00    +0.000 C 
ATOM      3  C   LIG    1        0.094   4.145   0.024  0.00  0.00    +0.060 C 
ATOM      4  C   LIG    1       -1.330   1.951   0.019  0.00  0.00    -0.110 C 
ENDROOT
BRANCH   4   5
ATOM      5  C   LIG    1       -0.015   1.215   0.009  0.00  0.00    +0.520 C 
ATOM      6  O   LIG    1        1.033   1.839   0.002  0.00  0.00    -0.690 OA
ATOM      7  O   LIG    1        0.002  -0.004   0.002  0.00  0.00    -0.700 OA
ENDBRANCH   4   5
BRANCH   1   9
ATOM      8  C   LIG    1       -2.156   5.732  -0.613  0.00  0.00    +0.000 C 
ATOM      9  C   LIG    1       -2.378   4.224  -0.742  0.00  0.00    +0.030 C 
ENDBRANCH   1   9
TORSDOF 2
