REMARK  Name = ZINCnE000001OfCX.0
REMARK                            x       y       z     vdW  Elec       q    Type
REMARK                         _______ _______ _______ _____ _____    ______ ____
ROOT
ATOM      1  C   LIG    1       -3.949   5.143  -1.790  0.00  0.00    +0.030 C 
ATOM      2  C   LIG    1       -3.486   3.869  -1.080  0.00  0.00    +0.170 C 
ATOM      3  C   LIG    1       -2.768   4.232   0.233  0.00  0.00    +0.030 C 
ATOM      4  C   LIG    1       -3.615   3.584   1.351  0.00  0.00    +0.040 C 
ATOM      5  C   LIG    1       -5.000   3.406   0.676  0.00  0.00    +0.190 C 
ATOM      6  N   LIG    1       -4.654   3.036  -0.720  0.00  0.00    -0.460 N 
ENDROOT
BRANCH   3   7
ATOM      7  C   LIG    1       -1.371   3.665   0.239  0.00  0.00    -0.050 A 
ATOM      8  C   LIG    1       -0.285   4.508   0.378  0.00  0.00    +0.040 A 
ATOM      9  C   LIG    1        0.997   3.990   0.383  0.00  0.00    +0.020 A 
ATOM     10  C   LIG    1        1.194   2.627   0.249  0.00  0.00    +0.060 A 
ATOM     11  C   LIG    1        0.103   1.781   0.109  0.00  0.00    +0.070 A 
ATOM     12  F   LIG    1        0.292   0.450  -0.023  0.00  0.00    -0.130 F 
ATOM     13  F   LIG    1        2.446   2.120   0.254  0.00  0.00    -0.130 F 
ATOM     14  C   LIG    1       -1.178   2.303   0.099  0.00  0.00    +0.030 A 
ENDBRANCH   3   7
BRANCH   6  15
ATOM     15  C   LIG    1       -5.715   3.275  -1.574  0.00  0.00    +0.270 A 
ATOM     16  C   LIG    1       -5.997   2.364  -2.591  0.00  0.00    -0.030 A 
ATOM     17  C   LIG    1       -7.048   2.603  -3.434  0.00  0.00    +0.100 A 
ATOM     18  C   LIG    1       -7.811   3.767  -3.241  0.00  0.00    -0.180 A 
ATOM     19  C   LIG    1       -7.470   4.636  -2.201  0.00  0.00    +0.290 A 
ATOM     20  N   LIG    1       -6.454   4.365  -1.409  0.00  0.00    -0.520 NA
BRANCH  18  21
ATOM     21  C   LIG    1       -8.950   4.068  -4.123  0.00  0.00    +0.520 C 
ATOM     22  O   LIG    1       -9.608   5.084  -3.947  0.00  0.00    -0.680 OA
ATOM     23  O   LIG    1       -9.240   3.301  -5.031  0.00  0.00    -0.680 OA
ENDBRANCH  18  21
ENDBRANCH   6  15
TORSDOF 3
