REMARK  Name = ZINCrD00000756oC.0
REMARK                            x       y       z     vdW  Elec       q    Type
REMARK                         _______ _______ _______ _____ _____    ______ ____
ROOT
ATOM      1  N   LIG    1       -6.048   2.106   4.248  0.00  0.00    -0.740 N 
ATOM      2  H   LIG    1       -6.882   1.913   4.704  0.00  0.00    +0.390 HD
ATOM      3  C   LIG    1       -5.883   1.742   2.961  0.00  0.00    +0.710 C 
ATOM      4  N   LIG    1       -6.836   1.023   2.336  0.00  0.00    -0.630 N 
ATOM      5  C   LIG    1       -6.626   0.531   0.968  0.00  0.00    +0.300 C 
ATOM      6  C   LIG    1       -6.873  -0.985   0.950  0.00  0.00    +0.000 C 
ATOM      7  C   LIG    1       -8.265  -1.276   1.516  0.00  0.00    +0.170 C 
ATOM      8  C   LIG    1       -8.339  -0.793   2.966  0.00  0.00    +0.040 C 
ATOM      9  C   LIG    1       -8.107   0.721   3.008  0.00  0.00    +0.280 C 
ATOM     10  O   LIG    1       -4.873   2.064   2.364  0.00  0.00    -0.580 OA
ENDROOT
BRANCH   1  11
ATOM     11  C   LIG    1       -4.967   2.792   4.960  0.00  0.00    +0.340 C 
ATOM     12  C   LIG    1       -3.994   1.758   5.530  0.00  0.00    +0.020 C 
BRANCH  11  19
ATOM     13  C   LIG    1       -3.649   5.360   6.268  0.00  0.00    +0.160 C 
ATOM     14  C   LIG    1       -4.965   4.743   6.664  0.00  0.00    +0.090 A 
ATOM     15  N   LIG    1       -5.763   5.175   7.607  0.00  0.00    -0.290 NA
ATOM     16  N   LIG    1       -6.878   4.330   7.659  0.00  0.00    -0.370 N 
ATOM     17  C   LIG    1       -6.719   3.374   6.720  0.00  0.00    +0.230 A 
ATOM     18  C   LIG    1       -8.014   4.457   8.575  0.00  0.00    +0.360 C 
ATOM     19  C   LIG    1       -5.547   3.610   6.086  0.00  0.00    -0.240 A 
ENDBRANCH  11  19
ENDBRANCH   1  11
BRANCH   7  20
ATOM     20  O   LIG    1       -8.513  -2.682   1.469  0.00  0.00    -0.300 OA
BRANCH  20  21
ATOM     21  C   LIG    1       -8.959  -3.192   0.289  0.00  0.00    +0.090 A 
ATOM     22  C   LIG    1       -9.224  -2.345  -0.776  0.00  0.00    -0.010 A 
ATOM     23  C   LIG    1       -9.672  -2.865  -1.976  0.00  0.00    +0.030 A 
ATOM     24  C   LIG    1       -9.868  -4.228  -2.111  0.00  0.00    +0.090 A 
ATOM     25  C   LIG    1       -9.610  -5.076  -1.047  0.00  0.00    +0.010 A 
ATOM     26  F   LIG    1      -10.312  -4.733  -3.284  0.00  0.00    -0.130 F 
ATOM     27  C   LIG    1       -9.156  -4.560   0.153  0.00  0.00    +0.100 A 
ATOM     28  F   LIG    1       -8.904  -5.386   1.192  0.00  0.00    -0.120 F 
ENDBRANCH  20  21
ENDBRANCH   7  20
TORSDOF 4
