REMARK  Name = ZINCkj00000hbRbH.2
REMARK                            x       y       z     vdW  Elec       q    Type
REMARK                         _______ _______ _______ _____ _____    ______ ____
ROOT
ATOM      1  N   LIG    1       -0.101   3.590  -2.594  0.00  0.00    -0.500 N 
ATOM      2  H   LIG    1       -0.428   4.514  -2.833  0.00  0.00    +0.430 HD
ATOM      3  H   LIG    1       -0.332   2.948  -3.337  0.00  0.00    +0.430 HD
ENDROOT
BRANCH   1   4
ATOM      4  C   LIG    1       -0.744   3.149  -1.349  0.00  0.00    +0.170 C 
ATOM      5  C   LIG    1       -0.811   1.623  -1.198  0.00  0.00    -0.010 C 
ATOM      6  C   LIG    1       -0.013   1.086   0.008  0.00  0.00    +0.040 C 
ATOM      7  C   LIG    1       -0.785   1.608   1.231  0.00  0.00    +0.210 C 
ATOM      8  O   LIG    1       -2.081   2.027   0.789  0.00  0.00    -0.350 OA
ATOM      9  C   LIG    1       -2.231   1.823  -0.618  0.00  0.00    +0.200 C 
ATOM     10  C   LIG    1       -2.280   3.134  -1.423  0.00  0.00    -0.090 C 
ATOM     11  C   LIG    1       -2.941   4.290  -0.670  0.00  0.00    +0.070 C 
ATOM     12  C   LIG    1       -2.823   2.960  -2.842  0.00  0.00    +0.080 C 
ENDBRANCH   1   4
BRANCH   1  13
ATOM     13  C   LIG    1        1.356   3.619  -2.408  0.00  0.00    +0.260 C 
BRANCH  13  17
ATOM     14  N   LIG    1        4.026   5.256  -4.306  0.00  0.00    -0.510 NA
ATOM     15  C   LIG    1        3.014   6.300  -4.002  0.00  0.00    +0.190 C 
ATOM     16  C   LIG    1        1.666   5.548  -4.003  0.00  0.00    +0.020 C 
ATOM     17  C   LIG    1        2.027   4.078  -3.704  0.00  0.00    -0.010 C 
ATOM     18  C   LIG    1        3.563   4.066  -3.547  0.00  0.00    +0.190 C 
BRANCH  14  19
ATOM     19  C   LIG    1        5.363   5.675  -3.865  0.00  0.00    +0.190 C 
BRANCH  19  20
ATOM     20  C   LIG    1        5.860   6.815  -4.755  0.00  0.00    +0.180 C 
BRANCH  20  22
ATOM     21  C   LIG    1        5.406   9.089  -5.362  0.00  0.00    +0.200 C 
ATOM     22  O   LIG    1        5.026   7.961  -4.572  0.00  0.00    -0.390 OA
ENDBRANCH  20  22
ENDBRANCH  19  20
ENDBRANCH  14  19
ENDBRANCH  13  17
ENDBRANCH   1  13
TORSDOF 6
