REMARK  Name = ZINCvU0000000DJb.0
REMARK                            x       y       z     vdW  Elec       q    Type
REMARK                         _______ _______ _______ _____ _____    ______ ____
ROOT
ATOM      1  N   LIG    1        1.341  -0.563   0.068  0.00  0.00    -0.510 NA
ATOM      2  C   LIG    1        2.123  -0.202  -1.126  0.00  0.00    +0.450 C 
ATOM      3  N   LIG    1        3.515  -0.618  -0.898  0.00  0.00    -0.730 N 
ATOM      4  H   LIG    1        4.254  -0.033  -1.126  0.00  0.00    +0.410 HD
ATOM      5  C   LIG    1        3.744  -1.883  -0.342  0.00  0.00    +0.240 A 
ATOM      6  C   LIG    1        5.022  -2.425  -0.357  0.00  0.00    -0.050 A 
ATOM      7  C   LIG    1        5.247  -3.672   0.194  0.00  0.00    +0.090 A 
ATOM      8  C   LIG    1        4.199  -4.377   0.758  0.00  0.00    -0.140 A 
ATOM      9  C   LIG    1        2.925  -3.839   0.772  0.00  0.00    +0.100 A 
ATOM     10 BR   LIG    1        4.510  -6.083   1.513  0.00  0.00    -0.060 Br
ATOM     11  C   LIG    1        2.692  -2.592   0.222  0.00  0.00    -0.140 A 
ATOM     12  C   LIG    1        1.299  -2.020   0.243  0.00  0.00    +0.250 C 
ENDROOT
BRANCH   2  13
ATOM     13  C   LIG    1        2.066   1.289  -1.341  0.00  0.00    -0.110 A 
ATOM     14  C   LIG    1        2.446   2.148  -0.327  0.00  0.00    +0.120 A 
ATOM     15  C   LIG    1        2.394   3.516  -0.525  0.00  0.00    +0.030 A 
ATOM     16  C   LIG    1        1.961   4.023  -1.735  0.00  0.00    +0.120 A 
ATOM     17  C   LIG    1        1.580   3.163  -2.749  0.00  0.00    -0.040 A 
ATOM     18  C   LIG    1        1.637   1.796  -2.553  0.00  0.00    +0.110 A 
BRANCH  17  19
ATOM     19  N   LIG    1        1.116   3.707  -4.045  0.00  0.00    +0.030 N 
ATOM     20  O   LIG    1        0.781   2.950  -4.938  0.00  0.00    -0.160 OA
ATOM     21  O   LIG    1        1.070   4.912  -4.219  0.00  0.00    -0.150 OA
ENDBRANCH  17  19
ENDBRANCH   2  13
BRANCH  12  22
ATOM     22  C   LIG    1        0.646  -2.345   1.561  0.00  0.00    -0.090 A 
ATOM     23  C   LIG    1        0.927  -1.581   2.679  0.00  0.00    +0.040 A 
ATOM     24  C   LIG    1        0.324  -1.877   3.887  0.00  0.00    +0.000 A 
ATOM     25  C   LIG    1       -0.551  -2.943   3.981  0.00  0.00    +0.010 A 
ATOM     26  C   LIG    1       -0.828  -3.710   2.864  0.00  0.00    +0.000 A 
ATOM     27  C   LIG    1       -0.229  -3.411   1.655  0.00  0.00    +0.000 A 
ENDBRANCH  12  22
BRANCH   1  28
ATOM     28  C   LIG    1       -0.015  -0.002  -0.001  0.00  0.00    +0.310 C 
BRANCH  28  29
ATOM     29  C   LIG    1       -0.745  -0.597  -1.177  0.00  0.00    +0.430 C 
ATOM     30  O   LIG    1       -0.163  -1.328  -1.943  0.00  0.00    -0.500 OA
BRANCH  29  32
ATOM     31  C   LIG    1       -2.712  -1.013  -2.457  0.00  0.00    +0.270 C 
ATOM     32  O   LIG    1       -2.044  -0.318  -1.371  0.00  0.00    -0.360 OA
ENDBRANCH  29  32
ENDBRANCH  28  29
ENDBRANCH   1  28
TORSDOF 6
