REMARK  Name = ZINCpk00000y6ysy.1
REMARK                            x       y       z     vdW  Elec       q    Type
REMARK                         _______ _______ _______ _____ _____    ______ ____
ROOT
ATOM      1  C   LIG    1       -7.310   1.610   3.793  0.00  0.00    +0.170 C 
ATOM      2  C   LIG    1       -6.496   2.887   4.133  0.00  0.00    +0.030 C 
ATOM      3  C   LIG    1       -5.225   2.726   3.272  0.00  0.00    +0.260 C 
ATOM      4  N   LIG    1       -5.557   1.810   2.171  0.00  0.00    -0.620 N 
ATOM      5  C   LIG    1       -4.707   1.397   1.210  0.00  0.00    +0.530 C 
ATOM      6  O   LIG    1       -5.091   0.637   0.346  0.00  0.00    -0.530 OA
ATOM      7  C   LIG    1       -6.974   1.421   2.290  0.00  0.00    +0.290 C 
ENDROOT
BRANCH   1   8
ATOM      8  O   LIG    1       -8.710   1.831   3.979  0.00  0.00    -0.290 OA
BRANCH   8  11
ATOM      9  C   LIG    1      -11.062   1.397   6.721  0.00  0.00    +0.170 A 
ATOM     10  C   LIG    1      -10.577   1.719   5.470  0.00  0.00    -0.040 A 
ATOM     11  C   LIG    1       -9.224   1.530   5.199  0.00  0.00    +0.170 A 
ATOM     12  C   LIG    1       -8.411   1.030   6.213  0.00  0.00    -0.120 A 
ATOM     13  C   LIG    1       -8.971   0.737   7.439  0.00  0.00    +0.300 A 
ATOM     14  N   LIG    1      -10.259   0.925   7.656  0.00  0.00    -0.500 NA
BRANCH   9  15
ATOM     15  C   LIG    1      -12.525   1.592   7.025  0.00  0.00    +0.250 C 
BRANCH  15  17
ATOM     16  C   LIG    1      -12.817  -0.690   7.779  0.00  0.00    +0.190 C 
ATOM     17  N   LIG    1      -13.242   0.329   6.810  0.00  0.00    -0.540 NA
ATOM     18  C   LIG    1      -14.696   0.533   6.865  0.00  0.00    +0.190 C 
ENDBRANCH  15  17
ENDBRANCH   9  15
ENDBRANCH   8  11
ENDBRANCH   1   8
BRANCH   5  19
ATOM     19  C   LIG    1       -3.280   1.881   1.207  0.00  0.00    +0.090 C 
BRANCH  19  20
ATOM     20  C   LIG    1       -2.536   1.268   0.019  0.00  0.00    +0.170 C 
BRANCH  20  21
ATOM     21  C   LIG    1       -1.109   1.752   0.016  0.00  0.00    +0.210 A 
ATOM     22  N   LIG    1       -0.729   3.001   0.025  0.00  0.00    -0.490 NA
ATOM     23  C   LIG    1        0.611   3.055   0.013  0.00  0.00    +0.140 A 
ATOM     24  C   LIG    1        1.079   1.793   0.001  0.00  0.00    +0.120 A 
ATOM     25  N   LIG    1       -0.011   0.966   0.007  0.00  0.00    -0.570 N 
ATOM     26  H   LIG    1        0.002  -0.004   0.002  0.00  0.00    +0.420 HD
ENDBRANCH  20  21
ENDBRANCH  19  20
ENDBRANCH   5  19
TORSDOF 7
