REMARK  Name = ZINCpe00000FUpld.0
REMARK                            x       y       z     vdW  Elec       q    Type
REMARK                         _______ _______ _______ _____ _____    ______ ____
ROOT
ATOM      1  N   LIG    1        8.209  -1.964  -2.175  0.00  0.00    -0.520 NA
ATOM      2  C   LIG    1        7.122  -2.871  -2.570  0.00  0.00    +0.190 C 
ATOM      3  C   LIG    1        5.804  -2.093  -2.615  0.00  0.00    +0.190 C 
ATOM      4  N   LIG    1        5.541  -1.504  -1.294  0.00  0.00    -0.530 NA
ATOM      5  C   LIG    1        6.628  -0.598  -0.899  0.00  0.00    +0.180 C 
ATOM      6  C   LIG    1        7.946  -1.376  -0.854  0.00  0.00    +0.190 C 
ENDROOT
BRANCH   1   7
ATOM      7  C   LIG    1        9.505  -2.657  -2.193  0.00  0.00    +0.210 C 
BRANCH   7   9
ATOM      8  O   LIG    1        9.158  -2.648  -4.528  0.00  0.00    -0.520 OA
ATOM      9  C   LIG    1        9.855  -3.029  -3.611  0.00  0.00    +0.520 C 
ATOM     10  N   LIG    1       10.943  -3.784  -3.860  0.00  0.00    -0.620 N 
ATOM     11  C   LIG    1       11.807  -4.253  -2.765  0.00  0.00    +0.240 C 
ATOM     12  C   LIG    1       12.008  -5.768  -2.929  0.00  0.00    +0.220 C 
ATOM     13  O   LIG    1       12.462  -6.041  -4.256  0.00  0.00    -0.380 OA
ATOM     14  C   LIG    1       11.533  -5.675  -5.279  0.00  0.00    +0.220 C 
ATOM     15  C   LIG    1       11.305  -4.160  -5.236  0.00  0.00    +0.260 C 
ENDBRANCH   7   9
ENDBRANCH   1   7
BRANCH   4  16
ATOM     16  C   LIG    1        4.246  -0.812  -1.276  0.00  0.00    +0.160 C 
BRANCH  16  17
ATOM     17  C   LIG    1        3.892  -0.431   0.163  0.00  0.00    +0.260 C 
BRANCH  17  18
ATOM     18  C   LIG    1        2.563   0.279   0.183  0.00  0.00    -0.110 A 
ATOM     19  C   LIG    1        1.404  -0.430   0.435  0.00  0.00    +0.030 A 
ATOM     20  C   LIG    1        0.185   0.222   0.454  0.00  0.00    +0.020 A 
ATOM     21  C   LIG    1        0.124   1.582   0.219  0.00  0.00    +0.020 A 
ATOM     22  C   LIG    1        1.283   2.293  -0.034  0.00  0.00    +0.030 A 
ATOM     23  C   LIG    1        2.503   1.641  -0.052  0.00  0.00    -0.030 A 
ATOM     24 CL   LIG    1        3.958   2.533  -0.368  0.00  0.00    -0.060 Cl
ENDBRANCH  17  18
BRANCH  17  25
ATOM     25  O   LIG    1        3.812  -1.613   0.963  0.00  0.00    -0.540 OA
ATOM     26  H   LIG    1        3.146  -2.246   0.663  0.00  0.00    +0.370 HD
ENDBRANCH  17  25
ENDBRANCH  16  17
ENDBRANCH   4  16
TORSDOF 6
