REMARK  Name = ZINCrH00000tj1aR.0
REMARK                            x       y       z     vdW  Elec       q    Type
REMARK                         _______ _______ _______ _____ _____    ______ ____
ROOT
ATOM      1  C   LIG    1        2.315   4.122   2.048  0.00  0.00    +0.250 C 
ATOM      2  C   LIG    1        0.933   4.610   2.531  0.00  0.00    +0.140 C 
ATOM      3  S   LIG    1       -0.159   4.270   1.097  0.00  0.00    -0.230 S 
ATOM      4  C   LIG    1        1.150   3.592   0.010  0.00  0.00    +0.210 C 
ATOM      5  C   LIG    1        1.030   4.186  -1.404  0.00  0.00    +0.090 C 
ATOM      6  C   LIG    1        2.504   4.463  -1.754  0.00  0.00    +0.090 C 
ATOM      7  C   LIG    1        3.185   4.622  -0.414  0.00  0.00    +0.540 C 
ATOM      8  O   LIG    1        4.295   5.083  -0.253  0.00  0.00    -0.460 OA
ATOM      9  N   LIG    1        2.386   4.178   0.579  0.00  0.00    -0.610 N 
ENDROOT
BRANCH   4  10
ATOM     10  C   LIG    1        1.171   2.086   0.002  0.00  0.00    -0.070 A 
ATOM     11  C   LIG    1       -0.017   1.378   0.010  0.00  0.00    +0.060 A 
ATOM     12  C   LIG    1        0.002  -0.004   0.002  0.00  0.00    +0.050 A 
ATOM     13  C   LIG    1        1.209  -0.679  -0.013  0.00  0.00    -0.080 A 
ATOM     14  C   LIG    1        2.397   0.029  -0.021  0.00  0.00    +0.050 A 
ATOM     15 BR   LIG    1        1.236  -2.570  -0.023  0.00  0.00    -0.040 Br
ATOM     16  C   LIG    1        2.378   1.411  -0.013  0.00  0.00    +0.040 A 
ENDBRANCH   4  10
BRANCH   1  18
ATOM     17  O   LIG    1        4.136   5.616   1.902  0.00  0.00    -0.480 OA
ATOM     18  C   LIG    1        3.388   5.003   2.634  0.00  0.00    +0.500 C 
ATOM     19  N   LIG    1        3.516   5.110   3.972  0.00  0.00    -0.720 N 
ATOM     20  H   LIG    1        2.918   4.620   4.557  0.00  0.00    +0.400 HD
BRANCH  19  21
ATOM     21  C   LIG    1        4.559   5.967   4.541  0.00  0.00    +0.330 C 
BRANCH  21  22
ATOM     22  C   LIG    1        4.488   5.912   6.045  0.00  0.00    -0.150 A 
ATOM     23  C   LIG    1        5.428   5.189   6.755  0.00  0.00    +0.070 A 
ATOM     24  C   LIG    1        5.364   5.138   8.135  0.00  0.00    +0.000 A 
ATOM     25  C   LIG    1        4.359   5.809   8.807  0.00  0.00    +0.060 A 
ATOM     26  C   LIG    1        3.418   6.533   8.099  0.00  0.00    -0.020 A 
ATOM     27  C   LIG    1        3.485   6.590   6.718  0.00  0.00    +0.110 A 
ATOM     28  F   LIG    1        2.569   7.301   6.025  0.00  0.00    -0.130 F 
ENDBRANCH  21  22
ENDBRANCH  19  21
ENDBRANCH   1  18
TORSDOF 4
