REMARK  Name = ZINCrD000000C9EM.0
REMARK                            x       y       z     vdW  Elec       q    Type
REMARK                         _______ _______ _______ _____ _____    ______ ____
ROOT
ATOM      1  C   LIG    1       -1.215  -0.671   0.103  0.00  0.00    +0.220 A 
ATOM      2  C   LIG    1       -2.405   0.045   0.111  0.00  0.00    +0.010 A 
ATOM      3  C   LIG    1       -3.611  -0.619   0.209  0.00  0.00    +0.090 A 
ATOM      4  C   LIG    1       -3.646  -2.001   0.301  0.00  0.00    -0.010 A 
ATOM      5  C   LIG    1       -2.475  -2.729   0.294  0.00  0.00    +0.120 A 
ATOM      6  C   LIG    1       -1.247  -2.072   0.190  0.00  0.00    -0.170 A 
ENDROOT
BRANCH   1   9
ATOM      7  O   LIG    1       -0.930   1.680  -1.104  0.00  0.00    -0.510 OA
ATOM      8  C   LIG    1        0.059   1.211  -0.576  0.00  0.00    +0.560 C 
ATOM      9  N   LIG    1        0.002  -0.004   0.004  0.00  0.00    -0.660 N 
ATOM     10  H   LIG    1        0.809  -0.413   0.352  0.00  0.00    +0.430 HD
BRANCH   8  11
ATOM     11  C   LIG    1        1.326   1.971  -0.576  0.00  0.00    -0.140 A 
ATOM     12  C   LIG    1        2.465   1.436   0.030  0.00  0.00    +0.070 A 
ATOM     13  C   LIG    1        3.645   2.148   0.023  0.00  0.00    +0.020 A 
ATOM     14  C   LIG    1        3.701   3.397  -0.574  0.00  0.00    -0.010 A 
ATOM     15  C   LIG    1        2.574   3.935  -1.172  0.00  0.00    +0.020 A 
ATOM     16 CL   LIG    1        5.189   4.290  -0.572  0.00  0.00    -0.060 Cl
ATOM     17  C   LIG    1        1.388   3.231  -1.176  0.00  0.00    +0.110 A 
ENDBRANCH   8  11
ENDBRANCH   1   9
BRANCH   6  18
ATOM     18  C   LIG    1        0.008  -2.844   0.177  0.00  0.00    +0.530 C 
ATOM     19  O   LIG    1        1.077  -2.266   0.181  0.00  0.00    -0.520 OA
BRANCH  18  20
ATOM     20  O   LIG    1       -0.029  -4.191   0.160  0.00  0.00    -0.320 OA
BRANCH  20  21
ATOM     21  C   LIG    1        1.245  -4.886   0.147  0.00  0.00    +0.250 C 
BRANCH  21  22
ATOM     22  C   LIG    1        1.006  -6.374   0.129  0.00  0.00    +0.530 C 
ATOM     23  N   LIG    1        2.051  -7.225   0.115  0.00  0.00    -0.620 N 
ATOM     24  C   LIG    1        3.470  -6.839   0.110  0.00  0.00    +0.230 C 
ATOM     25  C   LIG    1        4.299  -8.140   0.069  0.00  0.00    +0.040 C 
ATOM     26  C   LIG    1        3.300  -9.167  -0.526  0.00  0.00    +0.030 C 
ATOM     27  C   LIG    1        1.962  -8.696   0.097  0.00  0.00    +0.260 C 
ATOM     28  O   LIG    1       -0.127  -6.806   0.126  0.00  0.00    -0.510 OA
ENDBRANCH  21  22
ENDBRANCH  20  21
ENDBRANCH  18  20
ENDBRANCH   6  18
TORSDOF 6
