REMARK  Name = ZINCrH000004uquO.0
REMARK                            x       y       z     vdW  Elec       q    Type
REMARK                         _______ _______ _______ _____ _____    ______ ____
ROOT
ATOM      1  C   LIG    1        1.153   8.507   0.530  0.00  0.00    -0.150 A 
ATOM      2  C   LIG    1        1.998   7.459   0.161  0.00  0.00    +0.180 A 
ATOM      3  C   LIG    1        1.516   6.433  -0.626  0.00  0.00    -0.690 A 
ATOM      4  C   LIG    1        0.201   6.444  -1.054  0.00  0.00    +0.170 A 
ATOM      5  C   LIG    1       -0.645   7.475  -0.688  0.00  0.00    +0.010 A 
ATOM      6  C   LIG    1       -0.176   8.509   0.099  0.00  0.00    +0.070 A 
ATOM      7 CL   LIG    1       -1.236   9.807   0.553  0.00  0.00    -0.010 Cl
ENDROOT
BRANCH   1   9
ATOM      8  O   LIG    1        0.924  10.520   1.693  0.00  0.00    -0.510 OA
ATOM      9  C   LIG    1        1.662   9.609   1.373  0.00  0.00    +0.560 C 
ATOM     10  N   LIG    1        2.944   9.603   1.787  0.00  0.00    -0.720 N 
ATOM     11  H   LIG    1        3.533   8.876   1.532  0.00  0.00    +0.400 HD
BRANCH  10  12
ATOM     12  C   LIG    1        3.449  10.695   2.623  0.00  0.00    +0.300 C 
BRANCH  12  13
ATOM     13  C   LIG    1        4.923  10.448   2.951  0.00  0.00    +0.140 C 
ATOM     14  C   LIG    1        5.443  11.521   3.933  0.00  0.00    +0.010 C 
ATOM     15  C   LIG    1        6.890  11.790   3.464  0.00  0.00    +0.000 C 
ATOM     16  C   LIG    1        7.073  10.848   2.253  0.00  0.00    +0.190 C 
ATOM     17  O   LIG    1        5.735  10.607   1.767  0.00  0.00    -0.370 OA
ENDBRANCH  12  13
ENDBRANCH  10  12
ENDBRANCH   1   9
BRANCH   3  18
ATOM     18  S   LIG    1        2.582   5.110  -1.093  0.00  0.00    +2.690 S 
ATOM     19  O   LIG    1        2.074   4.599  -2.318  0.00  0.00    -0.940 OA
ATOM     20  O   LIG    1        3.910   5.592  -0.943  0.00  0.00    -0.940 OA
BRANCH  18  21
ATOM     21  N   LIG    1        2.391   3.907   0.029  0.00  0.00    -1.060 N 
ATOM     22  H   LIG    1        3.136   3.646   0.592  0.00  0.00    +0.430 HD
BRANCH  21  23
ATOM     23  C   LIG    1        1.155   3.269   0.166  0.00  0.00    +0.120 A 
ATOM     24  C   LIG    1        0.740   2.346  -0.786  0.00  0.00    +0.060 A 
ATOM     25  C   LIG    1       -0.481   1.716  -0.648  0.00  0.00    +0.040 A 
ATOM     26  C   LIG    1       -1.294   2.008   0.433  0.00  0.00    -0.030 A 
ATOM     27  C   LIG    1       -0.880   2.922   1.386  0.00  0.00    +0.040 A 
ATOM     28 CL   LIG    1       -2.832   1.220   0.599  0.00  0.00    -0.060 Cl
ATOM     29  C   LIG    1        0.340   3.555   1.253  0.00  0.00    +0.040 A 
ENDBRANCH  21  23
ENDBRANCH  18  21
ENDBRANCH   3  18
TORSDOF 6
