REMARK  Name = ZINCpe00000bm5uy.0
REMARK                            x       y       z     vdW  Elec       q    Type
REMARK                         _______ _______ _______ _____ _____    ______ ____
ROOT
ATOM      1  C   LIG    1       -5.820  -5.401   3.864  0.00  0.00    +0.520 C 
ATOM      2  N   LIG    1       -5.258  -5.498   2.643  0.00  0.00    -0.600 N 
ATOM      3  C   LIG    1       -4.245  -6.526   2.365  0.00  0.00    +0.290 C 
ATOM      4  C   LIG    1       -2.994  -5.845   1.801  0.00  0.00    +0.030 C 
ATOM      5  C   LIG    1       -3.381  -4.989   0.597  0.00  0.00    -0.070 C 
ATOM      6  C   LIG    1       -4.382  -3.912   1.008  0.00  0.00    +0.030 C 
ATOM      7  C   LIG    1       -3.994  -5.879  -0.501  0.00  0.00    +0.020 C 
ATOM      8  C   LIG    1       -2.804  -6.188  -1.446  0.00  0.00    +0.020 C 
ATOM      9  C   LIG    1       -2.021  -4.852  -1.458  0.00  0.00    +0.010 C 
ATOM     10  C   LIG    1       -2.128  -4.337  -0.007  0.00  0.00    +0.240 C 
ATOM     11  C   LIG    1       -5.645  -4.577   1.565  0.00  0.00    +0.270 C 
ATOM     12  O   LIG    1       -5.562  -6.223   4.717  0.00  0.00    -0.530 OA
ENDROOT
BRANCH  10  13
ATOM     13  N   LIG    1       -2.268  -2.879  -0.001  0.00  0.00    -0.730 N 
ATOM     14  H   LIG    1       -3.150  -2.476   0.010  0.00  0.00    +0.400 HD
ATOM     15  C   LIG    1       -1.171  -2.096  -0.010  0.00  0.00    +0.510 C 
ATOM     16  O   LIG    1       -0.067  -2.599  -0.023  0.00  0.00    -0.510 OA
BRANCH  15  17
ATOM     17  C   LIG    1       -1.315  -0.596  -0.003  0.00  0.00    +0.200 C 
BRANCH  17  18
ATOM     18  O   LIG    1       -0.019   0.007  -0.015  0.00  0.00    -0.370 OA
ATOM     19  C   LIG    1       -0.043   1.436  -0.010  0.00  0.00    +0.200 C 
ENDBRANCH  17  18
ENDBRANCH  15  17
ENDBRANCH  10  13
BRANCH   1  20
ATOM     20  C   LIG    1       -6.769  -4.270   4.169  0.00  0.00    +0.230 C 
ATOM     21  C   LIG    1       -8.178  -4.650   3.709  0.00  0.00    +0.060 C 
BRANCH  20  23
ATOM     22  C   LIG    1       -7.118  -2.798   6.079  0.00  0.00    +0.520 C 
ATOM     23  N   LIG    1       -6.777  -4.015   5.611  0.00  0.00    -0.720 N 
ATOM     24  H   LIG    1       -6.538  -4.723   6.230  0.00  0.00    +0.410 HD
ATOM     25  O   LIG    1       -7.417  -1.913   5.305  0.00  0.00    -0.540 OA
BRANCH  22  27
ATOM     26  C   LIG    1       -7.545  -1.087   7.822  0.00  0.00    +0.040 C 
ATOM     27  C   LIG    1       -7.127  -2.536   7.563  0.00  0.00    +0.060 C 
ENDBRANCH  22  27
ENDBRANCH  20  23
ENDBRANCH   1  20
TORSDOF 6
