REMARK  Name = ZINCqH00000380vk.0
REMARK                            x       y       z     vdW  Elec       q    Type
REMARK                         _______ _______ _______ _____ _____    ______ ____
ROOT
ATOM      1  C   LIG    1       -0.034   0.980   0.036  0.00  0.00    +0.110 C 
ATOM      2  C   LIG    1       -0.731   1.500   1.267  0.00  0.00    -0.080 A 
ATOM      3  C   LIG    1       -1.950   0.970   1.643  0.00  0.00    +0.030 A 
ATOM      4  C   LIG    1       -2.592   1.437   2.773  0.00  0.00    +0.040 A 
ATOM      5  C   LIG    1       -2.015   2.456   3.532  0.00  0.00    -0.120 A 
ATOM      6  C   LIG    1       -0.787   2.995   3.149  0.00  0.00    +0.090 A 
ATOM      7  C   LIG    1       -0.148   2.515   2.016  0.00  0.00    +0.130 A 
ENDROOT
BRANCH   5   8
ATOM      8  C   LIG    1       -2.703   2.963   4.738  0.00  0.00    +0.560 C 
ATOM      9  N   LIG    1       -4.047   3.068   4.754  0.00  0.00    -0.600 N 
ATOM     10  C   LIG    1       -4.754   3.444   5.986  0.00  0.00    +0.270 C 
ATOM     11  C   LIG    1       -5.659   4.647   5.681  0.00  0.00    -0.030 C 
ATOM     12  C   LIG    1       -6.580   4.301   4.508  0.00  0.00    +0.030 C 
ATOM     13  C   LIG    1       -5.737   4.007   3.265  0.00  0.00    -0.030 C 
ATOM     14  C   LIG    1       -6.659   3.693   2.085  0.00  0.00    +0.030 C 
ATOM     15  C   LIG    1       -4.799   5.858   5.315  0.00  0.00    +0.020 C 
ATOM     16  C   LIG    1       -4.832   2.801   3.541  0.00  0.00    +0.270 C 
ATOM     17  O   LIG    1       -2.057   3.286   5.716  0.00  0.00    -0.530 OA
ENDBRANCH   5   8
BRANCH   7  18
ATOM     18  N   LIG    1        1.084   3.052   1.627  0.00  0.00    -0.660 N 
ATOM     19  H   LIG    1        1.751   2.484   1.212  0.00  0.00    +0.410 HD
ATOM     20  C   LIG    1        1.343   4.359   1.829  0.00  0.00    +0.560 C 
ATOM     21  O   LIG    1        0.542   5.052   2.426  0.00  0.00    -0.500 OA
BRANCH  20  22
ATOM     22  C   LIG    1        2.603   4.951   1.325  0.00  0.00    -0.090 A 
ATOM     23  C   LIG    1        3.541   4.170   0.641  0.00  0.00    +0.000 A 
ATOM     24  C   LIG    1        4.700   4.765   0.183  0.00  0.00    +0.270 A 
ATOM     25  N   LIG    1        4.933   6.045   0.392  0.00  0.00    -0.460 NA
ATOM     26  C   LIG    1        4.079   6.815   1.036  0.00  0.00    +0.270 A 
ATOM     27  C   LIG    1        2.892   6.305   1.524  0.00  0.00    +0.040 A 
ENDBRANCH  20  22
ENDBRANCH   7  18
TORSDOF 3
