REMARK  Name = ZINCrg00000y1y71.0
REMARK                            x       y       z     vdW  Elec       q    Type
REMARK                         _______ _______ _______ _____ _____    ______ ____
ROOT
ATOM      1  C   LIG    1        0.079   1.759  -2.699  0.00  0.00    +0.430 A 
ATOM      2  C   LIG    1       -0.478   2.223  -3.903  0.00  0.00    -0.050 A 
ATOM      3  N   LIG    1       -1.709   2.642  -4.284  0.00  0.00    -0.450 NA
ATOM      4  C   LIG    1       -1.684   2.969  -5.543  0.00  0.00    +0.480 A 
ATOM      5  N   LIG    1       -0.432   2.780  -6.050  0.00  0.00    -0.470 N 
ATOM      6  C   LIG    1        0.355   2.306  -5.031  0.00  0.00    +0.300 A 
ATOM      7  N   LIG    1        1.630   1.947  -4.920  0.00  0.00    -0.530 NA
ATOM      8  C   LIG    1        2.109   1.519  -3.771  0.00  0.00    +0.540 A 
ATOM      9  N   LIG    1        1.366   1.428  -2.684  0.00  0.00    -0.570 NA
ENDROOT
BRANCH   1  10
ATOM     10  N   LIG    1       -0.693   1.655  -1.555  0.00  0.00    -0.460 N 
BRANCH  10  12
ATOM     11  C   LIG    1        0.247   3.722  -0.637  0.00  0.00    -0.010 C 
ATOM     12  C   LIG    1       -1.035   2.984  -1.029  0.00  0.00    +0.260 C 
ENDBRANCH  10  12
BRANCH  10  13
ATOM     13  C   LIG    1       -0.016   0.843  -0.536  0.00  0.00    +0.200 C 
BRANCH  13  14
ATOM     14  C   LIG    1       -1.049   0.312   0.461  0.00  0.00    +0.270 C 
BRANCH  14  15
ATOM     15  C   LIG    1       -0.377  -0.631   1.426  0.00  0.00    -0.120 A 
ATOM     16  C   LIG    1        0.261  -0.133   2.547  0.00  0.00    +0.010 A 
ATOM     17  C   LIG    1        0.873  -0.998   3.434  0.00  0.00    +0.000 A 
ATOM     18  C   LIG    1        0.857  -2.360   3.196  0.00  0.00    -0.080 A 
ATOM     19  C   LIG    1        0.223  -2.857   2.072  0.00  0.00    +0.000 A 
ATOM     20  C   LIG    1        1.529  -3.302   4.160  0.00  0.00    +0.090 C 
ATOM     21  C   LIG    1       -0.394  -1.992   1.187  0.00  0.00    +0.020 A 
ENDBRANCH  14  15
BRANCH  14  22
ATOM     22  O   LIG    1       -1.621   1.405   1.182  0.00  0.00    -0.550 OA
ATOM     23  H   LIG    1       -0.978   1.923   1.686  0.00  0.00    +0.370 HD
ENDBRANCH  14  22
ENDBRANCH  13  14
ENDBRANCH  10  13
ENDBRANCH   1  10
BRANCH   5  24
ATOM     24  C   LIG    1       -0.007   3.035  -7.428  0.00  0.00    +0.290 C 
BRANCH  24  25
ATOM     25  C   LIG    1       -0.092   1.738  -8.236  0.00  0.00    +0.200 C 
BRANCH  25  26
ATOM     26  O   LIG    1        0.847   0.793  -7.719  0.00  0.00    -0.540 OA
ATOM     27  H   LIG    1        1.766   1.092  -7.755  0.00  0.00    +0.380 HD
ENDBRANCH  25  26
BRANCH  25  28
ATOM     28  C   LIG    1        0.232   2.029  -9.703  0.00  0.00    +0.160 C 
BRANCH  28  29
ATOM     29  O   LIG    1        0.040   0.844 -10.477  0.00  0.00    -0.560 OA
ATOM     30  H   LIG    1        0.228   0.954 -11.419  0.00  0.00    +0.380 HD
ENDBRANCH  28  29
ENDBRANCH  25  28
ENDBRANCH  24  25
ENDBRANCH   5  24
TORSDOF 11
