REMARK  Name = ZINCvU0000000GkD.0
REMARK                            x       y       z     vdW  Elec       q    Type
REMARK                         _______ _______ _______ _____ _____    ______ ____
ROOT
ATOM      1  N   LIG    1       -0.945  -1.945  -1.430  0.00  0.00    -0.510 N 
ATOM      2  C   LIG    1       -0.413  -3.182  -1.393  0.00  0.00    +0.560 A 
ATOM      3  C   LIG    1       -0.477  -3.995  -2.561  0.00  0.00    -0.230 A 
ATOM      4  C   LIG    1       -1.092  -3.469  -3.692  0.00  0.00    +0.090 A 
ATOM      5  S   LIG    1       -1.052  -4.646  -4.998  0.00  0.00    +0.230 S 
ATOM      6  C   LIG    1       -0.213  -5.825  -4.008  0.00  0.00    -0.030 A 
ATOM      7  N   LIG    1       -1.601  -2.221  -3.654  0.00  0.00    -0.520 NA
ATOM      8  C   LIG    1        0.014  -5.351  -2.782  0.00  0.00    +0.040 A 
ATOM      9  O   LIG    1        0.116  -3.599  -0.376  0.00  0.00    -0.500 OA
ATOM     10  C   LIG    1       -1.540  -1.486  -2.569  0.00  0.00    +0.370 A 
ENDROOT
BRANCH   8  11
ATOM     11  C   LIG    1        0.705  -6.133  -1.737  0.00  0.00    +0.040 A 
ATOM     12  C   LIG    1        0.404  -7.406  -1.363  0.00  0.00    -0.040 A 
ATOM     13  C   LIG    1        1.312  -7.754  -0.342  0.00  0.00    -0.070 A 
ATOM     14  C   LIG    1        2.108  -6.687  -0.141  0.00  0.00    +0.170 A 
ATOM     15  O   LIG    1        1.738  -5.709  -0.986  0.00  0.00    -0.150 OA
ENDBRANCH   8  11
BRANCH   1  16
ATOM     16  C   LIG    1       -0.891  -1.091  -0.240  0.00  0.00    +0.340 C 
BRANCH  16  18
ATOM     17  C   LIG    1        0.315   1.031  -0.175  0.00  0.00    +0.070 C 
ATOM     18  C   LIG    1        0.376  -0.275  -0.266  0.00  0.00    -0.070 C 
ENDBRANCH  16  18
ENDBRANCH   1  16
BRANCH  10  19
ATOM     19  S   LIG    1       -2.233   0.133  -2.586  0.00  0.00    +0.100 S 
BRANCH  19  20
ATOM     20  C   LIG    1       -2.854   0.192  -4.285  0.00  0.00    +0.100 C 
BRANCH  20  21
ATOM     21  C   LIG    1       -3.509   1.526  -4.536  0.00  0.00    +0.540 C 
ATOM     22  N   LIG    1       -3.951   1.839  -5.770  0.00  0.00    -0.600 N 
ATOM     23  O   LIG    1       -3.637   2.318  -3.627  0.00  0.00    -0.520 OA
BRANCH  22  24
ATOM     24  C   LIG    1       -4.479   3.178  -6.041  0.00  0.00    +0.290 C 
BRANCH  24  25
ATOM     25  C   LIG    1       -3.340   4.093  -6.496  0.00  0.00    -0.040 C 
ATOM     26  C   LIG    1       -3.866   5.520  -6.659  0.00  0.00    +0.030 C 
ATOM     27  C   LIG    1       -2.790   3.595  -7.835  0.00  0.00    +0.030 C 
ENDBRANCH  24  25
ENDBRANCH  22  24
BRANCH  22  28
ATOM     28  C   LIG    1       -3.904   0.839  -6.840  0.00  0.00    +0.280 C 
BRANCH  28  29
ATOM     29  C   LIG    1       -5.267   0.155  -6.959  0.00  0.00    -0.030 C 
ATOM     30  C   LIG    1       -5.545  -0.653  -5.689  0.00  0.00    +0.010 C 
ATOM     31  C   LIG    1       -5.263  -0.782  -8.168  0.00  0.00    +0.030 C 
ENDBRANCH  28  29
ENDBRANCH  22  28
ENDBRANCH  20  21
ENDBRANCH  19  20
ENDBRANCH  10  19
TORSDOF 10
