REMARK  Name = ZINC9l0000002pXC.0
REMARK                            x       y       z     vdW  Elec       q    Type
REMARK                         _______ _______ _______ _____ _____    ______ ____
ROOT
ATOM      1  C   LIG    1       -1.097   4.266  -0.940  0.00  0.00    -0.000 C 
ATOM      2  C   LIG    1       -1.474   2.816  -1.250  0.00  0.00    -0.010 C 
ATOM      3  C   LIG    1       -2.953   2.731  -1.672  0.00  0.00    -0.020 C 
ATOM      4  C   LIG    1       -3.654   1.821  -0.642  0.00  0.00    -0.020 C 
ATOM      5  C   LIG    1       -2.510   0.952  -0.063  0.00  0.00    +0.020 C 
ATOM      6  C   LIG    1       -1.330   1.951   0.019  0.00  0.00    -0.090 C 
ENDROOT
BRANCH   6   7
ATOM      7  C   LIG    1       -0.015   1.215   0.009  0.00  0.00    +0.500 C 
ATOM      8  O   LIG    1        1.033   1.839   0.002  0.00  0.00    -0.700 OA
ATOM      9  O   LIG    1        0.002  -0.004   0.002  0.00  0.00    -0.700 OA
ENDBRANCH   6   7
TORSDOF 1
