REMARK  Name = ZINCkj000005ju6g.1
REMARK                            x       y       z     vdW  Elec       q    Type
REMARK                         _______ _______ _______ _____ _____    ______ ____
ROOT
ATOM      1  C   LIG    1        0.733  -0.063  -2.434  0.00  0.00    +0.040 C 
ATOM      2  C   LIG    1        1.276  -0.054  -1.004  0.00  0.00    +0.230 C 
ATOM      3  C   LIG    1        0.105  -0.096   0.002  0.00  0.00    +0.050 C 
ATOM      4  C   LIG    1       -0.080   1.397   0.381  0.00  0.00    +0.060 C 
ATOM      5  C   LIG    1        1.382   1.907   0.363  0.00  0.00    +0.260 C 
ATOM      6  N   LIG    1        2.018   1.191  -0.758  0.00  0.00    -0.590 N 
ATOM      7  C   LIG    1        3.099   1.609  -1.445  0.00  0.00    +0.520 C 
ATOM      8  O   LIG    1        3.486   0.981  -2.407  0.00  0.00    -0.520 OA
ENDROOT
BRANCH   7   9
ATOM      9  C   LIG    1        3.828   2.856  -1.016  0.00  0.00    +0.140 C 
ATOM     10  C   LIG    1        3.182   4.077  -1.676  0.00  0.00    +0.280 C 
ATOM     11  O   LIG    1        3.912   5.252  -1.310  0.00  0.00    -0.350 OA
ATOM     12  C   LIG    1        5.295   5.203  -1.669  0.00  0.00    +0.270 C 
ATOM     13  C   LIG    1        5.945   3.985  -1.009  0.00  0.00    +0.250 C 
ATOM     14  N   LIG    1        5.236   2.768  -1.427  0.00  0.00    -0.490 N 
ATOM     15  H   LIG    1        5.288   2.676  -2.431  0.00  0.00    +0.440 HD
ATOM     16  H   LIG    1        5.663   1.963  -0.993  0.00  0.00    +0.440 HD
ENDBRANCH   7   9
BRANCH   3  17
ATOM     17  C   LIG    1       -1.139  -0.639  -0.651  0.00  0.00    -0.080 A 
ATOM     18  C   LIG    1       -1.855   0.146  -1.535  0.00  0.00    +0.010 A 
ATOM     19  C   LIG    1       -2.994  -0.354  -2.138  0.00  0.00    +0.000 A 
ATOM     20  C   LIG    1       -3.424  -1.636  -1.848  0.00  0.00    +0.020 A 
ATOM     21  C   LIG    1       -2.711  -2.419  -0.960  0.00  0.00    +0.020 A 
ATOM     22  C   LIG    1       -1.569  -1.921  -0.361  0.00  0.00    +0.010 A 
ENDBRANCH   3  17
TORSDOF 2
