REMARK  Name = ZINCkj000005ixXk.1
REMARK                            x       y       z     vdW  Elec       q    Type
REMARK                         _______ _______ _______ _____ _____    ______ ____
ROOT
ATOM      1  N   LIG    1       -0.428   1.534   1.087  0.00  0.00    -0.530 NA
ATOM      2  C   LIG    1        0.570   1.303   0.034  0.00  0.00    +0.200 C 
ENDROOT
BRANCH   1   3
ATOM      3  C   LIG    1        0.025   0.984   2.372  0.00  0.00    +0.210 C 
BRANCH   3   6
ATOM      4  C   LIG    1       -1.749  -2.146   3.178  0.00  0.00    +0.170 C 
ATOM      5  C   LIG    1       -1.627  -0.909   2.248  0.00  0.00    +0.110 C 
ATOM      6  C   LIG    1       -0.133  -0.537   2.359  0.00  0.00    +0.170 C 
ATOM      7  N   LIG    1        0.365  -1.104   3.626  0.00  0.00    -0.380 N 
ATOM      8  C   LIG    1        0.884  -0.027   4.479  0.00  0.00    +0.330 C 
ATOM      9  H   LIG    1        1.101  -1.768   3.435  0.00  0.00    +0.430 HD
ATOM     10  C   LIG    1       -0.754  -1.785   4.310  0.00  0.00    +0.240 C 
BRANCH   4  12
ATOM     11  C   LIG    1       -3.471  -3.622   3.952  0.00  0.00    +0.230 C 
ATOM     12  O   LIG    1       -3.078  -2.274   3.687  0.00  0.00    -0.360 OA
ENDBRANCH   4  12
ENDBRANCH   3   6
ENDBRANCH   1   3
BRANCH   1  13
ATOM     13  C   LIG    1       -0.744   2.964   1.209  0.00  0.00    +0.340 C 
BRANCH  13  14
ATOM     14  C   LIG    1       -1.432   3.435  -0.047  0.00  0.00    +0.160 A 
ATOM     15  N   LIG    1       -2.712   3.435  -0.269  0.00  0.00    -0.360 NA
ATOM     16  O   LIG    1       -2.947   3.877  -1.374  0.00  0.00    +0.090 OA
ATOM     17  C   LIG    1       -1.804   4.210  -1.980  0.00  0.00    +0.200 A 
ATOM     18  N   LIG    1       -0.833   3.938  -1.141  0.00  0.00    -0.480 NA
BRANCH  17  19
ATOM     19  C   LIG    1       -1.658   4.795  -3.362  0.00  0.00    +0.120 C 
ATOM     20  C   LIG    1       -2.409   6.126  -3.434  0.00  0.00    +0.060 C 
ATOM     21  C   LIG    1       -2.242   3.824  -4.390  0.00  0.00    +0.060 C 
ENDBRANCH  17  19
ENDBRANCH  13  14
ENDBRANCH   1  13
TORSDOF 6
