REMARK  Name = ZINCkj000005ixXk.0
REMARK                            x       y       z     vdW  Elec       q    Type
REMARK                         _______ _______ _______ _____ _____    ______ ____
ROOT
ATOM      1  N   LIG    1        5.460   1.247   1.349  0.00  0.00    -0.560 NA
ATOM      2  C   LIG    1        4.974   0.772   0.046  0.00  0.00    +0.230 C 
ENDROOT
BRANCH   1   3
ATOM      3  C   LIG    1        6.928   1.254   1.392  0.00  0.00    +0.230 C 
BRANCH   3   6
ATOM      4  C   LIG    1        9.151   0.212   4.143  0.00  0.00    +0.180 C 
ATOM      5  C   LIG    1        8.931   1.127   2.909  0.00  0.00    +0.100 C 
ATOM      6  C   LIG    1        7.396   1.267   2.849  0.00  0.00    +0.170 C 
ATOM      7  N   LIG    1        6.823   0.115   3.569  0.00  0.00    -0.380 N 
ATOM      8  C   LIG    1        6.037   0.589   4.716  0.00  0.00    +0.330 C 
ATOM      9  H   LIG    1        6.231  -0.415   2.947  0.00  0.00    +0.430 HD
ATOM     10  C   LIG    1        7.931  -0.739   4.048  0.00  0.00    +0.240 C 
BRANCH   4  12
ATOM     11  C   LIG    1       10.916  -0.941   5.283  0.00  0.00    +0.230 C 
ATOM     12  O   LIG    1       10.376  -0.514   4.030  0.00  0.00    -0.360 OA
ENDBRANCH   4  12
ENDBRANCH   3   6
ENDBRANCH   1   3
BRANCH   1  13
ATOM     13  C   LIG    1        4.918   2.577   1.660  0.00  0.00    +0.330 C 
BRANCH  13  14
ATOM     14  C   LIG    1        3.426   2.479   1.848  0.00  0.00    +0.170 A 
ATOM     15  N   LIG    1        2.805   2.248   2.966  0.00  0.00    -0.380 NA
ATOM     16  O   LIG    1        1.606   2.231   2.784  0.00  0.00    +0.080 OA
ATOM     17  C   LIG    1        1.340   2.456   1.494  0.00  0.00    +0.210 A 
ATOM     18  N   LIG    1        2.493   2.611   0.888  0.00  0.00    -0.480 NA
BRANCH  17  19
ATOM     19  C   LIG    1       -0.024   2.515   0.856  0.00  0.00    +0.110 C 
ATOM     20  C   LIG    1       -0.739   1.177   1.055  0.00  0.00    +0.060 C 
ATOM     21  C   LIG    1       -0.843   3.632   1.505  0.00  0.00    +0.060 C 
ENDBRANCH  17  19
ENDBRANCH  13  14
ENDBRANCH   1  13
TORSDOF 6
