REMARK  Name = ZINCpe000000WiAE.0
REMARK                            x       y       z     vdW  Elec       q    Type
REMARK                         _______ _______ _______ _____ _____    ______ ____
ROOT
ATOM      1  C   LIG    1        5.815   2.431  -0.044  0.00  0.00    +0.010 C 
ATOM      2  N   LIG    1        4.857   1.560  -0.038  0.00  0.00    -0.110 NA
ATOM      3  N   LIG    1        3.582   2.121  -0.022  0.00  0.00    -0.430 N 
ATOM      4  C   LIG    1        3.706   3.587  -0.022  0.00  0.00    +0.210 C 
ATOM      5  C   LIG    1        5.229   3.824  -0.031  0.00  0.00    +0.140 C 
ENDROOT
BRANCH   3   6
ATOM      6  C   LIG    1        2.381   1.409  -0.013  0.00  0.00    +0.210 A 
ATOM      7  C   LIG    1        1.169   2.087   0.002  0.00  0.00    -0.040 A 
ATOM      8  C   LIG    1       -0.017   1.379   0.010  0.00  0.00    +0.050 A 
ATOM      9  C   LIG    1        0.002  -0.004   0.002  0.00  0.00    -0.020 A 
ATOM     10  C   LIG    1        1.207  -0.683  -0.013  0.00  0.00    +0.050 A 
ATOM     11  C   LIG    1        2.396   0.019  -0.021  0.00  0.00    -0.020 A 
ENDBRANCH   3   6
BRANCH   4  12
ATOM     12  C   LIG    1        3.088   4.171   1.223  0.00  0.00    +0.510 C 
ATOM     13  O   LIG    1        2.891   3.466   2.190  0.00  0.00    -0.510 OA
ATOM     14  N   LIG    1        2.756   5.477   1.262  0.00  0.00    -0.850 N 
ATOM     15  H   LIG    1        2.359   5.852   2.063  0.00  0.00    +0.410 HD
ATOM     16  H   LIG    1        2.914   6.040   0.488  0.00  0.00    +0.400 HD
ENDBRANCH   4  12
BRANCH   1  17
ATOM     17  C   LIG    1        7.200   2.125  -0.061  0.00  0.00    +0.560 C 
ATOM     18  O   LIG    1        8.021   3.023  -0.065  0.00  0.00    -0.490 OA
BRANCH  17  19
ATOM     19  O   LIG    1        7.607   0.839  -0.072  0.00  0.00    -0.330 OA
BRANCH  19  20
ATOM     20  C   LIG    1        9.016   0.604  -0.088  0.00  0.00    +0.360 C 
BRANCH  20  24
ATOM     21  C   LIG    1        9.641  -2.962  -0.649  0.00  0.00    +0.210 A 
ATOM     22  N   LIG    1        9.630  -2.823   0.650  0.00  0.00    -0.400 NA
ATOM     23  O   LIG    1        9.435  -1.674   0.970  0.00  0.00    +0.110 OA
ATOM     24  C   LIG    1        9.278  -0.880  -0.099  0.00  0.00    -0.020 A 
ATOM     25  C   LIG    1        9.407  -1.671  -1.189  0.00  0.00    -0.020 A 
BRANCH  21  27
ATOM     26  C   LIG    1       10.056  -5.301  -0.581  0.00  0.00    +0.260 C 
ATOM     27  O   LIG    1        9.838  -4.112  -1.343  0.00  0.00    -0.280 OA
ENDBRANCH  21  27
ENDBRANCH  20  24
ENDBRANCH  19  20
ENDBRANCH  17  19
ENDBRANCH   1  17
TORSDOF 7
