REMARK  Name = ZINCrg00000fRFPf.0
REMARK                            x       y       z     vdW  Elec       q    Type
REMARK                         _______ _______ _______ _____ _____    ______ ____
ROOT
ATOM      1  N   LIG    1       -0.237  10.504  -2.062  0.00  0.00    -0.690 NA
ATOM      2  C   LIG    1       -0.755   9.382  -1.573  0.00  0.00    +0.490 A 
ATOM      3  C   LIG    1       -1.824   9.283  -0.656  0.00  0.00    -0.110 A 
ATOM      4  C   LIG    1       -2.049   7.975  -0.409  0.00  0.00    +0.360 A 
ATOM      5  N   LIG    1       -1.165   7.229  -1.132  0.00  0.00    -0.380 N 
ATOM      6  N   LIG    1       -0.346   8.101  -1.861  0.00  0.00    -0.480 N 
ATOM      7  H   LIG    1        0.375   7.848  -2.459  0.00  0.00    +0.450 HD
ENDROOT
BRANCH   1   8
ATOM      8  C   LIG    1       -0.735  11.691  -1.688  0.00  0.00    +0.570 C 
ATOM      9  O   LIG    1       -1.663  11.741  -0.898  0.00  0.00    -0.550 OA
BRANCH   8  13
ATOM     10  C   LIG    1        0.243  15.080  -2.664  0.00  0.00    -0.760 A 
ATOM     11  C   LIG    1        1.118  14.334  -3.379  0.00  0.00    +0.310 A 
ATOM     12  N   LIG    1        0.881  13.022  -3.122  0.00  0.00    -0.400 N 
ATOM     13  C   LIG    1       -0.161  12.932  -2.229  0.00  0.00    -0.020 A 
ATOM     14  C   LIG    1        1.612  11.892  -3.699  0.00  0.00    +0.340 C 
ATOM     15  C   LIG    1       -0.573  14.204  -1.939  0.00  0.00    +0.120 A 
BRANCH  10  16
ATOM     16  S   LIG    1        0.144  16.839  -2.654  0.00  0.00    +2.730 S 
ATOM     17  O   LIG    1        1.423  17.315  -3.049  0.00  0.00    -0.970 OA
ATOM     18  O   LIG    1       -0.474  17.199  -1.426  0.00  0.00    -0.960 OA
BRANCH  16  20
ATOM     19  C   LIG    1       -2.323  16.902  -3.761  0.00  0.00    +0.300 C 
ATOM     20  N   LIG    1       -0.910  17.278  -3.853  0.00  0.00    -1.120 NA
ATOM     21  H   LIG    1       -0.591  17.784  -4.617  0.00  0.00    +0.420 HD
ENDBRANCH  16  20
ENDBRANCH  10  16
ENDBRANCH   8  13
ENDBRANCH   1   8
BRANCH   5  22
ATOM     22  C   LIG    1       -1.083   5.766  -1.140  0.00  0.00    +0.350 C 
BRANCH  22  23
ATOM     23  C   LIG    1       -0.217   5.298   0.031  0.00  0.00    +0.100 C 
BRANCH  23  24
ATOM     24  C   LIG    1       -0.132   3.793   0.023  0.00  0.00    +0.120 A 
ATOM     25  C   LIG    1        1.106   3.179   0.008  0.00  0.00    -0.020 A 
ATOM     26  C   LIG    1        1.173   1.794   0.001  0.00  0.00    +0.070 A 
ATOM     27  C   LIG    1       -0.013   1.076   0.008  0.00  0.00    -0.030 A 
ATOM     28  C   LIG    1       -1.214   1.759   0.017  0.00  0.00    +0.270 A 
ATOM     29  N   LIG    1       -1.240   3.078   0.029  0.00  0.00    -0.480 NA
ENDBRANCH  23  24
ENDBRANCH  22  23
ENDBRANCH   5  22
TORSDOF 7
