REMARK  Name = ZINCpe00000FUpPJ.0
REMARK                            x       y       z     vdW  Elec       q    Type
REMARK                         _______ _______ _______ _____ _____    ______ ____
ROOT
ATOM      1  C   LIG    1        2.399  -4.212   0.050  0.00  0.00    +0.200 A 
ATOM      2  C   LIG    1        1.185  -4.886   0.057  0.00  0.00    +0.000 A 
ATOM      3  C   LIG    1        1.164  -6.265   0.137  0.00  0.00    +0.150 A 
ATOM      4  C   LIG    1        2.349  -6.973   0.220  0.00  0.00    -0.690 A 
ATOM      5  C   LIG    1        3.559  -6.304   0.219  0.00  0.00    +0.150 A 
ATOM      6  C   LIG    1        3.588  -4.926   0.135  0.00  0.00    -0.020 A 
ENDROOT
BRANCH   1   9
ATOM      7  O   LIG    1        0.669  -2.797  -1.395  0.00  0.00    -0.500 OA
ATOM      8  C   LIG    1        1.483  -2.167  -0.749  0.00  0.00    +0.580 C 
ATOM      9  N   LIG    1        2.425  -2.816  -0.036  0.00  0.00    -0.660 N 
ATOM     10  H   LIG    1        3.120  -2.315   0.418  0.00  0.00    +0.430 HD
BRANCH   8  11
ATOM     11  C   LIG    1        1.440  -0.687  -0.745  0.00  0.00    +0.020 A 
ATOM     12  C   LIG    1        0.466  -0.014  -1.482  0.00  0.00    +0.310 A 
ATOM     13  N   LIG    1        0.432   1.307  -1.475  0.00  0.00    -0.440 NA
ATOM     14  C   LIG    1        1.318   1.988  -0.771  0.00  0.00    +0.260 A 
ATOM     15  C   LIG    1        2.288   1.321  -0.036  0.00  0.00    +0.230 A 
ATOM     16  N   LIG    1        2.330   0.004  -0.038  0.00  0.00    -0.410 NA
ENDBRANCH   8  11
ENDBRANCH   1   9
BRANCH   4  17
ATOM     17  S   LIG    1        2.317  -8.731   0.329  0.00  0.00    +2.690 S 
ATOM     18  O   LIG    1        3.576  -9.186  -0.146  0.00  0.00    -0.950 OA
ATOM     19  O   LIG    1        1.079  -9.145  -0.233  0.00  0.00    -0.950 OA
BRANCH  17  20
ATOM     20  N   LIG    1        2.254  -9.122   1.937  0.00  0.00    -0.990 NA
ATOM     21  C   LIG    1        0.963  -9.278   2.620  0.00  0.00    +0.300 C 
ATOM     22  C   LIG    1        0.949  -8.378   3.860  0.00  0.00    +0.020 C 
ATOM     23  C   LIG    1        2.164  -8.700   4.732  0.00  0.00    +0.000 C 
ATOM     24  C   LIG    1        3.447  -8.419   3.946  0.00  0.00    +0.150 C 
ATOM     25  C   LIG    1        3.490  -9.325   2.706  0.00  0.00    +0.320 C 
BRANCH  24  26
ATOM     26  O   LIG    1        4.581  -8.690   4.772  0.00  0.00    -0.560 OA
ATOM     27  H   LIG    1        4.618  -8.156   5.578  0.00  0.00    +0.380 HD
ENDBRANCH  24  26
ENDBRANCH  17  20
ENDBRANCH   4  17
TORSDOF 5
