REMARK  Name = ZINCpk00000ebJ3S.0
REMARK                            x       y       z     vdW  Elec       q    Type
REMARK                         _______ _______ _______ _____ _____    ______ ____
ROOT
ATOM      1  O   LIG    1       -5.184   4.312   6.197  0.00  0.00    -0.550 OA
ATOM      2  C   LIG    1       -5.372   4.291   4.991  0.00  0.00    +0.520 A 
ATOM      3  C   LIG    1       -5.967   5.392   4.352  0.00  0.00    -0.080 A 
ATOM      4  C   LIG    1       -6.171   5.341   3.007  0.00  0.00    +0.130 A 
ATOM      5  C   LIG    1       -5.781   4.199   2.281  0.00  0.00    -0.210 A 
ATOM      6  C   LIG    1       -5.196   3.166   2.919  0.00  0.00    +0.180 A 
ATOM      7  C   LIG    1       -4.719   1.925   2.208  0.00  0.00    +0.090 C 
ATOM      8  C   LIG    1       -5.408   1.771   0.854  0.00  0.00    +0.310 C 
ATOM      9  N   LIG    1       -5.345   3.072   0.167  0.00  0.00    -0.610 N 
ATOM     10  C   LIG    1       -4.672   3.224  -0.990  0.00  0.00    +0.590 C 
ATOM     11  O   LIG    1       -4.023   2.300  -1.442  0.00  0.00    -0.520 OA
ATOM     12  C   LIG    1       -6.047   4.196   0.796  0.00  0.00    +0.350 C 
ATOM     13  N   LIG    1       -5.013   3.215   4.273  0.00  0.00    -0.610 N 
ATOM     14  H   LIG    1       -4.611   2.457   4.724  0.00  0.00    +0.410 HD
ENDROOT
BRANCH  10  15
ATOM     15  C   LIG    1       -4.721   4.511  -1.708  0.00  0.00    -0.260 A 
ATOM     16  C   LIG    1       -5.813   4.813  -2.513  0.00  0.00    +0.230 A 
ATOM     17  C   LIG    1       -6.915   3.783  -2.564  0.00  0.00    +0.100 C 
ATOM     18  C   LIG    1       -7.648   3.812  -3.903  0.00  0.00    +0.030 C 
ATOM     19  C   LIG    1       -8.832   4.777  -3.784  0.00  0.00    +0.010 C 
ATOM     20  C   LIG    1       -8.304   6.169  -3.435  0.00  0.00    +0.020 C 
ATOM     21  C   LIG    1       -6.940   6.334  -4.091  0.00  0.00    +0.290 C 
ATOM     22  N   LIG    1       -5.856   5.972  -3.176  0.00  0.00    -0.470 N 
ATOM     23  C   LIG    1       -4.856   6.879  -3.040  0.00  0.00    +0.510 A 
ATOM     24  C   LIG    1       -3.731   6.612  -2.245  0.00  0.00    -0.090 A 
ATOM     25  O   LIG    1       -4.937   7.949  -3.621  0.00  0.00    -0.540 OA
ATOM     26  C   LIG    1       -3.655   5.428  -1.581  0.00  0.00    +0.160 A 
ENDBRANCH  10  15
TORSDOF 1
