REMARK  Name = ZINCnE000001QwRz.0
REMARK                            x       y       z     vdW  Elec       q    Type
REMARK                         _______ _______ _______ _____ _____    ______ ____
ROOT
ATOM      1  C   LIG    1       -4.192   1.304   7.298  0.00  0.00    -0.040 A 
ATOM      2  C   LIG    1       -4.439   1.071   8.630  0.00  0.00    +0.090 A 
ATOM      3  C   LIG    1       -5.673   0.398   8.721  0.00  0.00    -0.260 A 
ATOM      4  C   LIG    1       -6.153   0.225   7.442  0.00  0.00    +0.140 A 
ATOM      5  C   LIG    1       -7.432  -0.473   7.438  0.00  0.00    -0.150 A 
ATOM      6  C   LIG    1       -7.875  -0.800   8.681  0.00  0.00    -0.150 A 
ATOM      7  C   LIG    1       -9.168  -1.524   8.954  0.00  0.00    +0.150 C 
ATOM      8  S   LIG    1       -6.791  -0.292   9.889  0.00  0.00    +0.140 S 
ATOM      9  N   LIG    1       -5.238   0.783   6.567  0.00  0.00    -0.520 N 
ATOM     10  H   LIG    1       -5.320   0.805   5.601  0.00  0.00    +0.420 HD
ENDROOT
BRANCH   1  13
ATOM     11  N   LIG    1       -2.890   2.141   5.416  0.00  0.00    -0.720 N 
ATOM     12  H   LIG    1       -3.579   1.807   4.821  0.00  0.00    +0.410 HD
ATOM     13  C   LIG    1       -3.015   1.982   6.749  0.00  0.00    +0.600 C 
ATOM     14  O   LIG    1       -2.151   2.402   7.496  0.00  0.00    -0.530 OA
BRANCH  11  15
ATOM     15  C   LIG    1       -1.714   2.820   4.867  0.00  0.00    +0.340 C 
ATOM     16  C   LIG    1       -1.946   4.332   4.878  0.00  0.00    +0.060 C 
BRANCH  15  21
ATOM     17  C   LIG    1       -0.013   1.086   0.008  0.00  0.00    +0.150 C 
ATOM     18  C   LIG    1       -0.718   1.572   1.248  0.00  0.00    -0.220 A 
ATOM     19  C   LIG    1       -2.026   1.821   1.362  0.00  0.00    +0.220 A 
ATOM     20  N   LIG    1       -2.402   2.234   2.555  0.00  0.00    -0.460 NA
ATOM     21  C   LIG    1       -1.482   2.357   3.452  0.00  0.00    +0.030 A 
ATOM     22  S   LIG    1        0.037   1.919   2.801  0.00  0.00    +0.140 S 
ENDBRANCH  15  21
ENDBRANCH  11  15
ENDBRANCH   1  13
BRANCH   5  23
ATOM     23  C   LIG    1       -8.169  -0.791   6.213  0.00  0.00    +0.540 C 
ATOM     24  O   LIG    1       -9.241  -1.380   6.279  0.00  0.00    -0.680 OA
ATOM     25  O   LIG    1       -7.714  -0.468   5.123  0.00  0.00    -0.690 OA
ENDBRANCH   5  23
TORSDOF 4
