REMARK  Name = ZINCpe000027pHm3.0
REMARK                            x       y       z     vdW  Elec       q    Type
REMARK                         _______ _______ _______ _____ _____    ______ ____
ROOT
ATOM      1  C   LIG    1       -5.199   2.822  -0.925  0.00  0.00    +0.250 C 
ATOM      2  C   LIG    1       -5.139   2.419   0.554  0.00  0.00    +0.300 C 
ATOM      3  N   LIG    1       -5.001   3.635   1.367  0.00  0.00    -0.610 N 
ATOM      4  C   LIG    1       -5.997   4.705   1.216  0.00  0.00    +0.210 C 
ATOM      5  C   LIG    1       -6.053   5.111  -0.267  0.00  0.00    +0.290 C 
ATOM      6  C   LIG    1       -5.588   5.911   2.065  0.00  0.00    +0.060 C 
ATOM      7  C   LIG    1       -3.981   3.765   2.239  0.00  0.00    +0.600 C 
ATOM      8  O   LIG    1       -3.916   4.745   2.956  0.00  0.00    -0.520 OA
ATOM      9  N   LIG    1       -6.192   3.894  -1.080  0.00  0.00    -0.600 N 
ATOM     10  C   LIG    1       -7.212   3.764  -1.951  0.00  0.00    +0.590 C 
ATOM     11  O   LIG    1       -7.265   2.795  -2.685  0.00  0.00    -0.520 OA
ENDROOT
BRANCH   7  12
ATOM     12  C   LIG    1       -2.947   2.720   2.324  0.00  0.00    -0.230 A 
ATOM     13  C   LIG    1       -3.148   1.369   2.399  0.00  0.00    +0.200 A 
ATOM     14  N   LIG    1       -1.946   0.765   2.465  0.00  0.00    -0.550 N 
ATOM     15  H   LIG    1       -1.811  -0.194   2.528  0.00  0.00    +0.420 HD
ATOM     16  C   LIG    1       -0.947   1.692   2.425  0.00  0.00    +0.160 A 
ATOM     17  C   LIG    1       -1.494   2.918   2.338  0.00  0.00    +0.000 A 
ENDBRANCH   7  12
BRANCH  10  18
ATOM     18  C   LIG    1       -8.261   4.795  -2.016  0.00  0.00    -0.230 A 
ATOM     19  C   LIG    1       -9.613   4.591  -2.045  0.00  0.00    +0.240 A 
ATOM     20  N   LIG    1      -10.223   5.790  -2.103  0.00  0.00    -0.550 N 
ATOM     21  H   LIG    1      -11.183   5.922  -2.134  0.00  0.00    +0.420 HD
ATOM     22  C   LIG    1       -9.297   6.792  -2.115  0.00  0.00    +0.160 A 
ATOM     23  C   LIG    1       -8.068   6.248  -2.056  0.00  0.00    -0.030 A 
ENDBRANCH  10  18
BRANCH   1  24
ATOM     24  C   LIG    1       -5.604   1.633  -1.757  0.00  0.00    +0.480 C 
ATOM     25  O   LIG    1       -6.630   1.045  -1.511  0.00  0.00    -0.490 OA
BRANCH  24  27
ATOM     26  C   LIG    1       -5.278   0.075  -3.531  0.00  0.00    +0.270 C 
ATOM     27  O   LIG    1       -4.825   1.227  -2.772  0.00  0.00    -0.360 OA
ENDBRANCH  24  27
ENDBRANCH   1  24
TORSDOF 4
