REMARK  Name = ZINCqH0000050Xjf.0
REMARK                            x       y       z     vdW  Elec       q    Type
REMARK                         _______ _______ _______ _____ _____    ______ ____
ROOT
ATOM      1  C   LIG    1       -0.230  -3.197  -1.579  0.00  0.00    +0.390 C 
ATOM      2  N   LIG    1       -0.080  -2.043  -0.689  0.00  0.00    -0.250 N 
ATOM      3  N   LIG    1       -0.050  -0.818  -1.070  0.00  0.00    -0.220 NA
ATOM      4  C   LIG    1        0.097  -0.009  -0.055  0.00  0.00    -0.050 A 
ATOM      5  C   LIG    1        0.162  -0.793   1.113  0.00  0.00    -0.060 A 
ATOM      6  C   LIG    1        0.044  -2.111   0.670  0.00  0.00    -0.020 A 
ENDROOT
BRANCH   5   7
ATOM      7  C   LIG    1        0.321  -0.321   2.509  0.00  0.00    -0.030 A 
ATOM      8  C   LIG    1       -0.702  -0.518   3.435  0.00  0.00    +0.020 A 
ATOM      9  C   LIG    1       -0.548  -0.076   4.734  0.00  0.00    +0.020 A 
ATOM     10  C   LIG    1        0.619   0.560   5.117  0.00  0.00    +0.020 A 
ATOM     11  C   LIG    1        1.638   0.758   4.203  0.00  0.00    -0.070 A 
ATOM     12  C   LIG    1        1.497   0.317   2.903  0.00  0.00    +0.030 A 
BRANCH  11  13
ATOM     13  C   LIG    1        2.906   1.451   4.628  0.00  0.00    +0.130 C 
BRANCH  13  14
ATOM     14  C   LIG    1        3.894   0.429   5.129  0.00  0.00    -0.080 A 
ATOM     15  C   LIG    1        3.913   0.085   6.468  0.00  0.00    +0.010 A 
ATOM     16  C   LIG    1        4.816  -0.857   6.926  0.00  0.00    +0.000 A 
ATOM     17  C   LIG    1        5.707  -1.446   6.047  0.00  0.00    +0.000 A 
ATOM     18  C   LIG    1        5.691  -1.097   4.710  0.00  0.00    +0.000 A 
ATOM     19  C   LIG    1        4.785  -0.159   4.251  0.00  0.00    +0.010 A 
ENDBRANCH  13  14
ENDBRANCH  11  13
ENDBRANCH   5   7
BRANCH   6  20
ATOM     20  C   LIG    1        0.052  -3.325   1.497  0.00  0.00    +0.600 C 
ATOM     21  O   LIG    1        1.109  -3.838   1.814  0.00  0.00    -0.510 OA
ATOM     22  N   LIG    1       -1.111  -3.871   1.904  0.00  0.00    -0.840 N 
ATOM     23  H   LIG    1       -1.105  -4.629   2.509  0.00  0.00    +0.410 HD
ATOM     24  H   LIG    1       -1.953  -3.506   1.592  0.00  0.00    +0.410 HD
ENDBRANCH   6  20
BRANCH   4  25
ATOM     25  C   LIG    1        0.177   1.495  -0.121  0.00  0.00    +0.560 C 
ATOM     26  F   LIG    1       -0.344   2.042   1.056  0.00  0.00    -0.160 F 
ATOM     27  F   LIG    1       -0.563   1.954  -1.216  0.00  0.00    -0.170 F 
ATOM     28  F   LIG    1        1.513   1.885  -0.265  0.00  0.00    -0.170 F 
ENDBRANCH   4  25
TORSDOF 5
