REMARK  Name = ZINCqH0000003Mu3.0
REMARK                            x       y       z     vdW  Elec       q    Type
REMARK                         _______ _______ _______ _____ _____    ______ ____
ROOT
ATOM      1  C   LIG    1       -0.130   1.181  -0.035  0.00  0.00    +0.080 A 
ATOM      2  C   LIG    1        1.087   1.768   0.284  0.00  0.00    +0.040 A 
ATOM      3  C   LIG    1        2.237   1.004   0.307  0.00  0.00    +0.020 A 
ATOM      4  C   LIG    1        2.176  -0.352   0.011  0.00  0.00    +0.140 A 
ATOM      5  C   LIG    1        0.958  -0.938  -0.308  0.00  0.00    +0.040 A 
ATOM      6  C   LIG    1       -0.191  -0.173  -0.330  0.00  0.00    +0.030 A 
ENDROOT
BRANCH   4   7
ATOM      7  N   LIG    1        3.342  -1.127   0.033  0.00  0.00    -0.660 N 
ATOM      8  H   LIG    1        4.045  -0.926   0.671  0.00  0.00    +0.410 HD
ATOM      9  C   LIG    1        3.487  -2.150  -0.831  0.00  0.00    +0.570 C 
ATOM     10  O   LIG    1        2.643  -2.352  -1.682  0.00  0.00    -0.490 OA
BRANCH   9  11
ATOM     11  C   LIG    1        4.673  -3.029  -0.743  0.00  0.00    -0.140 C 
ATOM     12  C   LIG    1        5.655  -2.804   0.229  0.00  0.00    +0.110 C 
ATOM     13  C   LIG    1        6.743  -3.658   0.272  0.00  0.00    +0.060 C 
ATOM     14  C   LIG    1        6.832  -4.689  -0.645  0.00  0.00    +0.290 C 
ATOM     15  N   LIG    1        5.892  -4.875  -1.554  0.00  0.00    -0.120 NA
ATOM     16  O   LIG    1        6.026  -5.945  -2.472  0.00  0.00    -0.540 OA
ATOM     17  C   LIG    1        4.835  -4.092  -1.632  0.00  0.00    +0.340 C 
ENDBRANCH   9  11
ENDBRANCH   4   7
BRANCH   1  18
ATOM     18  O   LIG    1       -1.261   1.935  -0.063  0.00  0.00    -0.260 OA
BRANCH  18  22
ATOM     19  C   LIG    1       -3.893   1.598   3.099  0.00  0.00    +0.100 A 
ATOM     20  C   LIG    1       -4.175   2.462   2.051  0.00  0.00    +0.030 A 
ATOM     21  C   LIG    1       -3.295   2.574   0.993  0.00  0.00    +0.040 A 
ATOM     22  C   LIG    1       -2.127   1.824   0.979  0.00  0.00    +0.080 A 
ATOM     23  C   LIG    1       -1.848   0.957   2.025  0.00  0.00    -0.020 A 
ATOM     24  C   LIG    1       -2.726   0.848   3.085  0.00  0.00    -0.040 A 
BRANCH  19  25
ATOM     25  O   LIG    1       -4.760   1.488   4.141  0.00  0.00    -0.320 OA
BRANCH  25  27
ATOM     26  C   LIG    1       -5.494   0.591   6.262  0.00  0.00    +0.070 C 
ATOM     27  C   LIG    1       -4.406   0.580   5.186  0.00  0.00    +0.170 C 
ENDBRANCH  25  27
ENDBRANCH  19  25
ENDBRANCH  18  22
ENDBRANCH   1  18
TORSDOF 6
