REMARK  Name = ZINCvU00000005tQ.0
REMARK                            x       y       z     vdW  Elec       q    Type
REMARK                         _______ _______ _______ _____ _____    ______ ____
ROOT
ATOM      1  C   LIG    1        2.583   0.526   0.278  0.00  0.00    +0.070 C 
ENDROOT
BRANCH   1   2
ATOM      2  C   LIG    1        2.756   0.099   1.713  0.00  0.00    -0.090 A 
ATOM      3  C   LIG    1        2.865   1.051   2.709  0.00  0.00    +0.020 A 
ATOM      4  C   LIG    1        3.019   0.659   4.026  0.00  0.00    +0.000 A 
ATOM      5  C   LIG    1        3.073  -0.685   4.345  0.00  0.00    +0.020 A 
ATOM      6  C   LIG    1        2.969  -1.637   3.348  0.00  0.00    +0.010 A 
ATOM      7  C   LIG    1        2.811  -1.245   2.032  0.00  0.00    +0.070 A 
ENDBRANCH   1   2
BRANCH   1  10
ATOM      8  N   LIG    1        0.125   0.709   0.066  0.00  0.00    -0.660 N 
ATOM      9  H   LIG    1        0.086  -0.259   0.032  0.00  0.00    +0.430 HD
ATOM     10  C   LIG    1        1.317   1.333   0.143  0.00  0.00    +0.550 C 
ATOM     11  O   LIG    1        1.372   2.544   0.104  0.00  0.00    -0.500 OA
BRANCH   8  16
ATOM     12  C   LIG    1       -4.662   3.751  -0.086  0.00  0.00    +0.120 C 
ATOM     13  C   LIG    1       -3.390   2.943  -0.045  0.00  0.00    -0.100 A 
ATOM     14  C   LIG    1       -2.252   3.415  -0.673  0.00  0.00    +0.100 A 
ATOM     15  C   LIG    1       -1.084   2.680  -0.633  0.00  0.00    +0.040 A 
ATOM     16  C   LIG    1       -1.056   1.459   0.028  0.00  0.00    +0.210 A 
ATOM     17  C   LIG    1       -2.200   0.987   0.657  0.00  0.00    -0.070 A 
ATOM     18  C   LIG    1       -3.364   1.730   0.618  0.00  0.00    +0.120 A 
BRANCH  17  19
ATOM     19  N   LIG    1       -2.173  -0.311   1.367  0.00  0.00    +0.040 N 
ATOM     20  O   LIG    1       -1.124  -0.919   1.486  0.00  0.00    -0.170 OA
ATOM     21  O   LIG    1       -3.200  -0.772   1.833  0.00  0.00    -0.150 OA
ENDBRANCH  17  19
ENDBRANCH   8  16
ENDBRANCH   1  10
BRANCH   1  22
ATOM     22  S   LIG    1        3.999   1.535  -0.226  0.00  0.00    +0.060 S 
BRANCH  22  23
ATOM     23  C   LIG    1        5.284   0.334  -0.119  0.00  0.00    +0.190 A 
ATOM     24  N   LIG    1        5.023  -0.912   0.256  0.00  0.00    -0.520 NA
ATOM     25  C   LIG    1        5.979  -1.823   0.340  0.00  0.00    +0.520 A 
ATOM     26  N   LIG    1        7.235  -1.568   0.062  0.00  0.00    -0.510 NA
ATOM     27  C   LIG    1        7.610  -0.340  -0.327  0.00  0.00    +0.170 A 
ATOM     28  C   LIG    1        8.943  -0.032  -0.631  0.00  0.00    +0.040 A 
ATOM     29  C   LIG    1        9.269   1.233  -1.023  0.00  0.00    +0.060 A 
ATOM     30  C   LIG    1        8.298   2.225  -1.125  0.00  0.00    +0.030 A 
ATOM     31  C   LIG    1        6.992   1.959  -0.836  0.00  0.00    +0.060 A 
ATOM     32  C   LIG    1        6.623   0.670  -0.437  0.00  0.00    -0.140 A 
ENDBRANCH  22  23
ENDBRANCH   1  22
TORSDOF 6
