REMARK  Name = ZINCkj00000y7OIo.0
REMARK                            x       y       z     vdW  Elec       q    Type
REMARK                         _______ _______ _______ _____ _____    ______ ____
ROOT
ATOM      1  C   LIG    1        4.852   0.183   0.356  0.00  0.00    +0.180 C 
ATOM      2  C   LIG    1        3.698  -0.737  -0.042  0.00  0.00    +0.150 C 
ATOM      3  C   LIG    1        2.401   0.032  -0.021  0.00  0.00    -0.090 A 
ATOM      4  C   LIG    1        1.209  -0.675  -0.014  0.00  0.00    +0.040 A 
ATOM      5  C   LIG    1        0.002  -0.004   0.002  0.00  0.00    +0.050 A 
ATOM      6  C   LIG    1       -0.017   1.378   0.010  0.00  0.00    +0.040 A 
ATOM      7  C   LIG    1        1.171   2.082   0.002  0.00  0.00    +0.050 A 
ATOM      8  C   LIG    1        2.384   1.411  -0.012  0.00  0.00    -0.140 A 
ATOM      9  C   LIG    1        3.655   2.219  -0.016  0.00  0.00    +0.340 C 
ATOM     10  N   LIG    1        4.785   1.401  -0.466  0.00  0.00    -0.490 N 
ATOM     11  H   LIG    1        4.654   1.149  -1.434  0.00  0.00    +0.440 HD
ATOM     12  H   LIG    1        5.641   1.925  -0.365  0.00  0.00    +0.440 HD
ENDROOT
BRANCH   1  15
ATOM     13  N   LIG    1        6.438  -1.673   0.753  0.00  0.00    -0.690 N 
ATOM     14  H   LIG    1        5.790  -2.053   1.366  0.00  0.00    +0.410 HD
ATOM     15  C   LIG    1        6.164  -0.517   0.115  0.00  0.00    +0.510 C 
ATOM     16  O   LIG    1        6.974  -0.042  -0.652  0.00  0.00    -0.520 OA
BRANCH  13  20
ATOM     17  C   LIG    1        8.558  -4.182   1.950  0.00  0.00    +0.160 C 
ATOM     18  C   LIG    1        8.772  -2.826   2.666  0.00  0.00    +0.010 C 
ATOM     19  C   LIG    1        8.785  -1.817   1.490  0.00  0.00    +0.030 C 
ATOM     20  C   LIG    1        7.714  -2.354   0.519  0.00  0.00    +0.250 C 
ATOM     21  C   LIG    1        7.569  -3.858   0.811  0.00  0.00    +0.050 C 
BRANCH  17  23
ATOM     22  C   LIG    1        8.956  -5.985   3.479  0.00  0.00    +0.210 C 
ATOM     23  O   LIG    1        7.992  -5.140   2.846  0.00  0.00    -0.380 OA
ENDBRANCH  17  23
ENDBRANCH  13  20
ENDBRANCH   1  15
TORSDOF 3
