REMARK  Name = ZINCrD000000BWOl.0
REMARK                            x       y       z     vdW  Elec       q    Type
REMARK                         _______ _______ _______ _____ _____    ______ ____
ROOT
ATOM      1  C   LIG    1       -0.060   4.250   0.032  0.00  0.00    +0.150 A 
ATOM      2  C   LIG    1        1.151   3.568   0.013  0.00  0.00    -0.010 A 
ATOM      3  C   LIG    1        1.167   2.190   0.013  0.00  0.00    +0.080 A 
ATOM      4  C   LIG    1       -0.032   1.479   0.030  0.00  0.00    -0.030 A 
ATOM      5  C   LIG    1       -1.246   2.165   0.043  0.00  0.00    +0.050 A 
ATOM      6  C   LIG    1       -1.257   3.544   0.050  0.00  0.00    +0.020 A 
ENDROOT
BRANCH   4   7
ATOM      7  C   LIG    1       -0.017  -0.004   0.029  0.00  0.00    +0.120 A 
ATOM      8  C   LIG    1       -1.112  -0.813   0.051  0.00  0.00    +0.110 A 
ATOM      9  N   LIG    1       -0.657  -2.102   0.038  0.00  0.00    -0.400 N 
ATOM     10  C   LIG    1       -1.298  -3.307   0.046  0.00  0.00    +0.290 A 
ATOM     11  C   LIG    1       -0.562  -4.446   0.035  0.00  0.00    -0.040 A 
ATOM     12  C   LIG    1        0.837  -4.359   0.015  0.00  0.00    +0.360 A 
ATOM     13  N   LIG    1        1.429  -3.188   0.007  0.00  0.00    -0.440 NA
ATOM     14  C   LIG    1        0.714  -2.053   0.018  0.00  0.00    +0.380 A 
ATOM     15  N   LIG    1        1.080  -0.780   0.013  0.00  0.00    -0.460 NA
ENDBRANCH   4   7
BRANCH   1  18
ATOM     16  O   LIG    1       -1.954   5.700  -1.145  0.00  0.00    -0.490 OA
ATOM     17  C   LIG    1       -1.046   6.313  -0.624  0.00  0.00    +0.520 C 
ATOM     18  N   LIG    1       -0.075   5.648   0.033  0.00  0.00    -0.670 N 
ATOM     19  H   LIG    1        0.615   6.140   0.506  0.00  0.00    +0.410 HD
BRANCH  17  20
ATOM     20  C   LIG    1       -1.004   7.816  -0.711  0.00  0.00    +0.190 C 
ATOM     21  C   LIG    1        0.223   8.284  -1.529  0.00  0.00    +0.100 C 
ATOM     22  C   LIG    1       -0.332   9.488  -2.266  0.00  0.00    -0.180 A 
ATOM     23  C   LIG    1        0.279  10.521  -2.941  0.00  0.00    +0.060 A 
ATOM     24  C   LIG    1       -0.488  11.512  -3.528  0.00  0.00    -0.020 A 
ATOM     25  C   LIG    1       -1.866  11.461  -3.433  0.00  0.00    +0.050 A 
ATOM     26  C   LIG    1       -2.480  10.425  -2.760  0.00  0.00    +0.000 A 
ATOM     27  C   LIG    1       -1.716   9.421  -2.170  0.00  0.00    +0.100 A 
ATOM     28  O   LIG    1       -2.110   8.313  -1.484  0.00  0.00    -0.270 OA
ENDBRANCH  17  20
ENDBRANCH   1  18
TORSDOF 3
