REMARK  Name = ZINCrD000000AAKE.0
REMARK                            x       y       z     vdW  Elec       q    Type
REMARK                         _______ _______ _______ _____ _____    ______ ____
ROOT
ATOM      1  C   LIG    1        2.303   1.357   0.932  0.00  0.00    +0.530 C 
ATOM      2  N   LIG    1        1.363   1.605  -0.002  0.00  0.00    -0.610 N 
ATOM      3  C   LIG    1        1.544   2.441  -1.203  0.00  0.00    +0.260 C 
ATOM      4  C   LIG    1        0.482   1.927  -2.208  0.00  0.00    +0.060 C 
ATOM      5  C   LIG    1       -0.709   1.608  -1.266  0.00  0.00    +0.060 C 
ATOM      6  C   LIG    1       -0.013   1.086   0.008  0.00  0.00    +0.320 C 
ATOM      7  O   LIG    1        2.041   0.652   1.883  0.00  0.00    -0.520 OA
ENDROOT
BRANCH   6   8
ATOM      8  C   LIG    1       -0.738   1.582   1.232  0.00  0.00    +0.090 A 
ATOM      9  N   LIG    1       -1.473   0.848   1.980  0.00  0.00    -0.450 NA
ATOM     10  C   LIG    1       -2.063   1.426   3.044  0.00  0.00    +0.080 A 
ATOM     11  C   LIG    1       -2.910   0.863   4.019  0.00  0.00    +0.080 A 
ATOM     12  C   LIG    1       -3.406   1.632   5.028  0.00  0.00    +0.030 A 
ATOM     13  C   LIG    1       -3.088   2.979   5.117  0.00  0.00    +0.040 A 
ATOM     14  C   LIG    1       -2.262   3.556   4.178  0.00  0.00    +0.060 A 
ATOM     15  C   LIG    1       -1.746   2.786   3.139  0.00  0.00    -0.180 A 
ATOM     16  S   LIG    1       -0.676   3.190   1.800  0.00  0.00    +0.110 S 
ENDBRANCH   6   8
BRANCH   1  17
ATOM     17  C   LIG    1        3.678   1.958   0.794  0.00  0.00    +0.310 C 
BRANCH  17  20
ATOM     18  O   LIG    1        6.249   2.682   1.158  0.00  0.00    -0.530 OA
ATOM     19  C   LIG    1        5.786   1.961   2.016  0.00  0.00    +0.520 C 
ATOM     20  N   LIG    1        4.508   1.542   1.927  0.00  0.00    -0.720 N 
ATOM     21  H   LIG    1        4.138   0.966   2.614  0.00  0.00    +0.410 HD
BRANCH  19  22
ATOM     22  C   LIG    1        6.640   1.534   3.182  0.00  0.00    +0.120 C 
BRANCH  22  23
ATOM     23  C   LIG    1        8.015   2.134   3.045  0.00  0.00    -0.070 A 
ATOM     24  C   LIG    1        9.006   1.444   2.371  0.00  0.00    +0.010 A 
ATOM     25  C   LIG    1       10.266   1.997   2.241  0.00  0.00    +0.000 A 
ATOM     26  C   LIG    1       10.539   3.235   2.792  0.00  0.00    +0.000 A 
ATOM     27  C   LIG    1        9.549   3.922   3.470  0.00  0.00    +0.000 A 
ATOM     28  C   LIG    1        8.287   3.372   3.596  0.00  0.00    +0.010 A 
ENDBRANCH  22  23
ENDBRANCH  19  22
ENDBRANCH  17  20
ENDBRANCH   1  17
TORSDOF 5
