REMARK  Name = ZINCrg00000fSBjK.0
REMARK                            x       y       z     vdW  Elec       q    Type
REMARK                         _______ _______ _______ _____ _____    ______ ____
ROOT
ATOM      1  O   LIG    1       -4.934   1.081  -1.102  0.00  0.00    -0.490 OA
ATOM      2  C   LIG    1       -4.212   0.148  -1.384  0.00  0.00    +0.500 C 
ATOM      3  N   LIG    1       -2.877   0.260  -1.235  0.00  0.00    -0.720 N 
ATOM      4  H   LIG    1       -2.300  -0.487  -1.461  0.00  0.00    +0.400 HD
ENDROOT
BRANCH   3   5
ATOM      5  C   LIG    1       -2.298   1.508  -0.733  0.00  0.00    +0.260 C 
ATOM      6  C   LIG    1       -0.825   1.630  -1.193  0.00  0.00    +0.050 C 
ATOM      7  C   LIG    1       -0.013   1.086   0.008  0.00  0.00    -0.020 C 
ATOM      8  C   LIG    1       -0.802   1.617   1.230  0.00  0.00    +0.020 C 
ATOM      9  C   LIG    1       -2.281   1.500   0.805  0.00  0.00    +0.150 C 
BRANCH   9  10
ATOM     10  O   LIG    1       -3.025   2.611   1.309  0.00  0.00    -0.560 OA
ATOM     11  H   LIG    1       -3.033   2.673   2.274  0.00  0.00    +0.380 HD
ENDBRANCH   9  10
BRANCH   7  12
ATOM     12  C   LIG    1        1.411   1.645  -0.003  0.00  0.00    +0.330 C 
BRANCH  12  13
ATOM     13  N   LIG    1        2.171   1.068   1.109  0.00  0.00    -0.370 N 
ATOM     14  C   LIG    1        3.344   0.407   1.010  0.00  0.00    +0.220 A 
ATOM     15  C   LIG    1        3.716   0.039   2.258  0.00  0.00    -0.120 A 
ATOM     16  C   LIG    1        2.732   0.481   3.149  0.00  0.00    +0.220 A 
ATOM     17  N   LIG    1        1.806   1.098   2.461  0.00  0.00    -0.290 NA
ENDBRANCH  12  13
ENDBRANCH   7  12
ENDBRANCH   3   5
BRANCH   2  18
ATOM     18  C   LIG    1       -4.808  -1.136  -1.900  0.00  0.00    +0.360 C 
BRANCH  18  19
ATOM     19  N   LIG    1       -6.266  -1.005  -1.970  0.00  0.00    -0.370 N 
ATOM     20  C   LIG    1       -7.041  -1.204  -3.051  0.00  0.00    +0.480 A 
ATOM     21  N   LIG    1       -8.284  -0.992  -2.710  0.00  0.00    -0.530 NA
ATOM     22  C   LIG    1       -8.346  -0.644  -1.417  0.00  0.00    +0.260 A 
ATOM     23  N   LIG    1       -7.128  -0.640  -0.923  0.00  0.00    -0.270 NA
BRANCH  22  24
ATOM     24  C   LIG    1       -9.585  -0.320  -0.667  0.00  0.00    -0.020 A 
ATOM     25  C   LIG    1       -9.516   0.022   0.682  0.00  0.00    +0.050 A 
ATOM     26  C   LIG    1      -10.671   0.328   1.373  0.00  0.00    +0.010 A 
ATOM     27  C   LIG    1      -11.896   0.285   0.732  0.00  0.00    +0.020 A 
ATOM     28  C   LIG    1      -11.970  -0.058  -0.606  0.00  0.00    +0.000 A 
ATOM     29  C   LIG    1      -10.821  -0.361  -1.308  0.00  0.00    +0.050 A 
ENDBRANCH  22  24
ENDBRANCH  18  19
ENDBRANCH   2  18
TORSDOF 7
