REMARK  Name = ZINCrH000004ou6q.0
REMARK                            x       y       z     vdW  Elec       q    Type
REMARK                         _______ _______ _______ _____ _____    ______ ____
ROOT
ATOM      1  N   LIG    1       -0.035   1.239  -0.020  0.00  0.00    -0.610 N 
ATOM      2  C   LIG    1       -0.172  -0.102  -0.007  0.00  0.00    +0.570 C 
ATOM      3  O   LIG    1        0.809  -0.814  -0.108  0.00  0.00    -0.530 OA
ATOM      4  C   LIG    1       -1.223   2.096  -0.035  0.00  0.00    +0.290 C 
ENDROOT
BRANCH   2   5
ATOM      5  C   LIG    1       -1.511  -0.706   0.129  0.00  0.00    -0.150 A 
ATOM      6  C   LIG    1       -2.479  -0.091   0.929  0.00  0.00    +0.070 A 
ATOM      7  C   LIG    1       -3.729  -0.654   1.050  0.00  0.00    -0.020 A 
ATOM      8  C   LIG    1       -4.027  -1.840   0.385  0.00  0.00    +0.180 A 
ATOM      9  C   LIG    1       -3.064  -2.458  -0.407  0.00  0.00    +0.010 A 
ATOM     10  C   LIG    1       -1.813  -1.897  -0.536  0.00  0.00    +0.100 A 
BRANCH   8  11
ATOM     11  N   LIG    1       -5.292  -2.411   0.514  0.00  0.00    -0.670 N 
ATOM     12  H   LIG    1       -6.075  -1.843   0.595  0.00  0.00    +0.420 HD
ATOM     13  C   LIG    1       -5.429  -3.752   0.527  0.00  0.00    +0.540 C 
ATOM     14  O   LIG    1       -4.446  -4.462   0.522  0.00  0.00    -0.510 OA
BRANCH  13  15
ATOM     15  C   LIG    1       -6.803  -4.369   0.547  0.00  0.00    -0.070 C 
ATOM     16  C   LIG    1       -7.231  -5.099   1.821  0.00  0.00    +0.060 C 
ATOM     17  C   LIG    1       -6.892  -5.897   0.561  0.00  0.00    +0.080 C 
ENDBRANCH  13  15
ENDBRANCH   8  11
ENDBRANCH   2   5
BRANCH   1  19
ATOM     18  C   LIG    1        1.426   2.796  -1.212  0.00  0.00    +0.050 C 
ATOM     19  C   LIG    1        1.301   1.839  -0.025  0.00  0.00    +0.300 C 
BRANCH  19  20
ATOM     20  C   LIG    1        1.514   2.601   1.258  0.00  0.00    -0.100 A 
ATOM     21  C   LIG    1        2.607   2.318   2.056  0.00  0.00    +0.100 A 
ATOM     22  C   LIG    1        2.803   3.017   3.233  0.00  0.00    +0.040 A 
ATOM     23  C   LIG    1        1.906   3.999   3.611  0.00  0.00    +0.110 A 
ATOM     24  C   LIG    1        0.813   4.281   2.813  0.00  0.00    -0.040 A 
ATOM     25  C   LIG    1        0.620   3.586   1.634  0.00  0.00    +0.110 A 
BRANCH  24  26
ATOM     26  N   LIG    1       -0.147   5.332   3.218  0.00  0.00    +0.030 N 
ATOM     27  O   LIG    1       -1.110   5.581   2.515  0.00  0.00    -0.160 OA
ATOM     28  O   LIG    1        0.025   5.948   4.254  0.00  0.00    -0.160 OA
ENDBRANCH  24  26
ENDBRANCH  19  20
ENDBRANCH   1  19
TORSDOF 6
