REMARK  Name = ZINCnE000001JUL4.0
REMARK                            x       y       z     vdW  Elec       q    Type
REMARK                         _______ _______ _______ _____ _____    ______ ____
ROOT
ATOM      1  C   LIG    1        3.768   3.626  -0.021  0.00  0.00    +0.020 C 
ATOM      2  C   LIG    1        3.112   4.067   1.290  0.00  0.00    +0.080 C 
ENDROOT
BRANCH   1   3
ATOM      3  C   LIG    1        5.124   4.271  -0.145  0.00  0.00    +0.540 C 
ATOM      4  N   LIG    1        5.228   5.548  -0.563  0.00  0.00    -0.670 N 
ATOM      5  H   LIG    1        4.436   6.031  -0.846  0.00  0.00    +0.420 HD
ATOM      6  O   LIG    1        6.123   3.640   0.129  0.00  0.00    -0.500 OA
BRANCH   4   7
ATOM      7  C   LIG    1        6.477   6.178  -0.586  0.00  0.00    +0.170 A 
ATOM      8  C   LIG    1        6.579   7.532  -0.298  0.00  0.00    +0.000 A 
ATOM      9  C   LIG    1        7.815   8.149  -0.316  0.00  0.00    +0.070 A 
ATOM     10  C   LIG    1        8.948   7.422  -0.633  0.00  0.00    -0.110 A 
ATOM     11  C   LIG    1        8.849   6.074  -0.926  0.00  0.00    +0.070 A 
ATOM     12 BR   LIG    1       10.637   8.273  -0.665  0.00  0.00    -0.060 Br
ATOM     13  C   LIG    1        7.617   5.450  -0.904  0.00  0.00    +0.030 A 
ENDBRANCH   4   7
ENDBRANCH   1   3
BRANCH   1  14
ATOM     14  S   LIG    1        3.953   1.822  -0.027  0.00  0.00    +0.030 S 
BRANCH  14  19
ATOM     15  N   LIG    1       -1.015  -0.832  -0.024  0.00  0.00    -0.620 NA
ATOM     16  C   LIG    1        0.010  -0.014  -0.024  0.00  0.00    +0.330 A 
ATOM     17  N   LIG    1       -0.012   1.351  -0.019  0.00  0.00    -0.510 NA
ATOM     18  N   LIG    1        1.213   1.979  -0.020  0.00  0.00    -0.250 NA
ATOM     19  C   LIG    1        2.285   1.252  -0.025  0.00  0.00    -0.080 A 
ATOM     20  S   LIG    1        1.734  -0.432  -0.030  0.00  0.00    -0.100 S 
BRANCH  15  21
ATOM     21  C   LIG    1       -2.379  -0.298  -0.018  0.00  0.00    +0.210 C 
BRANCH  21  22
ATOM     22  C   LIG    1       -3.080  -0.675  -1.324  0.00  0.00    +0.150 C 
BRANCH  22  24
ATOM     23  C   LIG    1       -3.877  -2.554  -2.581  0.00  0.00    +0.170 C 
ATOM     24  O   LIG    1       -3.230  -2.094  -1.393  0.00  0.00    -0.370 OA
ENDBRANCH  22  24
ENDBRANCH  21  22
ENDBRANCH  15  21
ENDBRANCH  14  19
ENDBRANCH   1  14
TORSDOF 7
