REMARK  Name = ZINCtj00000mhdE6.1
REMARK                            x       y       z     vdW  Elec       q    Type
REMARK                         _______ _______ _______ _____ _____    ______ ____
ROOT
ATOM      1  C   LIG    1       -2.496  -2.865   0.009  0.00  0.00    +0.290 C 
ENDROOT
BRANCH   1   3
ATOM      2  C   LIG    1       -1.263  -0.763   0.009  0.00  0.00    +0.570 C 
ATOM      3  N   LIG    1       -1.240  -2.111   0.002  0.00  0.00    -0.740 N 
ATOM      4  H   LIG    1       -0.392  -2.582  -0.008  0.00  0.00    +0.400 HD
ATOM      5  O   LIG    1       -2.326  -0.173   0.022  0.00  0.00    -0.500 OA
BRANCH   2  11
ATOM      6  C   LIG    1       -0.017   1.397   0.010  0.00  0.00    +0.240 A 
ATOM      7  C   LIG    1        1.178   2.101   0.002  0.00  0.00    -0.050 A 
ATOM      8  C   LIG    1        2.381   1.422  -0.013  0.00  0.00    +0.190 A 
ATOM      9  C   LIG    1        2.404   0.037  -0.021  0.00  0.00    -0.090 A 
ATOM     10  C   LIG    1        1.226  -0.678  -0.013  0.00  0.00    +0.180 A 
ATOM     11  C   LIG    1        0.002  -0.004   0.002  0.00  0.00    -0.180 A 
BRANCH   9  12
ATOM     12  N   LIG    1        3.700  -0.678  -0.037  0.00  0.00    +0.030 N 
ATOM     13  O   LIG    1        4.742  -0.049  -0.044  0.00  0.00    -0.150 OA
ATOM     14  O   LIG    1        3.723  -1.896  -0.045  0.00  0.00    -0.160 OA
ENDBRANCH   9  12
BRANCH   6  16
ATOM     15  C   LIG    1       -1.140   3.491   0.026  0.00  0.00    +0.270 C 
ATOM     16  O   LIG    1       -1.199   2.063   0.019  0.00  0.00    -0.270 OA
ENDBRANCH   6  16
ENDBRANCH   2  11
ENDBRANCH   1   3
BRANCH   1  17
ATOM     17  C   LIG    1       -2.191  -4.364  -0.001  0.00  0.00    +0.030 C 
BRANCH  17  18
ATOM     18  C   LIG    1       -3.503  -5.151   0.006  0.00  0.00    +0.280 C 
BRANCH  18  19
ATOM     19  N   LIG    1       -3.210  -6.591  -0.004  0.00  0.00    -0.390 N 
ATOM     20  C   LIG    1       -2.550  -6.947  -1.267  0.00  0.00    +0.270 C 
ATOM     21  C   LIG    1       -2.228  -8.443  -1.270  0.00  0.00    +0.250 C 
ATOM     22  N   LIG    1       -3.472  -9.209  -1.115  0.00  0.00    -0.460 N 
ATOM     23  C   LIG    1       -4.157  -8.845   0.133  0.00  0.00    +0.250 C 
ATOM     24  C   LIG    1       -4.464  -7.346   0.125  0.00  0.00    +0.280 C 
ATOM     25  H   LIG    1       -2.602  -6.816   0.769  0.00  0.00    +0.420 HD
BRANCH  22  26
ATOM     26  C   LIG    1       -3.226 -10.570  -1.167  0.00  0.00    +0.470 A 
ATOM     27  N   LIG    1       -3.605 -11.335  -0.154  0.00  0.00    -0.550 NA
ATOM     28  C   LIG    1       -3.390 -12.640  -0.175  0.00  0.00    +0.360 A 
ATOM     29  C   LIG    1       -2.750 -13.203  -1.268  0.00  0.00    -0.080 A 
ATOM     30  C   LIG    1       -2.362 -12.373  -2.308  0.00  0.00    +0.360 A 
ATOM     31  N   LIG    1       -2.612 -11.076  -2.227  0.00  0.00    -0.520 NA
ENDBRANCH  22  26
ENDBRANCH  18  19
ENDBRANCH  17  18
ENDBRANCH   1  17
TORSDOF 8
