REMARK  Name = ZINCrH000004qYde.0
REMARK                            x       y       z     vdW  Elec       q    Type
REMARK                         _______ _______ _______ _____ _____    ______ ____
ROOT
ATOM      1  C   LIG    1        0.002  -0.004   0.002  0.00  0.00    +0.600 C 
ATOM      2  N   LIG    1        0.232   1.055   0.803  0.00  0.00    -0.600 N 
ATOM      3  C   LIG    1       -0.803   1.529   1.732  0.00  0.00    +0.270 C 
ATOM      4  C   LIG    1       -0.200   1.593   3.144  0.00  0.00    +0.030 C 
ATOM      5  C   LIG    1        1.062   2.459   3.114  0.00  0.00    -0.010 C 
ATOM      6  C   LIG    1        2.094   1.827   2.177  0.00  0.00    +0.060 C 
ATOM      7  C   LIG    1        1.519   1.762   0.759  0.00  0.00    +0.280 C 
ATOM      8  O   LIG    1        0.836  -0.338  -0.820  0.00  0.00    -0.510 OA
ENDROOT
BRANCH   1  12
ATOM      9  C   LIG    1       -3.554  -1.680   0.306  0.00  0.00    +0.160 A 
ATOM     10  N   LIG    1       -2.587  -2.562   0.319  0.00  0.00    -0.450 NA
ATOM     11  C   LIG    1       -1.367  -2.114   0.218  0.00  0.00    +0.150 A 
ATOM     12  C   LIG    1       -1.250  -0.754   0.120  0.00  0.00    -0.300 A 
ATOM     13  C   LIG    1       -0.169  -3.028   0.213  0.00  0.00    +0.160 C 
ATOM     14  S   LIG    1       -2.872  -0.064   0.155  0.00  0.00    +0.170 S 
BRANCH   9  19
ATOM     15  C   LIG    1       -8.525  -1.091   0.522  0.00  0.00    +0.180 C 
ATOM     16  C   LIG    1       -7.165  -1.739   0.499  0.00  0.00    +0.030 A 
ATOM     17  C   LIG    1       -6.925  -3.065   0.580  0.00  0.00    -0.060 A 
ATOM     18  C   LIG    1       -5.531  -3.237   0.515  0.00  0.00    +0.050 A 
ATOM     19  C   LIG    1       -4.987  -1.991   0.403  0.00  0.00    +0.010 A 
ATOM     20  O   LIG    1       -5.994  -1.094   0.392  0.00  0.00    -0.170 OA
ENDBRANCH   9  19
ENDBRANCH   1  12
BRANCH   5  21
ATOM     21  C   LIG    1        1.637   2.556   4.503  0.00  0.00    +0.520 C 
ATOM     22  N   LIG    1        0.902   3.084   5.502  0.00  0.00    -0.610 N 
ATOM     23  C   LIG    1       -0.457   3.564   5.237  0.00  0.00    +0.290 C 
ATOM     24  O   LIG    1        2.762   2.159   4.723  0.00  0.00    -0.530 OA
BRANCH  22  25
ATOM     25  C   LIG    1        1.461   3.178   6.853  0.00  0.00    +0.230 C 
ATOM     26  C   LIG    1        0.590   2.376   7.822  0.00  0.00    +0.030 C 
ATOM     27  C   LIG    1        1.495   4.644   7.290  0.00  0.00    +0.030 C 
ENDBRANCH  22  25
ENDBRANCH   5  21
TORSDOF 4
