REMARK  Name = ZINCah0000006lCk.0
REMARK                            x       y       z     vdW  Elec       q    Type
REMARK                         _______ _______ _______ _____ _____    ______ ____
ROOT
ATOM      1  C   LIG    1        1.851   0.039  -1.672  0.00  0.00    -0.070 C 
ATOM      2  C   LIG    1        2.014   1.553  -1.498  0.00  0.00    +0.030 C 
ATOM      3  C   LIG    1        1.542   1.942  -0.089  0.00  0.00    +0.190 C 
ATOM      4  C   LIG    1        2.217   0.987   0.922  0.00  0.00    +0.010 C 
ATOM      5  C   LIG    1        1.228  -0.196   1.033  0.00  0.00    +0.010 C 
ATOM      6  C   LIG    1        0.077   0.190   0.075  0.00  0.00    +0.190 C 
ATOM      7  O   LIG    1        0.134   1.632   0.001  0.00  0.00    -0.360 OA
ATOM      8  C   LIG    1        0.415  -0.360  -1.319  0.00  0.00    +0.030 C 
ENDROOT
BRANCH   1  10
ATOM      9  O   LIG    1        3.646  -1.418  -1.222  0.00  0.00    -0.470 OA
ATOM     10  C   LIG    1        2.812  -0.678  -0.759  0.00  0.00    +0.440 C 
ENDBRANCH   1  10
TORSDOF 1
