REMARK  Name = ZINCqH0000007yz4.0
REMARK                            x       y       z     vdW  Elec       q    Type
REMARK                         _______ _______ _______ _____ _____    ______ ____
ROOT
ATOM      1  C   LIG    1       -2.422   4.323  -0.105  0.00  0.00    +0.200 A 
ATOM      2  N   LIG    1       -3.160   4.971  -0.972  0.00  0.00    -0.460 NA
ATOM      3  C   LIG    1       -4.170   5.513  -0.255  0.00  0.00    +0.210 A 
ATOM      4  N   LIG    1       -3.988   5.165   0.993  0.00  0.00    -0.360 NA
ATOM      5  O   LIG    1       -2.993   4.479   1.093  0.00  0.00    +0.090 OA
ENDROOT
BRANCH   1  11
ATOM      6  C   LIG    1        2.398   0.017  -0.014  0.00  0.00    +0.160 A 
ATOM      7  C   LIG    1        1.202  -0.686  -0.010  0.00  0.00    -0.100 A 
ATOM      8  C   LIG    1        0.002  -0.004   0.002  0.00  0.00    +0.090 A 
ATOM      9  C   LIG    1       -0.017   1.381   0.010  0.00  0.00    -0.200 A 
ATOM     10  C   LIG    1       -1.349   2.087   0.032  0.00  0.00    +0.110 C 
ATOM     11  C   LIG    1       -1.167   3.543  -0.404  0.00  0.00    +0.110 C 
ATOM     12  C   LIG    1        0.010   4.138   0.380  0.00  0.00    +0.270 C 
ATOM     13  O   LIG    1        1.200   3.446  -0.002  0.00  0.00    -0.300 OA
ATOM     14  C   LIG    1        1.174   2.088   0.002  0.00  0.00    +0.170 A 
ATOM     15  C   LIG    1        2.383   1.402  -0.008  0.00  0.00    -0.040 A 
BRANCH   6  17
ATOM     16  C   LIG    1        3.520  -2.079  -0.029  0.00  0.00    +0.250 C 
ATOM     17  O   LIG    1        3.582  -0.651  -0.023  0.00  0.00    -0.310 OA
ENDBRANCH   6  17
ENDBRANCH   1  11
BRANCH   3  18
ATOM     18  C   LIG    1       -5.279   6.346  -0.784  0.00  0.00    -0.060 A 
ATOM     19  C   LIG    1       -6.263   6.845   0.072  0.00  0.00    +0.110 A 
ATOM     20  C   LIG    1       -7.276   7.617  -0.471  0.00  0.00    +0.020 A 
ATOM     21  C   LIG    1       -7.280   7.868  -1.830  0.00  0.00    +0.070 A 
ATOM     22  N   LIG    1       -6.337   7.383  -2.614  0.00  0.00    -0.450 NA
ATOM     23  C   LIG    1       -5.351   6.647  -2.142  0.00  0.00    +0.330 A 
BRANCH  21  24
ATOM     24  C   LIG    1       -8.380   8.708  -2.426  0.00  0.00    +0.470 C 
ATOM     25  F   LIG    1       -9.549   8.548  -1.674  0.00  0.00    -0.190 F 
ATOM     26  F   LIG    1       -8.615   8.303  -3.745  0.00  0.00    -0.180 F 
ENDBRANCH  21  24
ENDBRANCH   3  18
TORSDOF 4
