REMARK  Name = ZINCrH000004mTgq.0
REMARK                            x       y       z     vdW  Elec       q    Type
REMARK                         _______ _______ _______ _____ _____    ______ ____
ROOT
ATOM      1  N   LIG    1       -4.319   3.576  -0.848  0.00  0.00    -0.570 N 
ATOM      2  C   LIG    1       -3.057   3.971  -0.586  0.00  0.00    +0.570 C 
ATOM      3  O   LIG    1       -2.147   3.167  -0.630  0.00  0.00    -0.510 OA
ENDROOT
BRANCH   2   4
ATOM      4  C   LIG    1       -2.780   5.383  -0.244  0.00  0.00    -0.130 A 
ATOM      5  C   LIG    1       -3.385   5.966   0.870  0.00  0.00    +0.110 A 
ATOM      6  C   LIG    1       -3.127   7.285   1.180  0.00  0.00    +0.030 A 
ATOM      7  C   LIG    1       -2.262   8.027   0.395  0.00  0.00    +0.130 A 
ATOM      8  C   LIG    1       -1.655   7.453  -0.708  0.00  0.00    -0.050 A 
ATOM      9  C   LIG    1       -1.909   6.136  -1.032  0.00  0.00    +0.030 A 
ATOM     10  C   LIG    1       -1.246   5.513  -2.234  0.00  0.00    +0.140 C 
BRANCH   8  11
ATOM     11  N   LIG    1       -0.730   8.253  -1.542  0.00  0.00    +0.030 N 
ATOM     12  O   LIG    1       -0.088   7.716  -2.427  0.00  0.00    -0.150 OA
ATOM     13  O   LIG    1       -0.611   9.449  -1.343  0.00  0.00    -0.160 OA
ENDBRANCH   8  11
ENDBRANCH   2   4
BRANCH   1  14
ATOM     14  C   LIG    1       -4.585   2.191  -1.245  0.00  0.00    +0.220 C 
ATOM     15  C   LIG    1       -3.495   1.154  -0.967  0.00  0.00    +0.030 C 
ATOM     16  C   LIG    1       -3.763   1.617  -2.401  0.00  0.00    +0.010 C 
ENDBRANCH   1  14
BRANCH   1  17
ATOM     17  C   LIG    1       -5.424   4.531  -0.736  0.00  0.00    +0.340 C 
BRANCH  17  22
ATOM     18  C   LIG    1       -5.314   7.116  -3.490  0.00  0.00    +0.090 A 
ATOM     19  C   LIG    1       -6.015   6.475  -4.500  0.00  0.00    -0.030 A 
ATOM     20  C   LIG    1       -6.524   5.208  -4.291  0.00  0.00    -0.040 A 
ATOM     21  C   LIG    1       -6.329   4.574  -3.073  0.00  0.00    +0.120 A 
ATOM     22  C   LIG    1       -5.631   5.217  -2.061  0.00  0.00    -0.110 A 
ATOM     23  C   LIG    1       -5.122   6.484  -2.270  0.00  0.00    +0.030 A 
BRANCH  18  25
ATOM     24  C   LIG    1       -5.047   8.953  -4.977  0.00  0.00    +0.250 C 
ATOM     25  O   LIG    1       -4.812   8.363  -3.696  0.00  0.00    -0.320 OA
ENDBRANCH  18  25
BRANCH  21  26
ATOM     26  O   LIG    1       -6.826   3.325  -2.869  0.00  0.00    -0.310 OA
ATOM     27  C   LIG    1       -7.533   2.723  -3.955  0.00  0.00    +0.240 C 
ENDBRANCH  21  26
ENDBRANCH  17  22
ENDBRANCH   1  17
TORSDOF 7
