REMARK  Name = ZINCDN0000000aY4.1
REMARK                            x       y       z     vdW  Elec       q    Type
REMARK                         _______ _______ _______ _____ _____    ______ ____
ROOT
ATOM      1  C   LIG    1       -5.381  -0.392 -11.792  0.00  0.00    +0.100 C 
ATOM      2  C   LIG    1       -5.156   0.455 -10.566  0.00  0.00    +0.020 A 
ATOM      3  C   LIG    1       -4.083   0.192  -9.734  0.00  0.00    +0.000 A 
ATOM      4  C   LIG    1       -3.873   0.966  -8.610  0.00  0.00    +0.070 A 
ATOM      5  C   LIG    1       -4.741   2.009  -8.314  0.00  0.00    +0.100 A 
ATOM      6  C   LIG    1       -5.821   2.267  -9.149  0.00  0.00    +0.090 A 
ATOM      7  C   LIG    1       -6.022   1.493 -10.274  0.00  0.00    -0.600 A 
ENDROOT
BRANCH   5   8
ATOM      8  N   LIG    1       -4.532   2.795  -7.177  0.00  0.00    -0.660 N 
ATOM      9  H   LIG    1       -5.290   3.139  -6.678  0.00  0.00    +0.410 HD
ATOM     10  C   LIG    1       -3.277   3.074  -6.772  0.00  0.00    +0.560 C 
ATOM     11  O   LIG    1       -2.328   2.575  -7.346  0.00  0.00    -0.510 OA
BRANCH  10  12
ATOM     12  C   LIG    1       -3.054   3.988  -5.632  0.00  0.00    -0.150 A 
ATOM     13  C   LIG    1       -4.141   4.562  -4.971  0.00  0.00    +0.110 A 
ATOM     14  C   LIG    1       -3.925   5.414  -3.907  0.00  0.00    +0.000 A 
ATOM     15  C   LIG    1       -2.636   5.700  -3.496  0.00  0.00    +0.150 A 
ATOM     16  C   LIG    1       -1.554   5.133  -4.146  0.00  0.00    -0.690 A 
ATOM     17  C   LIG    1       -1.755   4.284  -5.215  0.00  0.00    +0.200 A 
BRANCH  16  18
ATOM     18  S   LIG    1        0.084   5.504  -3.614  0.00  0.00    +2.690 S 
ATOM     19  O   LIG    1        0.932   5.270  -4.730  0.00  0.00    -0.940 OA
ATOM     20  O   LIG    1        0.014   6.753  -2.939  0.00  0.00    -0.950 OA
BRANCH  18  21
ATOM     21  N   LIG    1        0.495   4.378  -2.471  0.00  0.00    -1.000 NA
ATOM     22  C   LIG    1        1.146   3.114  -2.853  0.00  0.00    +0.270 C 
ATOM     23  C   LIG    1        2.388   2.926  -1.975  0.00  0.00    +0.220 C 
ATOM     24  O   LIG    1        2.020   3.061  -0.600  0.00  0.00    -0.380 OA
ATOM     25  C   LIG    1        1.508   4.350  -0.255  0.00  0.00    +0.220 C 
ATOM     26  C   LIG    1        0.220   4.611  -1.045  0.00  0.00    +0.260 C 
ENDBRANCH  18  21
ENDBRANCH  16  18
ENDBRANCH  10  12
ENDBRANCH   5   8
BRANCH   7  27
ATOM     27  S   LIG    1       -7.388   1.823 -11.337  0.00  0.00    +2.610 S 
ATOM     28  O   LIG    1       -8.056   2.953 -10.793  0.00  0.00    -1.030 OA
ATOM     29  O   LIG    1       -8.030   0.575 -11.565  0.00  0.00    -1.020 OA
BRANCH  27  30
ATOM     30  N   LIG    1       -6.770   2.303 -12.796  0.00  0.00    -1.080 NA
BRANCH  30  31
ATOM     31  C   LIG    1       -7.633   2.635 -13.847  0.00  0.00    +0.290 A 
ATOM     32  C   LIG    1       -9.008   2.556 -13.668  0.00  0.00    -0.150 A 
ATOM     33  C   LIG    1       -9.859   2.888 -14.704  0.00  0.00    +0.050 A 
ATOM     34  C   LIG    1       -9.340   3.291 -15.928  0.00  0.00    -0.200 A 
ATOM     35  C   LIG    1       -7.964   3.365 -16.108  0.00  0.00    +0.070 A 
ATOM     36  C   LIG    1       -7.114   3.039 -15.071  0.00  0.00    -0.050 A 
BRANCH  34  37
ATOM     37  S   LIG    1      -10.426   3.707 -17.251  0.00  0.00    -0.130 S 
BRANCH  37  38
ATOM     38  C   LIG    1      -12.069   3.453 -16.526  0.00  0.00    +0.430 C 
ATOM     39  F   LIG    1      -12.225   4.293 -15.418  0.00  0.00    -0.180 F 
ATOM     40  F   LIG    1      -12.200   2.120 -16.122  0.00  0.00    -0.180 F 
ENDBRANCH  37  38
ENDBRANCH  34  37
ENDBRANCH  30  31
ENDBRANCH  27  30
ENDBRANCH   7  27
TORSDOF 9
