REMARK  Name = ZINCpk00000KfLkK.0
REMARK                            x       y       z     vdW  Elec       q    Type
REMARK                         _______ _______ _______ _____ _____    ______ ____
ROOT
ATOM      1  N   LIG    1        1.504   6.173  -0.190  0.00  0.00    -0.690 NA
ATOM      2  H   LIG    1        0.576   5.896  -0.131  0.00  0.00    +0.410 HD
ENDROOT
BRANCH   1   7
ATOM      3  N   LIG    1        2.363   3.916   0.191  0.00  0.00    -0.370 N 
ATOM      4  N   LIG    1        3.666   3.387   0.189  0.00  0.00    -0.090 NA
ATOM      5  N   LIG    1        4.464   4.363  -0.083  0.00  0.00    -0.010 NA
ATOM      6  N   LIG    1        3.801   5.451  -0.244  0.00  0.00    -0.360 NA
ATOM      7  C   LIG    1        2.514   5.234  -0.088  0.00  0.00    +0.510 C 
BRANCH   3  12
ATOM      8  C   LIG    1       -2.490   1.138   1.165  0.00  0.00    +0.100 C 
ATOM      9  C   LIG    1       -1.200   1.874   0.909  0.00  0.00    -0.070 A 
ATOM     10  C   LIG    1       -0.255   1.333   0.057  0.00  0.00    +0.040 A 
ATOM     11  C   LIG    1        0.926   2.008  -0.185  0.00  0.00    +0.050 A 
ATOM     12  C   LIG    1        1.165   3.228   0.434  0.00  0.00    +0.120 A 
ATOM     13  C   LIG    1        0.217   3.765   1.294  0.00  0.00    +0.010 A 
ATOM     14  C   LIG    1       -0.962   3.086   1.531  0.00  0.00    +0.040 A 
ENDBRANCH   3  12
ENDBRANCH   1   7
BRANCH   1  15
ATOM     15  C   LIG    1        1.835   7.587  -0.388  0.00  0.00    +0.330 C 
BRANCH  15  16
ATOM     16  C   LIG    1        0.545   8.406  -0.467  0.00  0.00    +0.040 C 
BRANCH  16  17
ATOM     17  C   LIG    1        0.886   9.860  -0.670  0.00  0.00    +0.520 C 
ATOM     18  N   LIG    1       -0.098  10.776  -0.769  0.00  0.00    -0.610 N 
ATOM     19  C   LIG    1       -1.513  10.379  -0.688  0.00  0.00    +0.260 C 
ATOM     20  C   LIG    1       -2.205  11.280   0.346  0.00  0.00    +0.190 C 
ATOM     21  O   LIG    1       -1.948  12.649   0.022  0.00  0.00    -0.370 OA
ATOM     22  C   LIG    1       -0.567  13.013   0.075  0.00  0.00    +0.140 C 
ATOM     23  C   LIG    1       -0.420  14.506  -0.228  0.00  0.00    +0.070 C 
ATOM     24  C   LIG    1       -1.660  10.975   1.742  0.00  0.00    +0.010 C 
ATOM     25  C   LIG    1        0.210  12.201  -0.968  0.00  0.00    +0.260 C 
ATOM     26  O   LIG    1        2.046  10.207  -0.745  0.00  0.00    -0.530 OA
ENDBRANCH  16  17
ENDBRANCH  15  16
ENDBRANCH   1  15
TORSDOF 5
