REMARK  Name = ZINCnE000001ItpH.0
REMARK                            x       y       z     vdW  Elec       q    Type
REMARK                         _______ _______ _______ _____ _____    ______ ____
ROOT
ATOM      1  C   LIG    1       -0.018   1.461   0.010  0.00  0.00    +0.270 C 
ATOM      2  N   LIG    1        0.002  -0.004   0.002  0.00  0.00    -0.570 N 
ATOM      3  C   LIG    1        0.000  -0.672  -1.169  0.00  0.00    +0.510 C 
ATOM      4  O   LIG    1        0.017  -1.884  -1.175  0.00  0.00    -0.560 OA
ENDROOT
BRANCH   2   5
ATOM      5  C   LIG    1        0.024  -0.743   1.267  0.00  0.00    +0.180 C 
BRANCH   5   6
ATOM      6  C   LIG    1        1.257  -0.367   2.047  0.00  0.00    +0.490 C 
ATOM      7  O   LIG    1        1.564  -0.999   3.043  0.00  0.00    -0.690 OA
ATOM      8  O   LIG    1        1.947   0.570   1.682  0.00  0.00    -0.680 OA
ENDBRANCH   5   6
BRANCH   5   9
ATOM      9  C   LIG    1       -1.222  -0.395   2.083  0.00  0.00    +0.080 C 
BRANCH   9  10
ATOM     10  C   LIG    1       -2.450  -0.882   1.357  0.00  0.00    -0.060 A 
ATOM     11  C   LIG    1       -3.096  -0.054   0.459  0.00  0.00    +0.000 A 
ATOM     12  C   LIG    1       -4.220  -0.503  -0.210  0.00  0.00    -0.010 A 
ATOM     13  C   LIG    1       -4.703  -1.776   0.027  0.00  0.00    -0.020 A 
ATOM     14  C   LIG    1       -4.060  -2.603   0.930  0.00  0.00    +0.000 A 
ATOM     15  C   LIG    1       -2.933  -2.156   1.595  0.00  0.00    +0.010 A 
ENDBRANCH   9  10
ENDBRANCH   5   9
ENDBRANCH   2   5
BRANCH   3  16
ATOM     16  C   LIG    1       -0.023   0.089  -2.470  0.00  0.00    +0.060 C 
BRANCH  16  17
ATOM     17  C   LIG    1       -0.020  -0.899  -3.638  0.00  0.00    +0.140 C 
BRANCH  17  18
ATOM     18  C   LIG    1       -0.043  -0.139  -4.939  0.00  0.00    -0.150 A 
ATOM     19  C   LIG    1        1.035   0.269  -5.610  0.00  0.00    +0.010 A 
ATOM     20  C   LIG    1        0.768   0.948  -6.787  0.00  0.00    +0.040 A 
ATOM     21  C   LIG    1       -0.529   1.101  -7.065  0.00  0.00    -0.160 A 
ATOM     22 CL   LIG    1       -1.163   1.912  -8.462  0.00  0.00    -0.020 Cl
ATOM     23  S   LIG    1       -1.495   0.354  -5.800  0.00  0.00    +0.150 S 
ENDBRANCH  17  18
ENDBRANCH  16  17
ENDBRANCH   3  16
TORSDOF 7
