REMARK  Name = ZINCrD00000F5LwT.0
REMARK                            x       y       z     vdW  Elec       q    Type
REMARK                         _______ _______ _______ _____ _____    ______ ____
ROOT
ATOM      1  N   LIG    1        3.598   2.002  -0.008  0.00  0.00    -0.670 N 
ATOM      2  H   LIG    1        4.426   1.501   0.060  0.00  0.00    +0.410 HD
ATOM      3  C   LIG    1        3.629   3.345  -0.116  0.00  0.00    +0.720 C 
ATOM      4  N   LIG    1        4.810   3.985  -0.226  0.00  0.00    -0.620 N 
ATOM      5  C   LIG    1        6.063   3.227  -0.347  0.00  0.00    +0.270 C 
ATOM      6  C   LIG    1        6.813   3.719  -1.594  0.00  0.00    +0.050 C 
ATOM      7  C   LIG    1        7.002   5.236  -1.503  0.00  0.00    +0.100 C 
ATOM      8  C   LIG    1        5.634   5.920  -1.463  0.00  0.00    +0.040 C 
ATOM      9  C   LIG    1        4.870   5.453  -0.220  0.00  0.00    +0.300 C 
ATOM     10  O   LIG    1        2.592   3.979  -0.115  0.00  0.00    -0.560 OA
ENDROOT
BRANCH   7  11
ATOM     11  C   LIG    1        7.770   5.719  -2.707  0.00  0.00    +0.180 A 
ATOM     12  N   LIG    1        7.413   5.596  -3.961  0.00  0.00    -0.290 NA
ATOM     13  N   LIG    1        8.311   6.127  -4.722  0.00  0.00    -0.290 NA
ATOM     14  C   LIG    1        9.273   6.595  -3.986  0.00  0.00    +0.180 A 
ATOM     15  C   LIG    1       10.542   7.291  -4.445  0.00  0.00    +0.160 C 
ATOM     16  C   LIG    1       11.717   6.379  -4.059  0.00  0.00    +0.040 C 
ATOM     17  C   LIG    1       12.052   6.521  -2.594  0.00  0.00    -0.030 C 
ATOM     18  C   LIG    1       11.077   5.912  -1.616  0.00  0.00    +0.030 C 
ATOM     19  C   LIG    1        9.783   6.735  -1.539  0.00  0.00    +0.300 C 
ATOM     20  C   LIG    1       13.422   5.883  -2.357  0.00  0.00    +0.030 C 
ATOM     21  N   LIG    1        8.957   6.354  -2.700  0.00  0.00    -0.470 N 
ENDBRANCH   7  11
BRANCH   1  27
ATOM     22  C   LIG    1       -1.268   2.050   0.730  0.00  0.00    +0.100 C 
ATOM     23  C   LIG    1        0.011   1.341   0.363  0.00  0.00    -0.030 A 
ATOM     24  C   LIG    1        0.003  -0.004   0.022  0.00  0.00    -0.060 A 
ATOM     25  C   LIG    1        1.191  -0.622  -0.315  0.00  0.00    +0.290 A 
ATOM     26  N   LIG    1        2.327   0.049  -0.315  0.00  0.00    -0.520 NA
ATOM     27  C   LIG    1        2.375   1.332   0.005  0.00  0.00    +0.370 A 
ATOM     28  C   LIG    1        1.218   2.018   0.354  0.00  0.00    -0.020 A 
ENDBRANCH   1  27
TORSDOF 2
