REMARK  Name = ZINCvU0000000B0R.0
REMARK                            x       y       z     vdW  Elec       q    Type
REMARK                         _______ _______ _______ _____ _____    ______ ____
ROOT
ATOM      1  O   LIG    1       -3.106   2.396  -1.592  0.00  0.00    -0.460 OA
ATOM      2  C   LIG    1       -2.065   1.825  -1.340  0.00  0.00    +0.540 C 
ATOM      3  N   LIG    1       -1.203   2.358  -0.452  0.00  0.00    -0.560 N 
ATOM      4  C   LIG    1        0.153   2.040  -0.562  0.00  0.00    +0.160 A 
ATOM      5  C   LIG    1        0.606   1.522  -1.773  0.00  0.00    -0.030 A 
ATOM      6  C   LIG    1        1.932   1.174  -1.933  0.00  0.00    +0.050 A 
ATOM      7  C   LIG    1        2.824   1.337  -0.890  0.00  0.00    +0.010 A 
ATOM      8  C   LIG    1        2.388   1.851   0.315  0.00  0.00    +0.060 A 
ATOM      9  C   LIG    1        1.055   2.208   0.484  0.00  0.00    -0.120 A 
ATOM     10  S   LIG    1        0.542   2.880   2.032  0.00  0.00    -0.100 S 
ATOM     11  C   LIG    1       -1.266   2.721   1.954  0.00  0.00    +0.110 C 
ATOM     12  C   LIG    1       -1.725   3.244   0.585  0.00  0.00    +0.290 C 
ENDROOT
BRANCH  12  13
ATOM     13  C   LIG    1       -3.231   3.262   0.529  0.00  0.00    -0.080 A 
ATOM     14  C   LIG    1       -3.957   2.261   1.147  0.00  0.00    +0.010 A 
ATOM     15  C   LIG    1       -5.338   2.280   1.100  0.00  0.00    +0.000 A 
ATOM     16  C   LIG    1       -5.993   3.294   0.426  0.00  0.00    +0.010 A 
ATOM     17  C   LIG    1       -5.267   4.291  -0.196  0.00  0.00    +0.000 A 
ATOM     18  C   LIG    1       -3.886   4.275  -0.145  0.00  0.00    +0.060 A 
ENDBRANCH  12  13
BRANCH   2  19
ATOM     19  C   LIG    1       -1.737   0.520  -2.019  0.00  0.00    +0.120 C 
BRANCH  19  20
ATOM     20  S   LIG    1       -3.268  -0.279  -2.562  0.00  0.00    +0.080 S 
BRANCH  20  21
ATOM     21  C   LIG    1       -2.607  -1.736  -3.299  0.00  0.00    +0.150 A 
ATOM     22  N   LIG    1       -1.338  -2.060  -3.388  0.00  0.00    -0.290 NA
ATOM     23  N   LIG    1       -1.216  -3.193  -3.983  0.00  0.00    -0.280 NA
ATOM     24  C   LIG    1       -2.388  -3.653  -4.317  0.00  0.00    +0.400 A 
ATOM     25  N   LIG    1       -3.319  -2.742  -3.893  0.00  0.00    -0.420 N 
BRANCH  25  26
ATOM     26  C   LIG    1       -4.711  -2.823  -4.040  0.00  0.00    +0.100 A 
ATOM     27  C   LIG    1       -5.538  -2.626  -2.942  0.00  0.00    +0.020 A 
ATOM     28  C   LIG    1       -6.910  -2.701  -3.090  0.00  0.00    +0.040 A 
ATOM     29  C   LIG    1       -7.458  -2.984  -4.327  0.00  0.00    +0.030 A 
ATOM     30  C   LIG    1       -6.637  -3.186  -5.421  0.00  0.00    +0.040 A 
ATOM     31  C   LIG    1       -5.265  -3.106  -5.280  0.00  0.00    +0.020 A 
ENDBRANCH  25  26
ENDBRANCH  20  21
ENDBRANCH  19  20
ENDBRANCH   2  19
TORSDOF 5
