REMARK  Name = ZINCpe000027pHgk.0
REMARK                            x       y       z     vdW  Elec       q    Type
REMARK                         _______ _______ _______ _____ _____    ______ ____
ROOT
ATOM      1  N   LIG    1       -4.917   1.196   0.032  0.00  0.00    -0.580 N 
ATOM      2  C   LIG    1       -6.087   1.856   0.143  0.00  0.00    +0.520 C 
ATOM      3  O   LIG    1       -6.100   3.069   0.149  0.00  0.00    -0.490 OA
ATOM      4  C   LIG    1       -4.909  -0.264  -0.092  0.00  0.00    +0.300 C 
ENDROOT
BRANCH   1   9
ATOM      5  C   LIG    1       -2.194   3.452  -1.011  0.00  0.00    -0.130 A 
ATOM      6  C   LIG    1       -1.308   3.298   0.056  0.00  0.00    +0.050 A 
ATOM      7  C   LIG    1       -1.630   2.459   1.105  0.00  0.00    +0.020 A 
ATOM      8  C   LIG    1       -2.824   1.762   1.097  0.00  0.00    +0.040 A 
ATOM      9  C   LIG    1       -3.710   1.905   0.036  0.00  0.00    +0.130 A 
ATOM     10  C   LIG    1       -3.399   2.748  -1.019  0.00  0.00    +0.100 A 
BRANCH   5  14
ATOM     11  C   LIG    1       -0.359   5.935  -3.228  0.00  0.00    +0.290 C 
ATOM     12  N   LIG    1       -0.693   5.037  -2.120  0.00  0.00    -0.730 N 
ATOM     13  H   LIG    1       -0.078   4.934  -1.377  0.00  0.00    +0.400 HD
ATOM     14  C   LIG    1       -1.855   4.354  -2.132  0.00  0.00    +0.560 C 
ATOM     15  O   LIG    1       -2.626   4.483  -3.063  0.00  0.00    -0.530 OA
ENDBRANCH   5  14
ENDBRANCH   1   9
BRANCH   2  16
ATOM     16  C   LIG    1       -7.378   1.088   0.259  0.00  0.00    +0.230 C 
BRANCH  16  17
ATOM     17  O   LIG    1       -8.469   2.004   0.364  0.00  0.00    -0.340 OA
BRANCH  17  18
ATOM     18  C   LIG    1       -9.747   1.375   0.479  0.00  0.00    +0.170 C 
ATOM     19  C   LIG    1      -10.740   2.285   1.249  0.00  0.00    +0.060 C 
ATOM     20  C   LIG    1      -12.102   1.804   0.684  0.00  0.00    +0.260 C 
ATOM     21  N   LIG    1      -11.842   1.513  -0.738  0.00  0.00    -0.620 N 
ATOM     22  C   LIG    1      -12.765   1.510  -1.720  0.00  0.00    +0.520 C 
ATOM     23  O   LIG    1      -12.437   1.256  -2.860  0.00  0.00    -0.510 OA
ATOM     24  C   LIG    1      -10.410   1.227  -0.907  0.00  0.00    +0.240 C 
BRANCH  22  25
ATOM     25  C   LIG    1      -14.205   1.822  -1.403  0.00  0.00    +0.180 C 
ATOM     26 CL   LIG    1      -15.185   1.739  -2.914  0.00  0.00    -0.130 Cl
ENDBRANCH  22  25
ENDBRANCH  17  18
ENDBRANCH  16  17
ENDBRANCH   2  16
TORSDOF 6
