REMARK  Name = ZINCtV00001bB3ng.0
REMARK                            x       y       z     vdW  Elec       q    Type
REMARK                         _______ _______ _______ _____ _____    ______ ____
ROOT
ATOM      1  C   LIG    1        0.412   4.294   0.048  0.00  0.00    +0.580 C 
ATOM      2  N   LIG    1        1.470   3.474  -0.113  0.00  0.00    -0.660 N 
ATOM      3  H   LIG    1        2.348   3.845  -0.293  0.00  0.00    +0.410 HD
ATOM      4  O   LIG    1       -0.672   3.834   0.351  0.00  0.00    -0.510 OA
ENDROOT
BRANCH   2   5
ATOM      5  C   LIG    1        1.302   2.087  -0.020  0.00  0.00    +0.140 A 
ATOM      6  C   LIG    1        0.114   1.502  -0.432  0.00  0.00    +0.040 A 
ATOM      7  C   LIG    1       -0.050   0.132  -0.340  0.00  0.00    +0.040 A 
ATOM      8  C   LIG    1        0.968  -0.657   0.162  0.00  0.00    +0.010 A 
ATOM      9  C   LIG    1        2.155  -0.081   0.575  0.00  0.00    +0.040 A 
ATOM     10  C   LIG    1        2.328   1.291   0.485  0.00  0.00    +0.050 A 
BRANCH  10  11
ATOM     11  O   LIG    1        3.495   1.859   0.890  0.00  0.00    -0.260 OA
BRANCH  11  12
ATOM     12  C   LIG    1        3.533   2.426   2.125  0.00  0.00    +0.110 A 
ATOM     13  C   LIG    1        2.439   2.322   2.972  0.00  0.00    -0.060 A 
ATOM     14  C   LIG    1        2.483   2.895   4.228  0.00  0.00    +0.050 A 
ATOM     15  C   LIG    1        3.612   3.581   4.637  0.00  0.00    -0.020 A 
ATOM     16  C   LIG    1        4.701   3.691   3.793  0.00  0.00    +0.050 A 
ATOM     17  C   LIG    1        4.665   3.115   2.538  0.00  0.00    -0.020 A 
ENDBRANCH  11  12
ENDBRANCH  10  11
ENDBRANCH   2   5
BRANCH   1  19
ATOM     18  C   LIG    1       -0.502   6.576   0.019  0.00  0.00    +0.260 C 
ATOM     19  C   LIG    1        0.570   5.745  -0.144  0.00  0.00    -0.140 C 
BRANCH  18  23
ATOM     20  C   LIG    1        0.045  10.778  -0.035  0.00  0.00    -0.040 A 
ATOM     21  C   LIG    1       -1.165  10.236  -0.435  0.00  0.00    +0.010 A 
ATOM     22  C   LIG    1       -1.352   8.871  -0.421  0.00  0.00    +0.070 A 
ATOM     23  C   LIG    1       -0.313   8.030  -0.000  0.00  0.00    -0.120 A 
ATOM     24  C   LIG    1        0.906   8.587   0.407  0.00  0.00    +0.050 A 
ATOM     25  C   LIG    1        1.077   9.955   0.382  0.00  0.00    +0.010 A 
BRANCH  20  27
ATOM     26  C   LIG    1        0.558  12.762   1.360  0.00  0.00    +0.030 C 
ATOM     27  C   LIG    1        0.239  12.272  -0.053  0.00  0.00    +0.020 C 
ATOM     28  C   LIG    1        1.397  12.624  -0.989  0.00  0.00    +0.030 C 
ENDBRANCH  20  27
ENDBRANCH  18  23
BRANCH  19  29
ATOM     29  C   LIG    1        1.847   6.286  -0.501  0.00  0.00    +0.240 C 
ATOM     30  N   LIG    1        2.860   6.715  -0.784  0.00  0.00    -0.400 NA
ENDBRANCH  19  29
ENDBRANCH   1  19
TORSDOF 7
