REMARK  Name = ZINCvU00000004rk.0
REMARK                            x       y       z     vdW  Elec       q    Type
REMARK                         _______ _______ _______ _____ _____    ______ ____
ROOT
ATOM      1  C   LIG    1        3.541  -0.764  -0.074  0.00  0.00    +0.200 C 
ENDROOT
BRANCH   1   2
ATOM      2  C   LIG    1        2.244   0.003  -0.041  0.00  0.00    -0.090 A 
ATOM      3  C   LIG    1        1.042  -0.673   0.049  0.00  0.00    +0.010 A 
ATOM      4  C   LIG    1       -0.147   0.031   0.080  0.00  0.00    +0.000 A 
ATOM      5  C   LIG    1       -0.134   1.412   0.020  0.00  0.00    +0.010 A 
ATOM      6  C   LIG    1        1.068   2.089  -0.071  0.00  0.00    +0.000 A 
ATOM      7  C   LIG    1        2.257   1.384  -0.102  0.00  0.00    +0.050 A 
ENDBRANCH   1   2
BRANCH   1  10
ATOM      8  N   LIG    1        3.507  -1.271   2.347  0.00  0.00    -0.660 N 
ATOM      9  H   LIG    1        2.662  -1.727   2.210  0.00  0.00    +0.430 HD
ATOM     10  C   LIG    1        4.169  -0.748   1.296  0.00  0.00    +0.520 C 
ATOM     11  O   LIG    1        5.270  -0.264   1.452  0.00  0.00    -0.500 OA
BRANCH   8  16
ATOM     12  C   LIG    1        5.666  -0.809   7.573  0.00  0.00    +0.120 C 
ATOM     13  C   LIG    1        5.092  -0.931   6.185  0.00  0.00    -0.100 A 
ATOM     14  C   LIG    1        5.264   0.095   5.274  0.00  0.00    +0.110 A 
ATOM     15  C   LIG    1        4.744  -0.017   3.999  0.00  0.00    +0.040 A 
ATOM     16  C   LIG    1        4.040  -1.157   3.636  0.00  0.00    +0.220 A 
ATOM     17  C   LIG    1        3.869  -2.186   4.553  0.00  0.00    -0.070 A 
ATOM     18  C   LIG    1        4.396  -2.071   5.824  0.00  0.00    +0.120 A 
BRANCH  17  19
ATOM     19  N   LIG    1        3.124  -3.406   4.168  0.00  0.00    +0.040 N 
ATOM     20  O   LIG    1        2.584  -3.471   3.078  0.00  0.00    -0.190 OA
ATOM     21  O   LIG    1        3.052  -4.345   4.940  0.00  0.00    -0.140 OA
ENDBRANCH  17  19
ENDBRANCH   8  16
ENDBRANCH   1  10
BRANCH   1  22
ATOM     22  N   LIG    1        4.455  -0.140  -1.039  0.00  0.00    -0.660 NA
ATOM     23  H   LIG    1        5.413  -0.221  -0.734  0.00  0.00    +0.360 HD
BRANCH  22  24
ATOM     24  C   LIG    1        4.280  -0.717  -2.379  0.00  0.00    +0.190 C 
ATOM     25  C   LIG    1        3.221   0.081  -3.136  0.00  0.00    +0.050 C 
ATOM     26  C   LIG    1        3.208  -0.394  -4.594  0.00  0.00    +0.010 C 
ATOM     27  C   LIG    1        4.500   0.071  -5.264  0.00  0.00    +0.080 C 
ATOM     28  C   LIG    1        5.696  -0.322  -4.438  0.00  0.00    -0.060 A 
ATOM     29  C   LIG    1        6.939  -0.315  -5.056  0.00  0.00    +0.000 A 
ATOM     30  C   LIG    1        8.075  -0.661  -4.351  0.00  0.00    +0.000 A 
ATOM     31  C   LIG    1        7.974  -1.017  -3.020  0.00  0.00    +0.000 A 
ATOM     32  C   LIG    1        6.739  -1.026  -2.404  0.00  0.00    +0.000 A 
ATOM     33  C   LIG    1        5.596  -0.680  -3.112  0.00  0.00    -0.080 A 
ENDBRANCH  22  24
ENDBRANCH   1  22
TORSDOF 6
