REMARK  Name = ZINCpk00001AZiBx.0
REMARK                            x       y       z     vdW  Elec       q    Type
REMARK                         _______ _______ _______ _____ _____    ______ ____
ROOT
ATOM      1  C   LIG    1        7.048   2.928  -0.427  0.00  0.00    +0.510 C 
ATOM      2  O   LIG    1        7.473   1.790  -0.440  0.00  0.00    -0.490 OA
ENDROOT
BRANCH   1   7
ATOM      3  C   LIG    1        8.367   6.427  -0.049  0.00  0.00    +0.130 A 
ATOM      4  C   LIG    1        9.726   6.185   0.111  0.00  0.00    +0.070 A 
ATOM      5  C   LIG    1       10.210   4.891   0.096  0.00  0.00    +0.010 A 
ATOM      6  C   LIG    1        9.345   3.827  -0.078  0.00  0.00    +0.150 A 
ATOM      7  C   LIG    1        7.975   4.060  -0.240  0.00  0.00    -0.140 A 
ATOM      8  F   LIG    1        9.822   2.563  -0.092  0.00  0.00    -0.110 F 
ATOM      9  C   LIG    1        7.490   5.369  -0.230  0.00  0.00    +0.120 A 
BRANCH   3  11
ATOM     10  C   LIG    1        6.662   8.003   0.473  0.00  0.00    +0.540 C 
ATOM     11  N   LIG    1        7.883   7.740  -0.033  0.00  0.00    -0.670 N 
ATOM     12  H   LIG    1        8.427   8.462  -0.386  0.00  0.00    +0.420 HD
ATOM     13  O   LIG    1        6.020   7.116   1.002  0.00  0.00    -0.510 OA
BRANCH  10  15
ATOM     14  C   LIG    1        4.901   9.621   0.884  0.00  0.00    +0.160 C 
ATOM     15  C   LIG    1        6.106   9.362   0.385  0.00  0.00    -0.090 C 
ENDBRANCH  10  15
ENDBRANCH   3  11
ENDBRANCH   1   7
BRANCH   1  16
ATOM     16  O   LIG    1        5.729   3.156  -0.583  0.00  0.00    -0.320 OA
BRANCH  16  17
ATOM     17  C   LIG    1        4.876   1.994  -0.762  0.00  0.00    +0.270 C 
BRANCH  17  18
ATOM     18  C   LIG    1        3.445   2.442  -0.919  0.00  0.00    +0.520 C 
ATOM     19  N   LIG    1        2.470   1.529  -1.098  0.00  0.00    -0.640 N 
ATOM     20  H   LIG    1        2.689   0.584  -1.127  0.00  0.00    +0.410 HD
ATOM     21  O   LIG    1        3.172   3.623  -0.883  0.00  0.00    -0.500 OA
BRANCH  19  22
ATOM     22  C   LIG    1        1.134   1.946  -1.245  0.00  0.00    -0.000 A 
ATOM     23  C   LIG    1        0.059   1.138  -1.431  0.00  0.00    +0.200 A 
ATOM     24  N   LIG    1       -1.038   1.931  -1.530  0.00  0.00    -0.370 N 
ATOM     25  N   LIG    1       -0.622   3.261  -1.391  0.00  0.00    -0.280 NA
ATOM     26  C   LIG    1       -2.415   1.476  -1.742  0.00  0.00    +0.370 C 
ATOM     27  C   LIG    1        0.676   3.272  -1.224  0.00  0.00    +0.260 A 
ENDBRANCH  19  22
ENDBRANCH  17  18
ENDBRANCH  16  17
ENDBRANCH   1  16
TORSDOF 7
