REMARK  Name = ZINCqH0000005aXi.0
REMARK                            x       y       z     vdW  Elec       q    Type
REMARK                         _______ _______ _______ _____ _____    ______ ____
ROOT
ATOM      1  C   LIG    1        2.385   0.011  -0.173  0.00  0.00    +0.280 C 
ATOM      2  N   LIG    1        1.115  -0.719  -0.130  0.00  0.00    -0.630 N 
ATOM      3  C   LIG    1       -0.049  -0.043  -0.079  0.00  0.00    +0.710 C 
ATOM      4  N   LIG    1       -0.046   1.305  -0.067  0.00  0.00    -0.740 N 
ATOM      5  H   LIG    1        0.795   1.788  -0.096  0.00  0.00    +0.390 HD
ATOM      6  O   LIG    1       -1.103  -0.648  -0.042  0.00  0.00    -0.580 OA
ENDROOT
BRANCH   4   7
ATOM      7  C   LIG    1       -1.312   2.040  -0.018  0.00  0.00    +0.270 C 
ATOM      8  C   LIG    1       -1.768   2.176   1.438  0.00  0.00    +0.010 C 
ATOM      9  C   LIG    1       -3.060   2.997   1.485  0.00  0.00    +0.050 C 
ATOM     10  C   LIG    1       -2.814   4.363   0.841  0.00  0.00    +0.180 C 
ATOM     11  N   LIG    1       -2.381   4.179  -0.550  0.00  0.00    -0.480 N 
ATOM     12  C   LIG    1       -1.117   3.434  -0.619  0.00  0.00    +0.190 C 
BRANCH  11  13
ATOM     13  C   LIG    1       -2.275   5.407  -1.208  0.00  0.00    +0.120 A 
ATOM     14  C   LIG    1       -1.031   5.876  -1.610  0.00  0.00    -0.030 A 
ATOM     15  C   LIG    1       -0.929   7.090  -2.261  0.00  0.00    +0.040 A 
ATOM     16  C   LIG    1       -2.064   7.840  -2.512  0.00  0.00    +0.000 A 
ATOM     17  C   LIG    1       -3.304   7.377  -2.113  0.00  0.00    +0.050 A 
ATOM     18  C   LIG    1       -3.414   6.160  -1.467  0.00  0.00    -0.050 A 
ATOM     19 CL   LIG    1       -4.973   5.576  -0.973  0.00  0.00    -0.050 Cl
ENDBRANCH  11  13
ENDBRANCH   4   7
BRANCH   2  20
ATOM     20  C   LIG    1        1.112  -2.184  -0.142  0.00  0.00    +0.290 C 
BRANCH  20  21
ATOM     21  C   LIG    1        1.054  -2.682  -1.587  0.00  0.00    +0.000 C 
BRANCH  21  22
ATOM     22  C   LIG    1        1.050  -4.212  -1.600  0.00  0.00    -0.020 C 
ATOM     23  C   LIG    1        2.382  -4.732  -1.050  0.00  0.00    -0.010 C 
ATOM     24  C   LIG    1        2.401  -6.260  -1.141  0.00  0.00    +0.200 C 
ATOM     25  O   LIG    1        2.199  -6.659  -2.499  0.00  0.00    -0.380 OA
ATOM     26  C   LIG    1        0.948  -6.241  -3.050  0.00  0.00    +0.200 C 
ATOM     27  C   LIG    1        0.872  -4.712  -3.037  0.00  0.00    -0.010 C 
ENDBRANCH  21  22
ENDBRANCH  20  21
ENDBRANCH   2  20
TORSDOF 5
