REMARK  Name = ZINCpk00000y6wgo.0
REMARK                            x       y       z     vdW  Elec       q    Type
REMARK                         _______ _______ _______ _____ _____    ______ ____
ROOT
ATOM      1  C   LIG    1        2.658   3.653  -0.615  0.00  0.00    +0.160 C 
ATOM      2  C   LIG    1        3.500   2.481  -0.044  0.00  0.00    +0.100 C 
ATOM      3  C   LIG    1        2.491   1.313  -0.009  0.00  0.00    +0.350 C 
ATOM      4  N   LIG    1        1.143   1.901   0.001  0.00  0.00    -0.610 N 
ATOM      5  C   LIG    1       -0.014   1.212   0.009  0.00  0.00    +0.610 C 
ATOM      6  O   LIG    1        0.002  -0.004   0.002  0.00  0.00    -0.520 OA
ATOM      7  C   LIG    1        1.269   3.370   0.009  0.00  0.00    +0.260 C 
ENDROOT
BRANCH   5   8
ATOM      8  C   LIG    1       -1.304   1.933   0.019  0.00  0.00    +0.010 A 
ATOM      9  N   LIG    1       -1.472   3.240   0.026  0.00  0.00    -0.250 NA
ATOM     10  N   LIG    1       -2.725   3.523   0.033  0.00  0.00    -0.360 N 
ATOM     11  H   LIG    1       -3.091   4.421   0.040  0.00  0.00    +0.450 HD
ATOM     12  C   LIG    1       -3.461   2.388   0.031  0.00  0.00    -0.010 A 
ATOM     13  C   LIG    1       -4.883   1.875   0.034  0.00  0.00    +0.130 C 
ATOM     14  C   LIG    1       -4.775   0.393   0.458  0.00  0.00    +0.050 C 
ATOM     15  C   LIG    1       -3.336   0.039   0.019  0.00  0.00    +0.110 C 
ATOM     16  C   LIG    1       -2.593   1.353   0.016  0.00  0.00    -0.160 A 
ENDBRANCH   5   8
BRANCH   3  17
ATOM     17  C   LIG    1        2.700   0.489   1.236  0.00  0.00    +0.170 A 
ATOM     18  N   LIG    1        3.815  -0.076   1.611  0.00  0.00    -0.280 NA
ATOM     19  N   LIG    1        3.632  -0.699   2.721  0.00  0.00    -0.280 NA
ATOM     20  C   LIG    1        2.393  -0.560   3.104  0.00  0.00    +0.210 A 
ATOM     21  N   LIG    1        1.767   0.203   2.175  0.00  0.00    -0.560 N 
ATOM     22  H   LIG    1        0.838   0.484   2.180  0.00  0.00    +0.420 HD
BRANCH  20  23
ATOM     23  C   LIG    1        1.773  -1.135   4.351  0.00  0.00    +0.060 C 
ATOM     24  C   LIG    1        0.434  -0.553   4.809  0.00  0.00    +0.030 C 
ATOM     25  C   LIG    1        1.713  -0.238   5.589  0.00  0.00    +0.060 C 
ENDBRANCH  20  23
ENDBRANCH   3  17
BRANCH   1  27
ATOM     26  C   LIG    1        2.333   4.853  -2.664  0.00  0.00    +0.210 C 
ATOM     27  O   LIG    1        2.601   3.595  -2.041  0.00  0.00    -0.370 OA
ENDBRANCH   1  27
TORSDOF 4
