REMARK  Name = ZINCpk00000y6wgo.1
REMARK                            x       y       z     vdW  Elec       q    Type
REMARK                         _______ _______ _______ _____ _____    ______ ____
ROOT
ATOM      1  C   LIG    1       -0.686  -2.218   0.608  0.00  0.00    +0.160 C 
ATOM      2  C   LIG    1        0.742  -2.316   0.009  0.00  0.00    +0.070 C 
ATOM      3  C   LIG    1        1.208  -0.845  -0.020  0.00  0.00    +0.350 C 
ATOM      4  N   LIG    1        0.002  -0.004   0.002  0.00  0.00    -0.590 N 
ATOM      5  C   LIG    1       -0.016   1.344   0.009  0.00  0.00    +0.620 C 
ATOM      6  O   LIG    1        1.028   1.966   0.003  0.00  0.00    -0.520 OA
ATOM      7  C   LIG    1       -1.184  -0.879   0.008  0.00  0.00    +0.260 C 
ENDROOT
BRANCH   5   8
ATOM      8  C   LIG    1       -1.305   2.065   0.019  0.00  0.00    +0.020 A 
ATOM      9  N   LIG    1       -2.508   1.524   0.023  0.00  0.00    -0.250 NA
ATOM     10  N   LIG    1       -3.404   2.444   0.032  0.00  0.00    -0.360 N 
ATOM     11  H   LIG    1       -4.361   2.286   0.036  0.00  0.00    +0.440 HD
ATOM     12  C   LIG    1       -2.822   3.665   0.035  0.00  0.00    -0.020 A 
ATOM     13  C   LIG    1       -3.129   5.145   0.043  0.00  0.00    +0.130 C 
ATOM     14  C   LIG    1       -1.812   5.824   0.489  0.00  0.00    +0.050 C 
ATOM     15  C   LIG    1       -0.755   4.787   0.045  0.00  0.00    +0.110 C 
ATOM     16  C   LIG    1       -1.486   3.467   0.034  0.00  0.00    -0.160 A 
ENDBRANCH   5   8
BRANCH   3  17
ATOM     17  C   LIG    1        1.996  -0.578  -1.277  0.00  0.00    +0.230 A 
ATOM     18  N   LIG    1        1.492  -0.452  -2.476  0.00  0.00    -0.300 NA
ATOM     19  N   LIG    1        2.569  -0.213  -3.345  0.00  0.00    -0.480 N 
ATOM     20  H   LIG    1        2.523  -0.075  -4.305  0.00  0.00    +0.440 HD
ATOM     21  C   LIG    1        3.677  -0.211  -2.584  0.00  0.00    +0.320 A 
ATOM     22  N   LIG    1        3.318  -0.426  -1.345  0.00  0.00    -0.520 NA
BRANCH  21  23
ATOM     23  C   LIG    1        5.086   0.006  -3.072  0.00  0.00    +0.050 C 
ATOM     24  C   LIG    1        5.286   0.965  -4.248  0.00  0.00    +0.050 C 
ATOM     25  C   LIG    1        5.448  -0.543  -4.454  0.00  0.00    +0.050 C 
ENDBRANCH  21  23
ENDBRANCH   3  17
BRANCH   1  27
ATOM     26  C   LIG    1       -1.840  -2.591   2.675  0.00  0.00    +0.200 C 
ATOM     27  O   LIG    1       -0.639  -2.155   2.034  0.00  0.00    -0.370 OA
ENDBRANCH   1  27
TORSDOF 4
