REMARK  Name = ZINCnE00000iCz5G.0
REMARK                            x       y       z     vdW  Elec       q    Type
REMARK                         _______ _______ _______ _____ _____    ______ ____
ROOT
ATOM      1  N   LIG    1       -1.010  -1.981  -0.976  0.00  0.00    -0.610 NA
ATOM      2  C   LIG    1       -1.857  -2.117  -1.967  0.00  0.00    +0.340 A 
ATOM      3  N   LIG    1       -2.962  -1.357  -2.233  0.00  0.00    -0.500 NA
ATOM      4  N   LIG    1       -3.690  -1.712  -3.347  0.00  0.00    -0.230 NA
ATOM      5  C   LIG    1       -3.289  -2.721  -4.057  0.00  0.00    -0.030 A 
ATOM      6  S   LIG    1       -1.821  -3.323  -3.268  0.00  0.00    -0.130 S 
ENDROOT
BRANCH   5   7
ATOM      7  C   LIG    1       -3.926  -3.257  -5.280  0.00  0.00    -0.000 A 
ATOM      8  C   LIG    1       -5.088  -2.671  -5.792  0.00  0.00    +0.080 A 
ATOM      9  C   LIG    1       -5.645  -3.211  -6.939  0.00  0.00    -0.040 A 
ATOM     10  C   LIG    1       -5.040  -4.302  -7.535  0.00  0.00    +0.220 A 
ATOM     11  N   LIG    1       -3.945  -4.835  -7.029  0.00  0.00    -0.480 NA
ATOM     12  C   LIG    1       -3.374  -4.353  -5.944  0.00  0.00    +0.250 A 
ENDBRANCH   5   7
BRANCH   1  13
ATOM     13  C   LIG    1       -1.200  -0.912   0.008  0.00  0.00    +0.280 C 
BRANCH  13  14
ATOM     14  C   LIG    1        0.002  -0.004   0.002  0.00  0.00    +0.200 A 
ATOM     15  N   LIG    1        1.247  -0.376  -0.012  0.00  0.00    -0.360 NA
ATOM     16  O   LIG    1        1.975   0.594  -0.014  0.00  0.00    +0.070 OA
ATOM     17  C   LIG    1        1.242   1.711  -0.001  0.00  0.00    +0.180 A 
ATOM     18  N   LIG    1       -0.016   1.341   0.009  0.00  0.00    -0.470 NA
BRANCH  17  19
ATOM     19  C   LIG    1        1.761   3.126   0.001  0.00  0.00    +0.080 C 
ATOM     20  C   LIG    1        3.262   3.328  -0.218  0.00  0.00    +0.060 C 
ATOM     21  C   LIG    1        2.654   3.549   1.169  0.00  0.00    +0.050 C 
ENDBRANCH  17  19
ENDBRANCH  13  14
BRANCH  13  23
ATOM     22  C   LIG    1       -2.659  -2.348   1.442  0.00  0.00    +0.020 C 
ATOM     23  C   LIG    1       -1.369  -1.525   1.400  0.00  0.00    +0.010 C 
ENDBRANCH  13  23
ENDBRANCH   1  13
TORSDOF 5
