REMARK  Name = ZINCpk00000xIc14.0
REMARK                            x       y       z     vdW  Elec       q    Type
REMARK                         _______ _______ _______ _____ _____    ______ ____
ROOT
ATOM      1  C   LIG    1       -0.032   4.099  -0.087  0.00  0.00    +0.160 C 
ATOM      2  C   LIG    1       -0.399   4.342  -1.569  0.00  0.00    +0.040 C 
ATOM      3  C   LIG    1       -1.024   5.759  -1.544  0.00  0.00    +0.220 C 
ATOM      4  N   LIG    1       -0.195   6.478  -0.543  0.00  0.00    -0.450 N 
ATOM      5  C   LIG    1        0.070   5.503   0.537  0.00  0.00    +0.250 C 
ENDROOT
BRANCH   4   6
ATOM      6  C   LIG    1       -0.858   7.588  -0.057  0.00  0.00    +0.440 A 
ATOM      7  C   LIG    1       -1.208   8.651  -0.911  0.00  0.00    -0.290 A 
ATOM      8  C   LIG    1       -1.053   8.909  -2.290  0.00  0.00    +0.310 A 
ATOM      9  N   LIG    1       -1.583  10.069  -2.555  0.00  0.00    -0.240 NA
ATOM     10  N   LIG    1       -2.111  10.625  -1.383  0.00  0.00    -0.380 N 
ATOM     11  C   LIG    1       -2.787  11.921  -1.277  0.00  0.00    +0.370 C 
ATOM     12  C   LIG    1       -1.888   9.754  -0.359  0.00  0.00    +0.350 A 
ATOM     13  N   LIG    1       -2.163   9.753   0.945  0.00  0.00    -0.550 NA
ATOM     14  C   LIG    1       -1.811   8.738   1.704  0.00  0.00    +0.580 A 
ATOM     15  N   LIG    1       -1.177   7.680   1.230  0.00  0.00    -0.590 NA
ENDBRANCH   4   6
BRANCH   1  16
ATOM     16  O   LIG    1        1.223   3.422   0.008  0.00  0.00    -0.280 OA
BRANCH  16  22
ATOM     17  C   LIG    1        2.363   1.325   0.187  0.00  0.00    +0.290 A 
ATOM     18  N   LIG    1        2.336   0.003   0.162  0.00  0.00    -0.490 NA
ATOM     19  C   LIG    1        1.217  -0.664  -0.055  0.00  0.00    +0.250 A 
ATOM     20  C   LIG    1        0.025  -0.001  -0.265  0.00  0.00    -0.020 A 
ATOM     21  C   LIG    1        0.005   1.387  -0.247  0.00  0.00    -0.010 A 
ATOM     22  C   LIG    1        1.195   2.062  -0.017  0.00  0.00    +0.070 A 
BRANCH  17  24
ATOM     23  C   LIG    1        4.665   1.032   0.607  0.00  0.00    +0.220 C 
ATOM     24  N   LIG    1        3.565   1.987   0.419  0.00  0.00    -0.480 N 
ATOM     25  C   LIG    1        3.866   2.929  -0.668  0.00  0.00    +0.220 C 
ENDBRANCH  17  24
ENDBRANCH  16  22
ENDBRANCH   1  16
TORSDOF 4
