REMARK  Name = ZINCpe00000MJJEz.0
REMARK                            x       y       z     vdW  Elec       q    Type
REMARK                         _______ _______ _______ _____ _____    ______ ____
ROOT
ATOM      1  C   LIG    1        2.990  13.784  -3.097  0.00  0.00    +0.200 C 
ATOM      2  C   LIG    1        2.048  12.969  -2.249  0.00  0.00    +0.190 A 
ATOM      3  N   LIG    1        0.763  13.167  -2.105  0.00  0.00    -0.290 NA
ATOM      4  N   LIG    1        0.273  12.283  -1.304  0.00  0.00    -0.270 NA
ATOM      5  C   LIG    1        1.219  11.491  -0.905  0.00  0.00    +0.150 A 
ATOM      6  C   LIG    1        1.130  10.316   0.039  0.00  0.00    +0.420 C 
ATOM      7  N   LIG    1        2.417   9.600  -0.043  0.00  0.00    -0.630 N 
ATOM      8  C   LIG    1        3.654  10.395  -0.055  0.00  0.00    +0.340 C 
ATOM      9  C   LIG    1        3.677  11.264  -1.324  0.00  0.00    +0.300 C 
ATOM     10  C   LIG    1        2.458   8.254  -0.101  0.00  0.00    +0.730 C 
ATOM     11  N   LIG    1        1.313   7.546  -0.166  0.00  0.00    -0.660 N 
ATOM     12  H   LIG    1        0.465   8.005  -0.272  0.00  0.00    +0.410 HD
ATOM     13  O   LIG    1        3.529   7.677  -0.093  0.00  0.00    -0.560 OA
ATOM     14  N   LIG    1        2.371  11.898  -1.496  0.00  0.00    -0.470 N 
ENDROOT
BRANCH  11  15
ATOM     15  C   LIG    1        1.347   6.153  -0.080  0.00  0.00    +0.340 A 
ATOM     16  C   LIG    1        2.523   5.475  -0.376  0.00  0.00    +0.020 A 
ATOM     17  C   LIG    1        2.549   4.095  -0.283  0.00  0.00    +0.060 A 
ATOM     18  C   LIG    1        1.382   3.434   0.097  0.00  0.00    +0.040 A 
ATOM     19  C   LIG    1        0.244   4.178   0.376  0.00  0.00    +0.240 A 
ATOM     20  N   LIG    1        0.259   5.493   0.282  0.00  0.00    -0.490 NA
BRANCH  18  21
ATOM     21  N   LIG    1        1.360   2.039   0.200  0.00  0.00    -0.480 N 
ATOM     22  C   LIG    1        0.033   1.563   0.619  0.00  0.00    +0.170 C 
ATOM     23  C   LIG    1        0.036   0.032   0.662  0.00  0.00    +0.230 C 
ATOM     24  O   LIG    1        1.074  -0.413   1.540  0.00  0.00    -0.380 OA
ATOM     25  C   LIG    1        2.379   0.032   1.161  0.00  0.00    +0.220 C 
ATOM     26  C   LIG    1        2.400   1.562   1.123  0.00  0.00    +0.160 C 
ENDBRANCH  18  21
ENDBRANCH  11  15
TORSDOF 2
