REMARK  Name = ZINCrH000004treS.0
REMARK                            x       y       z     vdW  Elec       q    Type
REMARK                         _______ _______ _______ _____ _____    ______ ____
ROOT
ATOM      1  N   LIG    1       -0.596   3.071  -1.152  0.00  0.00    -0.720 N 
ATOM      2  H   LIG    1        0.090   3.520  -1.671  0.00  0.00    +0.390 HD
ATOM      3  C   LIG    1       -1.419   3.787  -0.360  0.00  0.00    +0.600 C 
ATOM      4  O   LIG    1       -2.334   3.236   0.221  0.00  0.00    -0.520 OA
ENDROOT
BRANCH   3   5
ATOM      5  C   LIG    1       -1.209   5.236  -0.199  0.00  0.00    -0.280 A 
ATOM      6  C   LIG    1       -0.218   5.998  -0.783  0.00  0.00    +0.300 A 
ATOM      7  N   LIG    1       -0.383   7.267  -0.380  0.00  0.00    -0.460 N 
ATOM      8  H   LIG    1        0.178   8.013  -0.643  0.00  0.00    +0.450 HD
ATOM      9  N   LIG    1       -1.480   7.348   0.482  0.00  0.00    -0.280 NA
ATOM     10  C   LIG    1       -2.007   6.153   0.620  0.00  0.00    +0.180 A 
BRANCH  10  11
ATOM     11  C   LIG    1       -3.186   5.799   1.447  0.00  0.00    -0.020 A 
ATOM     12  C   LIG    1       -3.416   6.455   2.655  0.00  0.00    +0.050 A 
ATOM     13  C   LIG    1       -4.514   6.121   3.421  0.00  0.00    +0.020 A 
ATOM     14  C   LIG    1       -5.388   5.139   2.992  0.00  0.00    +0.030 A 
ATOM     15  C   LIG    1       -5.166   4.483   1.792  0.00  0.00    -0.040 A 
ATOM     16 CL   LIG    1       -6.267   3.251   1.261  0.00  0.00    -0.070 Cl
ATOM     17  C   LIG    1       -4.072   4.813   1.016  0.00  0.00    +0.110 A 
ENDBRANCH  10  11
ENDBRANCH   3   5
BRANCH   1  18
ATOM     18  C   LIG    1       -0.738   1.615  -1.230  0.00  0.00    +0.320 C 
BRANCH  18  19
ATOM     19  C   LIG    1       -1.727   1.264  -2.311  0.00  0.00    -0.090 A 
ATOM     20  C   LIG    1       -1.731   1.969  -3.500  0.00  0.00    +0.040 A 
ATOM     21  C   LIG    1       -2.635   1.644  -4.494  0.00  0.00    +0.020 A 
ATOM     22  C   LIG    1       -3.542   0.619  -4.295  0.00  0.00    -0.030 A 
ATOM     23  C   LIG    1       -3.541  -0.084  -3.103  0.00  0.00    +0.020 A 
ATOM     24 CL   LIG    1       -4.682   0.214  -5.540  0.00  0.00    -0.070 Cl
ATOM     25  C   LIG    1       -2.634   0.239  -2.111  0.00  0.00    +0.040 A 
ENDBRANCH  18  19
BRANCH  18  26
ATOM     26  C   LIG    1        0.619   0.987  -1.556  0.00  0.00    +0.070 C 
BRANCH  26  30
ATOM     27  N   LIG    1        2.861   0.854  -0.521  0.00  0.00    -0.860 N 
ATOM     28  H   LIG    1        3.473   1.004   0.216  0.00  0.00    +0.400 HD
ATOM     29  H   LIG    1        3.179   0.438  -1.338  0.00  0.00    +0.400 HD
ATOM     30  C   LIG    1        1.569   1.221  -0.411  0.00  0.00    +0.510 C 
ATOM     31  O   LIG    1        1.172   1.741   0.611  0.00  0.00    -0.530 OA
ENDBRANCH  26  30
ENDBRANCH  18  26
ENDBRANCH   1  18
TORSDOF 6
