REMARK  Name = ZINCvU00000005iI.0
REMARK                            x       y       z     vdW  Elec       q    Type
REMARK                         _______ _______ _______ _____ _____    ______ ____
ROOT
ATOM      1  C   LIG    1        5.454   1.787  -0.075  0.00  0.00    +0.150 A 
ATOM      2  N   LIG    1        5.198   0.498  -0.024  0.00  0.00    -0.290 NA
ATOM      3  N   LIG    1        3.929   0.298  -0.067  0.00  0.00    -0.230 NA
ATOM      4  C   LIG    1        3.297   1.446  -0.148  0.00  0.00    +0.220 A 
ATOM      5  N   LIG    1        4.254   2.434  -0.161  0.00  0.00    -0.450 N 
ENDROOT
BRANCH   4   6
ATOM      6  C   LIG    1        1.833   1.640  -0.220  0.00  0.00    +0.010 A 
ATOM      7  C   LIG    1        1.305   2.910  -0.455  0.00  0.00    +0.020 A 
ATOM      8  C   LIG    1       -0.062   3.083  -0.521  0.00  0.00    +0.040 A 
ATOM      9  C   LIG    1       -0.909   2.003  -0.354  0.00  0.00    +0.040 A 
ATOM     10  C   LIG    1       -0.393   0.740  -0.125  0.00  0.00    +0.050 A 
ATOM     11  C   LIG    1        0.973   0.552  -0.052  0.00  0.00    -0.060 A 
ATOM     12 BR   LIG    1        1.677  -1.173   0.267  0.00  0.00    -0.000 Br
ENDBRANCH   4   6
BRANCH   1  13
ATOM     13  S   LIG    1        7.047   2.538  -0.045  0.00  0.00    +0.080 S 
BRANCH  13  14
ATOM     14  C   LIG    1        8.088   1.062   0.069  0.00  0.00    +0.110 C 
BRANCH  14  17
ATOM     15  C   LIG    1       10.139  -0.886   0.249  0.00  0.00    +0.300 C 
ATOM     16  N   LIG    1       10.502   0.533   0.195  0.00  0.00    -0.610 N 
ATOM     17  C   LIG    1        9.538   1.472   0.110  0.00  0.00    +0.530 C 
ATOM     18  O   LIG    1        9.838   2.646   0.066  0.00  0.00    -0.510 OA
BRANCH  16  19
ATOM     19  C   LIG    1       11.911   0.931   0.234  0.00  0.00    +0.420 C 
BRANCH  19  20
ATOM     20  C   LIG    1       12.335   1.136   1.666  0.00  0.00    -0.040 A 
ATOM     21  C   LIG    1       12.846   0.193   2.478  0.00  0.00    -0.040 A 
ATOM     22  C   LIG    1       13.103   0.818   3.720  0.00  0.00    -0.070 A 
ATOM     23  C   LIG    1       12.726   2.103   3.595  0.00  0.00    +0.170 A 
ATOM     24  O   LIG    1       12.262   2.290   2.349  0.00  0.00    -0.160 OA
ENDBRANCH  19  20
ENDBRANCH  16  19
ENDBRANCH  14  17
ENDBRANCH  13  14
ENDBRANCH   1  13
BRANCH   5  25
ATOM     25  C   LIG    1        4.033   3.880  -0.246  0.00  0.00    +0.370 C 
BRANCH  25  26
ATOM     26  C   LIG    1        3.943   4.290  -1.694  0.00  0.00    -0.130 A 
ATOM     27  C   LIG    1        5.031   4.117  -2.530  0.00  0.00    +0.030 A 
ATOM     28  C   LIG    1        4.947   4.489  -3.858  0.00  0.00    +0.020 A 
ATOM     29  C   LIG    1        3.780   5.043  -4.349  0.00  0.00    +0.030 A 
ATOM     30  C   LIG    1        2.694   5.221  -3.512  0.00  0.00    +0.010 A 
ATOM     31  C   LIG    1        2.776   4.844  -2.184  0.00  0.00    +0.020 A 
ENDBRANCH  25  26
ENDBRANCH   5  25
TORSDOF 8
