REMARK  Name = ZINCtV00001bB3tj.0
REMARK                            x       y       z     vdW  Elec       q    Type
REMARK                         _______ _______ _______ _____ _____    ______ ____
ROOT
ATOM      1  C   LIG    1        6.639  -0.169  -1.971  0.00  0.00    +0.160 A 
ATOM      2  C   LIG    1        5.994   0.659  -2.802  0.00  0.00    -0.050 A 
ATOM      3  S   LIG    1        4.413   0.954  -2.056  0.00  0.00    -0.000 S 
ATOM      4  C   LIG    1        4.725  -0.076  -0.646  0.00  0.00    +0.400 A 
ATOM      5  N   LIG    1        3.914  -0.317   0.365  0.00  0.00    -0.530 NA
ATOM      6  N   LIG    1        5.989  -0.560  -0.831  0.00  0.00    -0.490 N 
ENDROOT
BRANCH   1  10
ATOM      7  C   LIG    1       10.573  -1.521  -2.832  0.00  0.00    -0.070 A 
ATOM      8  C   LIG    1       10.282  -0.170  -2.884  0.00  0.00    +0.020 A 
ATOM      9  C   LIG    1        9.007   0.276  -2.606  0.00  0.00    +0.050 A 
ATOM     10  C   LIG    1        8.008  -0.639  -2.271  0.00  0.00    -0.050 A 
ATOM     11  C   LIG    1        8.309  -2.001  -2.215  0.00  0.00    +0.030 A 
ATOM     12  C   LIG    1        9.588  -2.434  -2.500  0.00  0.00    +0.010 A 
BRANCH   7  14
ATOM     13  C   LIG    1       12.790  -2.035  -1.846  0.00  0.00    +0.030 C 
ATOM     14  C   LIG    1       11.968  -2.001  -3.137  0.00  0.00    +0.050 C 
ENDBRANCH   7  14
ENDBRANCH   1  10
BRANCH   5  15
ATOM     15  C   LIG    1        2.672   0.258   0.399  0.00  0.00    +0.140 A 
ATOM     16  C   LIG    1        1.555  -0.507   0.742  0.00  0.00    +0.040 A 
ATOM     17  C   LIG    1        0.306   0.075   0.775  0.00  0.00    +0.060 A 
ATOM     18  C   LIG    1        0.157   1.422   0.467  0.00  0.00    -0.110 A 
ATOM     19  C   LIG    1        1.266   2.187   0.125  0.00  0.00    +0.040 A 
ATOM     20  C   LIG    1        2.518   1.611   0.090  0.00  0.00    -0.010 A 
BRANCH  18  21
ATOM     21  S   LIG    1       -1.443   2.160   0.503  0.00  0.00    -0.100 S 
BRANCH  21  22
ATOM     22  C   LIG    1       -1.108   3.882   0.038  0.00  0.00    +0.430 C 
ATOM     23  F   LIG    1       -0.528   3.917  -1.234  0.00  0.00    -0.180 F 
ATOM     24  F   LIG    1       -0.231   4.453   0.966  0.00  0.00    -0.180 F 
ENDBRANCH  21  22
ENDBRANCH  18  21
ENDBRANCH   5  15
BRANCH   6  25
ATOM     25  C   LIG    1        6.617  -1.459   0.141  0.00  0.00    +0.250 C 
ATOM     26  C   LIG    1        5.836  -2.773   0.199  0.00  0.00    +0.060 C 
BRANCH  25  27
ATOM     27  C   LIG    1        6.611  -0.800   1.522  0.00  0.00    +0.180 C 
BRANCH  27  28
ATOM     28  O   LIG    1        7.437   0.366   1.497  0.00  0.00    -0.390 OA
ATOM     29  C   LIG    1        7.501   1.060   2.745  0.00  0.00    +0.200 C 
ENDBRANCH  27  28
ENDBRANCH  25  27
ENDBRANCH   6  25
TORSDOF 8
