REMARK  Name = ZINCpk00000kF2PW.0
REMARK                            x       y       z     vdW  Elec       q    Type
REMARK                         _______ _______ _______ _____ _____    ______ ____
ROOT
ATOM      1  C   LIG    1       -1.319   4.580   3.301  0.00  0.00    +0.610 C 
ATOM      2  N   LIG    1       -0.841   3.432   2.783  0.00  0.00    -0.620 N 
ATOM      3  C   LIG    1       -0.363   2.276   3.556  0.00  0.00    +0.230 C 
ATOM      4  C   LIG    1        0.061   1.191   2.544  0.00  0.00    +0.090 C 
ATOM      5  C   LIG    1       -0.729   1.579   1.267  0.00  0.00    +0.110 C 
ATOM      6  C   LIG    1       -0.709   3.126   1.347  0.00  0.00    +0.250 C 
ATOM      7  O   LIG    1       -1.688   5.474   2.562  0.00  0.00    -0.520 OA
ENDROOT
BRANCH   1  13
ATOM      8  C   LIG    1       -2.147   6.536   7.906  0.00  0.00    +0.100 C 
ATOM      9  C   LIG    1       -1.756   5.602   6.790  0.00  0.00    -0.180 A 
ATOM     10  C   LIG    1       -1.240   4.358   6.934  0.00  0.00    +0.050 A 
ATOM     11  N   LIG    1       -1.017   3.831   5.705  0.00  0.00    -0.540 N 
ATOM     12  H   LIG    1       -0.651   2.951   5.525  0.00  0.00    +0.410 HD
ATOM     13  C   LIG    1       -1.396   4.753   4.756  0.00  0.00    -0.060 A 
ATOM     14  C   LIG    1       -0.959   3.672   8.246  0.00  0.00    +0.150 C 
ATOM     15  C   LIG    1       -1.855   5.870   5.421  0.00  0.00    +0.060 A 
ENDBRANCH   1  13
BRANCH   5  16
ATOM     16  O   LIG    1       -2.067   1.080   1.321  0.00  0.00    -0.540 OA
ATOM     17  H   LIG    1       -2.614   1.339   0.566  0.00  0.00    +0.380 HD
ENDBRANCH   5  16
BRANCH   5  18
ATOM     18  C   LIG    1       -0.013   1.086   0.008  0.00  0.00    +0.280 C 
BRANCH  18  19
ATOM     19  N   LIG    1       -0.721   1.571  -1.179  0.00  0.00    -0.730 N 
ATOM     20  H   LIG    1       -1.516   2.118  -1.079  0.00  0.00    +0.400 HD
ATOM     21  C   LIG    1       -0.268   1.258  -2.409  0.00  0.00    +0.500 C 
ATOM     22  O   LIG    1        0.726   0.575  -2.534  0.00  0.00    -0.510 OA
BRANCH  21  23
ATOM     23  C   LIG    1       -0.997   1.758  -3.630  0.00  0.00    +0.190 C 
ATOM     24  F   LIG    1       -0.273   2.805  -4.209  0.00  0.00    -0.180 F 
BRANCH  23  25
ATOM     25  C   LIG    1       -1.140   0.617  -4.640  0.00  0.00    -0.020 C 
ATOM     26  C   LIG    1        0.109   0.406  -5.512  0.00  0.00    +0.030 C 
ATOM     27  C   LIG    1       -0.850   0.166  -6.690  0.00  0.00    +0.010 C 
ATOM     28  C   LIG    1       -1.874   1.025  -5.929  0.00  0.00    +0.030 C 
ENDBRANCH  23  25
ENDBRANCH  21  23
ENDBRANCH  18  19
ENDBRANCH   5  18
TORSDOF 6
