REMARK  Name = ZINCqH0000038EKn.0
REMARK                            x       y       z     vdW  Elec       q    Type
REMARK                         _______ _______ _______ _____ _____    ______ ____
ROOT
ATOM      1  C   LIG    1        2.296   7.720   1.472  0.00  0.00    +0.100 C 
ATOM      2  C   LIG    1        3.645   7.003   1.373  0.00  0.00    +0.040 C 
ATOM      3  C   LIG    1        3.419   5.490   1.342  0.00  0.00    +0.030 C 
ATOM      4  C   LIG    1        2.586   5.126   0.115  0.00  0.00    +0.260 C 
ATOM      5  N   LIG    1        1.350   5.921   0.122  0.00  0.00    -0.600 N 
ATOM      6  C   LIG    1        0.147   5.320   0.028  0.00  0.00    +0.570 C 
ATOM      7  O   LIG    1       -0.864   5.992  -0.036  0.00  0.00    -0.520 OA
ATOM      8  C   LIG    1        1.451   7.382   0.241  0.00  0.00    +0.290 C 
ENDROOT
BRANCH   6   9
ATOM      9  C   LIG    1        0.058   3.849   0.004  0.00  0.00    -0.170 A 
ATOM     10  C   LIG    1        0.778   3.100  -0.918  0.00  0.00    +0.290 A 
ATOM     11  N   LIG    1        0.700   1.780  -0.942  0.00  0.00    -0.490 NA
ATOM     12  C   LIG    1       -0.044   1.080  -0.120  0.00  0.00    +0.350 A 
ATOM     13  C   LIG    1       -0.829   1.710   0.858  0.00  0.00    -0.130 A 
ATOM     14  C   LIG    1       -1.639   0.985   1.747  0.00  0.00    +0.100 A 
ATOM     15  C   LIG    1       -2.379   1.651   2.676  0.00  0.00    +0.000 A 
ATOM     16  C   LIG    1       -2.345   3.044   2.760  0.00  0.00    +0.140 A 
ATOM     17  C   LIG    1       -1.559   3.779   1.916  0.00  0.00    +0.000 A 
ATOM     18  F   LIG    1       -3.091   3.673   3.694  0.00  0.00    -0.130 F 
ATOM     19  C   LIG    1       -0.793   3.126   0.950  0.00  0.00    +0.040 A 
ENDBRANCH   6   9
BRANCH   1  25
ATOM     20  C   LIG    1        2.934  12.353   3.270  0.00  0.00    +0.140 C 
ATOM     21  C   LIG    1        2.796  11.207   2.302  0.00  0.00    +0.000 A 
ATOM     22  C   LIG    1        2.857  11.293   0.959  0.00  0.00    -0.020 A 
ATOM     23  N   LIG    1        2.683  10.026   0.473  0.00  0.00    -0.560 N 
ATOM     24  H   LIG    1        2.677   9.764  -0.461  0.00  0.00    +0.420 HD
ATOM     25  C   LIG    1        2.521   9.209   1.536  0.00  0.00    +0.220 A 
ATOM     26  C   LIG    1        3.077  12.544   0.149  0.00  0.00    +0.130 C 
ATOM     27  N   LIG    1        2.584   9.923   2.626  0.00  0.00    -0.480 NA
ENDBRANCH   1  25
TORSDOF 2
