REMARK  Name = ZINCqH0000036xFS.0
REMARK                            x       y       z     vdW  Elec       q    Type
REMARK                         _______ _______ _______ _____ _____    ______ ____
ROOT
ATOM      1  N   LIG    1       -3.761   0.992   4.762  0.00  0.00    -0.560 N 
ATOM      2  C   LIG    1       -3.751   1.308   3.329  0.00  0.00    +0.310 C 
ATOM      3  C   LIG    1       -2.321   1.806   3.027  0.00  0.00    +0.000 C 
ATOM      4  C   LIG    1       -1.504   1.116   4.144  0.00  0.00    +0.100 C 
ATOM      5  C   LIG    1       -2.512   0.873   5.245  0.00  0.00    +0.520 C 
ATOM      6  O   LIG    1       -2.234   0.610   6.396  0.00  0.00    -0.500 OA
ENDROOT
BRANCH   3   7
ATOM      7  C   LIG    1       -1.867   1.348   1.665  0.00  0.00    +0.540 C 
ATOM      8  N   LIG    1       -0.669   1.740   1.186  0.00  0.00    -0.540 N 
ATOM      9  C   LIG    1        0.196   2.634   1.825  0.00  0.00    +0.140 A 
ATOM     10  C   LIG    1        0.039   3.300   3.042  0.00  0.00    -0.030 A 
ATOM     11  C   LIG    1        1.022   4.152   3.500  0.00  0.00    +0.050 A 
ATOM     12  C   LIG    1        2.171   4.352   2.758  0.00  0.00    -0.010 A 
ATOM     13  C   LIG    1        2.333   3.695   1.552  0.00  0.00    +0.060 A 
ATOM     14  C   LIG    1        1.351   2.842   1.089  0.00  0.00    -0.130 A 
ATOM     15  C   LIG    1        1.272   2.013  -0.174  0.00  0.00    +0.100 C 
ATOM     16  C   LIG    1       -0.083   1.292  -0.080  0.00  0.00    +0.220 C 
ATOM     17  C   LIG    1       -0.979   1.692  -1.253  0.00  0.00    +0.050 C 
ATOM     18  O   LIG    1       -2.579   0.627   0.999  0.00  0.00    -0.500 OA
ENDBRANCH   3   7
BRANCH   1  23
ATOM     19  C   LIG    1       -5.983   0.500   7.657  0.00  0.00    -0.060 A 
ATOM     20  C   LIG    1       -7.227   0.524   7.037  0.00  0.00    -0.030 A 
ATOM     21  C   LIG    1       -7.315   0.702   5.669  0.00  0.00    +0.060 A 
ATOM     22  C   LIG    1       -6.168   0.858   4.915  0.00  0.00    -0.030 A 
ATOM     23  C   LIG    1       -4.922   0.835   5.528  0.00  0.00    +0.180 A 
ATOM     24  C   LIG    1       -4.828   0.650   6.900  0.00  0.00    +0.020 A 
BRANCH  19  26
ATOM     25  C   LIG    1       -7.607   0.123   9.905  0.00  0.00    +0.140 C 
ATOM     26  S   LIG    1       -5.871   0.273   9.400  0.00  0.00    -0.110 S 
ENDBRANCH  19  26
ENDBRANCH   1  23
TORSDOF 3
