REMARK  Name = ZINCnE000001MYKL.0
REMARK                            x       y       z     vdW  Elec       q    Type
REMARK                         _______ _______ _______ _____ _____    ______ ____
ROOT
ATOM      1  C   LIG    1        1.114   2.016   0.002  0.00  0.00    +0.510 A 
ATOM      2  N   LIG    1        2.296   1.416  -0.012  0.00  0.00    -0.560 NA
ATOM      3  C   LIG    1        2.389   0.096  -0.020  0.00  0.00    +0.350 A 
ATOM      4  C   LIG    1        1.234  -0.664  -0.013  0.00  0.00    -0.120 A 
ATOM      5  C   LIG    1        0.002  -0.004   0.002  0.00  0.00    +0.240 A 
ATOM      6  N   LIG    1       -0.016   1.327   0.009  0.00  0.00    -0.520 NA
ENDROOT
BRANCH   1  12
ATOM      7  C   LIG    1        1.644   5.834   1.490  0.00  0.00    +0.020 C 
ATOM      8  C   LIG    1        2.315   5.498   0.156  0.00  0.00    -0.030 C 
ATOM      9  C   LIG    1        1.484   6.074  -0.994  0.00  0.00    +0.030 C 
ATOM     10  C   LIG    1        0.100   5.418  -0.991  0.00  0.00    -0.070 C 
ATOM     11  C   LIG    1        0.259   3.901  -1.113  0.00  0.00    +0.240 C 
ATOM     12  N   LIG    1        1.060   3.399   0.010  0.00  0.00    -0.460 N 
ATOM     13  C   LIG    1        2.409   3.979   0.000  0.00  0.00    +0.210 C 
BRANCH  10  14
ATOM     14  C   LIG    1       -0.705   5.936  -2.155  0.00  0.00    +0.500 C 
ATOM     15  O   LIG    1       -0.511   7.064  -2.576  0.00  0.00    -0.690 OA
ATOM     16  O   LIG    1       -1.549   5.228  -2.675  0.00  0.00    -0.700 OA
ENDBRANCH  10  14
ENDBRANCH   1  12
BRANCH   5  17
ATOM     17  C   LIG    1       -1.265  -0.774   0.009  0.00  0.00    -0.040 A 
ATOM     18  C   LIG    1       -1.237  -2.168  -0.004  0.00  0.00    +0.050 A 
ATOM     19  C   LIG    1       -2.419  -2.880   0.007  0.00  0.00    +0.040 A 
ATOM     20  C   LIG    1       -3.631  -2.212   0.022  0.00  0.00    -0.080 A 
ATOM     21  C   LIG    1       -3.665  -0.828   0.031  0.00  0.00    +0.040 A 
ATOM     22 BR   LIG    1       -5.247  -3.194   0.030  0.00  0.00    -0.050 Br
ATOM     23  C   LIG    1       -2.489  -0.107   0.024  0.00  0.00    +0.090 A 
ENDBRANCH   5  17
TORSDOF 3
