REMARK  Name = ZINCkj000005iKEE.0
REMARK                            x       y       z     vdW  Elec       q    Type
REMARK                         _______ _______ _______ _____ _____    ______ ____
ROOT
ATOM      1  C   LIG    1        2.097   3.909  -0.480  0.00  0.00    +0.520 C 
ATOM      2  N   LIG    1        1.451   3.033   0.316  0.00  0.00    -0.620 N 
ATOM      3  C   LIG    1        0.763   3.473   1.540  0.00  0.00    +0.290 C 
ATOM      4  C   LIG    1       -0.705   3.070   1.419  0.00  0.00    +0.030 C 
ATOM      5  C   LIG    1       -0.847   1.573   1.207  0.00  0.00    +0.030 C 
ATOM      6  C   LIG    1       -2.296   1.341   0.695  0.00  0.00    +0.270 C 
ATOM      7  N   LIG    1       -2.240   1.375  -0.779  0.00  0.00    -0.510 N 
ATOM      8  C   LIG    1       -0.847   1.586  -1.184  0.00  0.00    +0.260 C 
ATOM      9  H   LIG    1       -2.811   2.134  -1.123  0.00  0.00    +0.430 HD
ATOM     10  H   LIG    1       -2.577   0.500  -1.152  0.00  0.00    +0.430 HD
ATOM     11  C   LIG    1       -0.013   1.086   0.008  0.00  0.00    +0.000 C 
ATOM     12  C   LIG    1        1.405   1.602  -0.003  0.00  0.00    +0.320 C 
ATOM     13  O   LIG    1        2.655   3.518  -1.484  0.00  0.00    -0.510 OA
ENDROOT
BRANCH   1  14
ATOM     14  C   LIG    1        2.125   5.372  -0.123  0.00  0.00    +0.110 C 
BRANCH  14  19
ATOM     15  C   LIG    1        2.976   7.345  -3.232  0.00  0.00    +0.130 A 
ATOM     16  C   LIG    1        4.344   7.519  -3.081  0.00  0.00    -0.070 A 
ATOM     17  C   LIG    1        4.987   6.998  -1.975  0.00  0.00    +0.060 A 
ATOM     18  C   LIG    1        4.268   6.309  -1.016  0.00  0.00    -0.020 A 
ATOM     19  C   LIG    1        2.905   6.129  -1.167  0.00  0.00    -0.040 A 
ATOM     20  C   LIG    1        2.257   6.648  -2.271  0.00  0.00    -0.020 A 
BRANCH  15  22
ATOM     21  C   LIG    1        3.144   8.562  -5.268  0.00  0.00    +0.250 C 
ATOM     22  O   LIG    1        2.341   7.856  -4.319  0.00  0.00    -0.320 OA
ENDBRANCH  15  22
ENDBRANCH  14  19
ENDBRANCH   1  14
TORSDOF 3
