REMARK  Name = ZINCpe000000UhR3.0
REMARK                            x       y       z     vdW  Elec       q    Type
REMARK                         _______ _______ _______ _____ _____    ______ ____
ROOT
ATOM      1  C   LIG    1        1.470   2.763   6.358  0.00  0.00    +0.440 C 
ENDROOT
BRANCH   1   2
ATOM      2  C   LIG    1        0.957   2.429   4.980  0.00  0.00    +0.430 A 
ATOM      3  N   LIG    1        1.806   2.021   4.079  0.00  0.00    -0.570 NA
ATOM      4  C   LIG    1        1.410   1.709   2.834  0.00  0.00    +0.550 A 
ATOM      5  C   LIG    1       -0.021   1.835   2.491  0.00  0.00    -0.220 A 
ATOM      6  C   LIG    1       -0.876   2.273   3.489  0.00  0.00    +0.060 A 
ATOM      7  S   LIG    1       -2.520   2.350   2.872  0.00  0.00    +0.180 S 
ATOM      8  C   LIG    1       -2.018   1.796   1.285  0.00  0.00    -0.200 A 
ATOM      9  C   LIG    1       -2.950   1.601   0.117  0.00  0.00    +0.150 C 
ATOM     10  C   LIG    1       -0.718   1.572   1.248  0.00  0.00    -0.030 A 
ATOM     11  C   LIG    1       -0.013   1.086   0.008  0.00  0.00    +0.130 C 
ATOM     12  O   LIG    1        2.217   1.329   2.002  0.00  0.00    -0.480 OA
ATOM     13  N   LIG    1       -0.355   2.564   4.731  0.00  0.00    -0.580 N 
ATOM     14  H   LIG    1       -0.946   2.871   5.437  0.00  0.00    +0.430 HD
ENDBRANCH   1   2
BRANCH   1  19
ATOM     15  N   LIG    1        5.088   3.405   6.123  0.00  0.00    -0.520 N 
ATOM     16  C   LIG    1        5.665   2.223   6.471  0.00  0.00    +0.450 A 
ATOM     17  C   LIG    1        4.862   1.151   6.802  0.00  0.00    -0.200 A 
ATOM     18  C   LIG    1        3.403   1.340   6.768  0.00  0.00    +0.580 A 
ATOM     19  N   LIG    1        2.917   2.546   6.406  0.00  0.00    -0.530 N 
ATOM     20  O   LIG    1        2.651   0.428   7.055  0.00  0.00    -0.490 OA
ATOM     21  C   LIG    1        3.754   3.551   6.095  0.00  0.00    +0.710 A 
ATOM     22  O   LIG    1        3.287   4.628   5.777  0.00  0.00    -0.520 OA
BRANCH  15  24
ATOM     23  C   LIG    1        6.254   5.353   7.031  0.00  0.00    +0.040 C 
ATOM     24  C   LIG    1        5.941   4.543   5.772  0.00  0.00    +0.320 C 
ENDBRANCH  15  24
BRANCH  17  25
ATOM     25  C   LIG    1        5.433  -0.109   7.174  0.00  0.00    +0.280 C 
ATOM     26  N   LIG    1        5.885  -1.109   7.468  0.00  0.00    -0.400 NA
ENDBRANCH  17  25
ENDBRANCH   1  19
TORSDOF 4
