REMARK  Name = ZINCwl0000000b9U.1
REMARK                            x       y       z     vdW  Elec       q    Type
REMARK                         _______ _______ _______ _____ _____    ______ ____
ROOT
ATOM      1  N   LIG    1        2.931   5.143  -0.526  0.00  0.00    -0.690 N 
ATOM      2  H   LIG    1        2.073   5.578  -0.652  0.00  0.00    +0.410 HD
ATOM      3  C   LIG    1        3.014   3.798  -0.556  0.00  0.00    +0.710 C 
ATOM      4  N   LIG    1        1.925   3.062  -0.852  0.00  0.00    -0.730 N 
ATOM      5  H   LIG    1        1.081   3.499  -1.044  0.00  0.00    +0.400 HD
ATOM      6  O   LIG    1        4.072   3.249  -0.315  0.00  0.00    -0.560 OA
ENDROOT
BRANCH   4   7
ATOM      7  C   LIG    1        2.016   1.600  -0.885  0.00  0.00    +0.270 C 
ATOM      8  C   LIG    1        0.632   0.950  -0.620  0.00  0.00    +0.050 C 
ATOM      9  C   LIG    1        0.746  -0.411  -1.338  0.00  0.00    +0.270 C 
ATOM     10  N   LIG    1        1.802  -0.282  -2.353  0.00  0.00    -0.610 N 
ATOM     11  C   LIG    1        2.220  -1.261  -3.180  0.00  0.00    +0.580 C 
ATOM     12  O   LIG    1        3.041  -1.018  -4.043  0.00  0.00    -0.520 OA
ATOM     13  C   LIG    1        2.328   1.095  -2.316  0.00  0.00    +0.260 C 
BRANCH  11  14
ATOM     14  C   LIG    1        1.678  -2.632  -3.039  0.00  0.00    -0.090 A 
ATOM     15  C   LIG    1        0.626  -2.902  -2.158  0.00  0.00    -0.010 A 
ATOM     16  C   LIG    1        0.148  -4.194  -2.061  0.00  0.00    +0.260 A 
ATOM     17  N   LIG    1        0.676  -5.167  -2.777  0.00  0.00    -0.470 NA
ATOM     18  C   LIG    1        1.672  -4.957  -3.615  0.00  0.00    +0.270 A 
ATOM     19  C   LIG    1        2.207  -3.694  -3.779  0.00  0.00    +0.040 A 
ENDBRANCH  11  14
ENDBRANCH   4   7
BRANCH   1  24
ATOM     20  C   LIG    1        5.363   7.892  -0.738  0.00  0.00    -0.140 A 
ATOM     21  C   LIG    1        6.355   7.430   0.108  0.00  0.00    +0.020 A 
ATOM     22  C   LIG    1        6.212   6.210   0.744  0.00  0.00    +0.050 A 
ATOM     23  C   LIG    1        5.076   5.452   0.540  0.00  0.00    +0.060 A 
ATOM     24  C   LIG    1        4.081   5.911  -0.313  0.00  0.00    +0.180 A 
ATOM     25  C   LIG    1        4.227   7.136  -0.950  0.00  0.00    +0.020 A 
BRANCH  20  26
ATOM     26  C   LIG    1        5.522   9.222  -1.428  0.00  0.00    +0.320 C 
BRANCH  26  31
ATOM     27  C   LIG    1        4.995  11.570  -1.310  0.00  0.00    +0.170 C 
ATOM     28  C   LIG    1        5.297  12.630  -0.225  0.00  0.00    +0.110 C 
ATOM     29  C   LIG    1        6.290  11.865   0.690  0.00  0.00    +0.080 C 
ATOM     30  C   LIG    1        5.757  10.418   0.647  0.00  0.00    +0.250 C 
ATOM     31  N   LIG    1        4.957  10.283  -0.584  0.00  0.00    -0.380 N 
ATOM     32  H   LIG    1        4.003  10.056  -0.346  0.00  0.00    +0.430 HD
BRANCH  27  36
ATOM     33  N   LIG    1        3.481  12.977  -2.669  0.00  0.00    -0.820 N 
ATOM     34  H   LIG    1        2.622  13.157  -3.083  0.00  0.00    +0.420 HD
ATOM     35  H   LIG    1        4.209  13.610  -2.768  0.00  0.00    +0.410 HD
ATOM     36  C   LIG    1        3.661  11.849  -1.954  0.00  0.00    +0.520 C 
ATOM     37  O   LIG    1        2.750  11.058  -1.830  0.00  0.00    -0.530 OA
ENDBRANCH  27  36
ENDBRANCH  26  31
ENDBRANCH  20  26
ENDBRANCH   1  24
TORSDOF 6
