REMARK  Name = ZINCwl0000000b9U.2
REMARK                            x       y       z     vdW  Elec       q    Type
REMARK                         _______ _______ _______ _____ _____    ______ ____
ROOT
ATOM      1  N   LIG    1       -2.916   7.926  -0.228  0.00  0.00    -0.690 N 
ATOM      2  H   LIG    1       -2.367   8.505   0.323  0.00  0.00    +0.410 HD
ATOM      3  C   LIG    1       -2.359   6.879  -0.870  0.00  0.00    +0.710 C 
ATOM      4  N   LIG    1       -1.059   6.582  -0.672  0.00  0.00    -0.730 N 
ATOM      5  H   LIG    1       -0.525   7.121  -0.068  0.00  0.00    +0.400 HD
ATOM      6  O   LIG    1       -3.029   6.204  -1.627  0.00  0.00    -0.560 OA
ENDROOT
BRANCH   4   7
ATOM      7  C   LIG    1       -0.453   5.445  -1.369  0.00  0.00    +0.270 C 
ATOM      8  C   LIG    1        1.079   5.641  -1.511  0.00  0.00    +0.050 C 
ATOM      9  C   LIG    1        1.573   4.176  -1.605  0.00  0.00    +0.280 C 
ATOM     10  N   LIG    1        0.703   3.425  -0.682  0.00  0.00    -0.610 N 
ATOM     11  C   LIG    1        1.014   2.257  -0.085  0.00  0.00    +0.580 C 
ATOM     12  O   LIG    1        0.264   1.780   0.744  0.00  0.00    -0.520 OA
ATOM     13  C   LIG    1       -0.562   4.157  -0.525  0.00  0.00    +0.250 C 
BRANCH  11  14
ATOM     14  C   LIG    1        2.270   1.556  -0.439  0.00  0.00    -0.090 A 
ATOM     15  C   LIG    1        2.976   1.888  -1.599  0.00  0.00    -0.010 A 
ATOM     16  C   LIG    1        4.145   1.212  -1.888  0.00  0.00    +0.260 A 
ATOM     17  N   LIG    1        4.590   0.258  -1.094  0.00  0.00    -0.470 NA
ATOM     18  C   LIG    1        3.952  -0.090   0.006  0.00  0.00    +0.270 A 
ATOM     19  C   LIG    1        2.778   0.538   0.374  0.00  0.00    +0.030 A 
ENDBRANCH  11  14
ENDBRANCH   4   7
BRANCH   1  24
ATOM     20  C   LIG    1       -6.361   8.919   0.587  0.00  0.00    -0.140 A 
ATOM     21  C   LIG    1       -6.996   8.674  -0.616  0.00  0.00    +0.020 A 
ATOM     22  C   LIG    1       -6.280   8.181  -1.692  0.00  0.00    +0.050 A 
ATOM     23  C   LIG    1       -4.927   7.936  -1.567  0.00  0.00    +0.060 A 
ATOM     24  C   LIG    1       -4.287   8.177  -0.358  0.00  0.00    +0.180 A 
ATOM     25  C   LIG    1       -5.009   8.672   0.719  0.00  0.00    +0.010 A 
BRANCH  20  26
ATOM     26  C   LIG    1       -7.146   9.457   1.756  0.00  0.00    +0.320 C 
BRANCH  26  31
ATOM     27  C   LIG    1       -8.038  11.457   2.754  0.00  0.00    +0.160 C 
ATOM     28  C   LIG    1       -7.196  12.328   3.709  0.00  0.00    +0.100 C 
ATOM     29  C   LIG    1       -5.963  12.702   2.844  0.00  0.00    +0.080 C 
ATOM     30  C   LIG    1       -5.758  11.409   2.020  0.00  0.00    +0.260 C 
ATOM     31  N   LIG    1       -7.124  10.926   1.726  0.00  0.00    -0.370 N 
ATOM     32  H   LIG    1       -7.411  11.252   0.816  0.00  0.00    +0.430 HD
BRANCH  27  36
ATOM     33  N   LIG    1      -10.008  10.215   3.589  0.00  0.00    -0.830 N 
ATOM     34  H   LIG    1      -10.412   9.483   4.081  0.00  0.00    +0.420 HD
ATOM     35  H   LIG    1      -10.570  10.872   3.149  0.00  0.00    +0.410 HD
ATOM     36  C   LIG    1       -8.666  10.319   3.518  0.00  0.00    +0.510 C 
ATOM     37  O   LIG    1       -7.964   9.498   4.069  0.00  0.00    -0.510 OA
ENDBRANCH  27  36
ENDBRANCH  26  31
ENDBRANCH  20  26
ENDBRANCH   1  24
TORSDOF 6
