REMARK  Name = ZINCkj000005jfjm.0
REMARK                            x       y       z     vdW  Elec       q    Type
REMARK                         _______ _______ _______ _____ _____    ______ ____
ROOT
ATOM      1  C   LIG    1        5.276   2.818  -4.326  0.00  0.00    +0.040 C 
ATOM      2  C   LIG    1        4.104   3.592  -3.719  0.00  0.00    -0.030 C 
ATOM      3  C   LIG    1        3.675   4.705  -4.677  0.00  0.00    +0.040 C 
ATOM      4  C   LIG    1        2.482   5.458  -4.085  0.00  0.00    +0.020 C 
ATOM      5  C   LIG    1        2.894   6.097  -2.755  0.00  0.00    +0.310 C 
ATOM      6  N   LIG    1        3.443   5.053  -1.879  0.00  0.00    -0.990 NA
ATOM      7  C   LIG    1        4.539   4.213  -2.383  0.00  0.00    +0.250 C 
ENDROOT
BRANCH   6   8
ATOM      8  S   LIG    1        2.844   4.832  -0.352  0.00  0.00    +2.690 S 
ATOM      9  O   LIG    1        3.932   4.387   0.446  0.00  0.00    -0.950 OA
ATOM     10  O   LIG    1        2.081   5.992  -0.048  0.00  0.00    -0.920 OA
BRANCH   8  11
ATOM     11  C   LIG    1        1.702   3.492  -0.428  0.00  0.00    -0.660 A 
ATOM     12  C   LIG    1        2.145   2.198  -0.221  0.00  0.00    +0.100 A 
ATOM     13  C   LIG    1        1.257   1.144  -0.278  0.00  0.00    +0.060 A 
ATOM     14  C   LIG    1       -0.090   1.385  -0.553  0.00  0.00    +0.050 A 
ATOM     15  C   LIG    1       -0.531   2.694  -0.756  0.00  0.00    +0.070 A 
ATOM     16  C   LIG    1        0.367   3.739  -0.695  0.00  0.00    +0.150 A 
BRANCH  14  17
ATOM     17  C   LIG    1       -1.017   0.295  -0.620  0.00  0.00    +0.230 C 
ATOM     18  N   LIG    1       -1.752  -0.569  -0.673  0.00  0.00    -0.370 NA
ENDBRANCH  14  17
ENDBRANCH   8  11
ENDBRANCH   6   8
BRANCH   7  19
ATOM     19  C   LIG    1        4.840   3.104  -1.373  0.00  0.00    +0.250 C 
BRANCH  19  20
ATOM     20  N   LIG    1        5.924   2.256  -1.886  0.00  0.00    -0.630 N 
ATOM     21  H   LIG    1        6.583   2.824  -2.396  0.00  0.00    +0.440 HD
ATOM     22  H   LIG    1        5.540   1.553  -2.499  0.00  0.00    +0.430 HD
ATOM     23  H   LIG    1        6.394   1.807  -1.114  0.00  0.00    +0.440 HD
ENDBRANCH  19  20
ENDBRANCH   7  19
TORSDOF 5
