REMARK  Name = ZINCvU0000000597.0
REMARK                            x       y       z     vdW  Elec       q    Type
REMARK                         _______ _______ _______ _____ _____    ______ ____
ROOT
ATOM      1  C   LIG    1        4.392   4.968  -1.901  0.00  0.00    +0.120 A 
ATOM      2  N   LIG    1        5.402   4.541  -1.184  0.00  0.00    -0.390 NA
ATOM      3  C   LIG    1        6.604   5.119  -1.315  0.00  0.00    +0.080 A 
ATOM      4  C   LIG    1        7.704   4.677  -0.561  0.00  0.00    +0.080 A 
ATOM      5  C   LIG    1        8.913   5.286  -0.710  0.00  0.00    +0.040 A 
ATOM      6  C   LIG    1        9.077   6.345  -1.600  0.00  0.00    +0.060 A 
ATOM      7  C   LIG    1        8.033   6.799  -2.347  0.00  0.00    +0.050 A 
ATOM      8  C   LIG    1        6.771   6.195  -2.221  0.00  0.00    +0.110 A 
ATOM      9  N   LIG    1        5.727   6.622  -2.942  0.00  0.00    -0.410 NA
ATOM     10  C   LIG    1        4.553   6.036  -2.802  0.00  0.00    +0.100 A 
ENDROOT
BRANCH   1  11
ATOM     11  C   LIG    1        3.043   4.311  -1.756  0.00  0.00    -0.240 C 
BRANCH  11  12
ATOM     12  S   LIG    1        2.673   4.074   0.004  0.00  0.00    +2.520 S 
ATOM     13  O   LIG    1        3.612   3.186   0.596  0.00  0.00    -0.880 OA
ATOM     14  O   LIG    1        2.352   5.314   0.618  0.00  0.00    -0.900 OA
BRANCH  12  19
ATOM     15  C   LIG    1       -2.518   0.999   0.042  0.00  0.00    +0.100 C 
ATOM     16  C   LIG    1       -1.221   1.767   0.036  0.00  0.00    -0.020 A 
ATOM     17  C   LIG    1       -0.017   1.089   0.024  0.00  0.00    +0.000 A 
ATOM     18  C   LIG    1        1.173   1.794   0.012  0.00  0.00    +0.130 A 
ATOM     19  C   LIG    1        1.157   3.176   0.018  0.00  0.00    -0.680 A 
ATOM     20  C   LIG    1       -0.047   3.854   0.035  0.00  0.00    +0.130 A 
ATOM     21  C   LIG    1       -1.237   3.149   0.046  0.00  0.00    +0.000 A 
ENDBRANCH  12  19
ENDBRANCH  11  12
BRANCH  11  22
ATOM     22  C   LIG    1        3.057   3.006  -2.435  0.00  0.00    +0.210 C 
ATOM     23  N   LIG    1        3.067   1.998  -2.959  0.00  0.00    -0.350 NA
ENDBRANCH  11  22
ENDBRANCH   1  11
BRANCH  10  24
ATOM     24  S   LIG    1        3.177   6.596  -3.751  0.00  0.00    +0.080 S 
BRANCH  24  25
ATOM     25  C   LIG    1        3.901   7.992  -4.545  0.00  0.00    -0.150 A 
ATOM     26  C   LIG    1        3.926   9.223  -3.902  0.00  0.00    +0.120 A 
ATOM     27  C   LIG    1        4.498  10.315  -4.525  0.00  0.00    -0.020 A 
ATOM     28  C   LIG    1        5.037  10.185  -5.794  0.00  0.00    +0.140 A 
ATOM     29  C   LIG    1        5.009   8.960  -6.439  0.00  0.00    -0.020 A 
ATOM     30  F   LIG    1        5.591  11.256  -6.403  0.00  0.00    -0.130 F 
ATOM     31  C   LIG    1        4.443   7.864  -5.818  0.00  0.00    +0.120 A 
ENDBRANCH  24  25
ENDBRANCH  10  24
TORSDOF 6
