REMARK  Name = ZINCvU0000000HaK.0
REMARK                            x       y       z     vdW  Elec       q    Type
REMARK                         _______ _______ _______ _____ _____    ______ ____
ROOT
ATOM      1  C   LIG    1       -3.202   3.043   1.615  0.00  0.00    +0.160 A 
ATOM      2  C   LIG    1       -4.136   3.316   0.628  0.00  0.00    -0.090 A 
ATOM      3  C   LIG    1       -5.439   3.620   0.972  0.00  0.00    +0.070 A 
ATOM      4  C   LIG    1       -5.823   3.666   2.303  0.00  0.00    -0.030 A 
ATOM      5  C   LIG    1       -4.909   3.404   3.299  0.00  0.00    +0.120 A 
ATOM      6  C   LIG    1       -3.585   3.089   2.967  0.00  0.00    -0.130 A 
ENDROOT
BRANCH   6   7
ATOM      7  C   LIG    1       -2.607   2.809   4.021  0.00  0.00    +0.210 C 
ATOM      8  C   LIG    1       -2.587   3.571   5.153  0.00  0.00    -0.180 C 
ATOM      9  C   LIG    1       -3.354   4.798   5.421  0.00  0.00    +0.560 C 
ATOM     10  N   LIG    1       -3.038   5.223   6.656  0.00  0.00    -0.550 N 
ATOM     11  C   LIG    1       -2.103   4.388   7.257  0.00  0.00    +0.160 A 
ATOM     12  C   LIG    1       -1.489   4.433   8.503  0.00  0.00    +0.010 A 
ATOM     13  C   LIG    1       -0.578   3.460   8.862  0.00  0.00    +0.090 A 
ATOM     14  C   LIG    1       -0.264   2.431   7.990  0.00  0.00    -0.120 A 
ATOM     15  C   LIG    1       -0.864   2.370   6.747  0.00  0.00    +0.110 A 
ATOM     16 BR   LIG    1        0.987   1.108   8.500  0.00  0.00    -0.040 Br
ATOM     17  C   LIG    1       -3.602   6.420   7.287  0.00  0.00    +0.320 C 
ATOM     18  O   LIG    1       -4.139   5.333   4.659  0.00  0.00    -0.490 OA
ATOM     19  C   LIG    1       -1.783   3.345   6.377  0.00  0.00    -0.100 A 
ENDBRANCH   6   7
BRANCH   1  20
ATOM     20  O   LIG    1       -1.924   2.739   1.278  0.00  0.00    -0.300 OA
BRANCH  20  21
ATOM     21  C   LIG    1       -1.609   2.711  -0.115  0.00  0.00    +0.260 C 
BRANCH  21  25
ATOM     22  C   LIG    1        2.516   1.709  -0.636  0.00  0.00    -0.120 A 
ATOM     23  C   LIG    1        1.550   0.702  -0.589  0.00  0.00    +0.080 A 
ATOM     24  C   LIG    1        0.222   1.032  -0.419  0.00  0.00    +0.040 A 
ATOM     25  C   LIG    1       -0.155   2.358  -0.295  0.00  0.00    -0.060 A 
ATOM     26  C   LIG    1        0.797   3.361  -0.340  0.00  0.00    +0.030 A 
ATOM     27  C   LIG    1        2.129   3.045  -0.510  0.00  0.00    +0.080 A 
BRANCH  22  28
ATOM     28  C   LIG    1        3.941   1.363  -0.818  0.00  0.00    +0.510 C 
ATOM     29  O   LIG    1        4.274   0.201  -0.927  0.00  0.00    -0.500 OA
BRANCH  28  31
ATOM     30  C   LIG    1        6.250   1.924  -1.043  0.00  0.00    +0.290 C 
ATOM     31  O   LIG    1        4.870   2.338  -0.862  0.00  0.00    -0.350 OA
ENDBRANCH  28  31
ENDBRANCH  22  28
ENDBRANCH  21  25
ENDBRANCH  20  21
ENDBRANCH   1  20
TORSDOF 6
