REMARK  Name = ZINCrD00000sd7HT.0
REMARK                            x       y       z     vdW  Elec       q    Type
REMARK                         _______ _______ _______ _____ _____    ______ ____
ROOT
ATOM      1  O   LIG    1        3.065  -3.721  -3.285  0.00  0.00    -0.520 OA
ATOM      2  C   LIG    1        3.191  -4.233  -2.190  0.00  0.00    +0.570 C 
ATOM      3  N   LIG    1        2.954  -3.511  -1.077  0.00  0.00    -0.610 N 
ATOM      4  C   LIG    1        3.011  -4.140   0.250  0.00  0.00    +0.270 C 
ATOM      5  C   LIG    1        3.970  -3.338   1.135  0.00  0.00    +0.030 C 
ATOM      6  C   LIG    1        3.535  -1.871   1.153  0.00  0.00    +0.030 C 
ATOM      7  C   LIG    1        3.597  -1.301  -0.266  0.00  0.00    +0.070 C 
ATOM      8  C   LIG    1        2.634  -2.080  -1.167  0.00  0.00    +0.300 C 
ENDROOT
BRANCH   2   9
ATOM      9  C   LIG    1        3.606  -5.648  -2.079  0.00  0.00    -0.110 A 
ATOM     10  C   LIG    1        4.724  -6.091  -2.762  0.00  0.00    +0.130 A 
ATOM     11  C   LIG    1        5.113  -7.437  -2.653  0.00  0.00    +0.070 A 
ATOM     12  N   LIG    1        6.190  -7.896  -3.301  0.00  0.00    -0.420 NA
ATOM     13  C   LIG    1        6.532  -9.158  -3.181  0.00  0.00    +0.260 A 
ATOM     14  C   LIG    1        5.784 -10.027  -2.384  0.00  0.00    +0.270 A 
ATOM     15  N   LIG    1        4.723  -9.600  -1.738  0.00  0.00    -0.430 NA
ATOM     16  C   LIG    1        4.353  -8.319  -1.843  0.00  0.00    +0.090 A 
ATOM     17  C   LIG    1        3.221  -7.835  -1.161  0.00  0.00    +0.070 A 
ATOM     18  C   LIG    1        2.864  -6.531  -1.275  0.00  0.00    +0.060 A 
ENDBRANCH   2   9
BRANCH   7  19
ATOM     19  C   LIG    1        3.199   0.153  -0.242  0.00  0.00    +0.110 A 
ATOM     20  C   LIG    1        3.710   1.132  -1.023  0.00  0.00    -0.060 A 
ATOM     21  C   LIG    1        3.071   2.330  -0.685  0.00  0.00    -0.010 A 
ATOM     22  N   LIG    1        2.208   2.078   0.266  0.00  0.00    -0.230 NA
ATOM     23  N   LIG    1        2.270   0.710   0.563  0.00  0.00    -0.450 N 
ATOM     24  H   LIG    1        1.739   0.246   1.228  0.00  0.00    +0.450 HD
BRANCH  21  25
ATOM     25  C   LIG    1        3.332   3.677  -1.307  0.00  0.00    +0.560 C 
ATOM     26  F   LIG    1        2.955   3.649  -2.654  0.00  0.00    -0.160 F 
ATOM     27  F   LIG    1        4.694   3.980  -1.210  0.00  0.00    -0.160 F 
ATOM     28  F   LIG    1        2.588   4.653  -0.635  0.00  0.00    -0.170 F 
ENDBRANCH  21  25
ENDBRANCH   7  19
TORSDOF 3
