REMARK  Name = ZINCrH000004ssNf.0
REMARK                            x       y       z     vdW  Elec       q    Type
REMARK                         _______ _______ _______ _____ _____    ______ ____
ROOT
ATOM      1  C   LIG    1        1.182   1.786   0.000  0.00  0.00    +0.160 A 
ATOM      2  C   LIG    1       -0.013   1.076   0.008  0.00  0.00    -0.010 A 
ATOM      3  C   LIG    1       -1.215   1.747   0.017  0.00  0.00    +0.090 A 
ATOM      4  C   LIG    1       -1.233   3.144   0.030  0.00  0.00    -0.180 A 
ATOM      5  C   LIG    1       -0.029   3.855   0.022  0.00  0.00    +0.130 A 
ATOM      6  C   LIG    1        1.169   3.176   0.007  0.00  0.00    -0.080 A 
ENDROOT
BRANCH   4   7
ATOM      7  C   LIG    1       -2.519   3.868   0.045  0.00  0.00    +0.570 C 
ATOM      8  N   LIG    1       -3.679   3.181   0.053  0.00  0.00    -0.730 N 
ATOM      9  H   LIG    1       -3.668   2.211   0.049  0.00  0.00    +0.400 HD
ATOM     10  O   LIG    1       -2.533   5.084   0.051  0.00  0.00    -0.530 OA
BRANCH   8  11
ATOM     11  C   LIG    1       -4.955   3.899   0.068  0.00  0.00    +0.300 C 
ATOM     12  C   LIG    1       -5.325   4.252   1.510  0.00  0.00    +0.040 C 
BRANCH  11  13
ATOM     13  C   LIG    1       -6.030   3.025  -0.526  0.00  0.00    -0.070 A 
ATOM     14  C   LIG    1       -6.986   3.577  -1.358  0.00  0.00    +0.060 A 
ATOM     15  C   LIG    1       -7.973   2.777  -1.905  0.00  0.00    +0.030 A 
ATOM     16  C   LIG    1       -8.004   1.424  -1.619  0.00  0.00    +0.070 A 
ATOM     17  C   LIG    1       -7.045   0.871  -0.784  0.00  0.00    +0.070 A 
ATOM     18  F   LIG    1       -7.073  -0.451  -0.504  0.00  0.00    -0.120 F 
ATOM     19  F   LIG    1       -8.968   0.642  -2.153  0.00  0.00    -0.130 F 
ATOM     20  C   LIG    1       -6.055   1.672  -0.243  0.00  0.00    +0.020 A 
ENDBRANCH  11  13
ENDBRANCH   8  11
ENDBRANCH   4   7
BRANCH   1  21
ATOM     21  O   LIG    1        2.365   1.121  -0.014  0.00  0.00    -0.300 OA
BRANCH  21  22
ATOM     22  C   LIG    1        3.554   1.913  -0.021  0.00  0.00    +0.350 C 
BRANCH  22  26
ATOM     23  C   LIG    1        7.406  -0.972   1.365  0.00  0.00    +0.260 C 
ATOM     24  C   LIG    1        6.384  -0.208   0.563  0.00  0.00    +0.190 A 
ATOM     25  N   LIG    1        5.410   0.529   1.039  0.00  0.00    -0.470 NA
ATOM     26  C   LIG    1        4.760   1.008  -0.037  0.00  0.00    +0.160 A 
ATOM     27  N   LIG    1        5.365   0.552  -1.093  0.00  0.00    -0.360 NA
ATOM     28  O   LIG    1        6.301  -0.148  -0.770  0.00  0.00    +0.090 OA
ENDBRANCH  22  26
ENDBRANCH  21  22
ENDBRANCH   1  21
TORSDOF 6
