REMARK  Name = ZINCqH0000002UVi.0
REMARK                            x       y       z     vdW  Elec       q    Type
REMARK                         _______ _______ _______ _____ _____    ______ ____
ROOT
ATOM      1  N   LIG    1        1.624   3.353   0.005  0.00  0.00    -0.670 N 
ATOM      2  H   LIG    1        0.925   3.836   0.473  0.00  0.00    +0.410 HD
ATOM      3  C   LIG    1        1.316   2.263  -0.726  0.00  0.00    +0.510 C 
ATOM      4  O   LIG    1        2.171   1.715  -1.388  0.00  0.00    -0.510 OA
ENDROOT
BRANCH   1  10
ATOM      5  N   LIG    1        6.784   5.327   0.344  0.00  0.00    -0.480 N 
ATOM      6  C   LIG    1        6.522   6.667   0.426  0.00  0.00    +0.230 A 
ATOM      7  C   LIG    1        5.197   6.878   0.388  0.00  0.00    -0.060 A 
ATOM      8  C   LIG    1        4.557   5.565   0.273  0.00  0.00    -0.090 A 
ATOM      9  C   LIG    1        3.231   5.138   0.191  0.00  0.00    +0.030 A 
ATOM     10  C   LIG    1        2.953   3.788   0.087  0.00  0.00    +0.120 A 
ATOM     11  C   LIG    1        3.991   2.858   0.070  0.00  0.00    +0.040 A 
ATOM     12  C   LIG    1        5.303   3.270   0.144  0.00  0.00    +0.010 A 
ATOM     13  C   LIG    1        5.602   4.624   0.249  0.00  0.00    +0.090 A 
BRANCH   5  14
ATOM     14  C   LIG    1        8.121   4.728   0.356  0.00  0.00    +0.290 C 
BRANCH  14  16
ATOM     15  C   LIG    1        9.989   3.878  -1.069  0.00  0.00    +0.030 C 
ATOM     16  C   LIG    1        8.592   4.503  -1.082  0.00  0.00    +0.000 C 
ENDBRANCH  14  16
ENDBRANCH   5  14
ENDBRANCH   1  10
BRANCH   3  17
ATOM     17  C   LIG    1       -0.092   1.724  -0.719  0.00  0.00    +0.120 C 
BRANCH  17  18
ATOM     18  C   LIG    1       -0.170   0.511  -1.609  0.00  0.00    -0.040 A 
ATOM     19  C   LIG    1        0.067  -0.745  -1.082  0.00  0.00    +0.010 A 
ATOM     20  C   LIG    1       -0.005  -1.860  -1.900  0.00  0.00    +0.070 A 
ATOM     21  C   LIG    1       -0.312  -1.714  -3.233  0.00  0.00    -0.140 A 
ATOM     22  C   LIG    1       -0.466  -2.703  -4.367  0.00  0.00    +0.120 C 
ATOM     23  C   LIG    1       -0.812  -1.841  -5.562  0.00  0.00    +0.530 C 
ATOM     24  N   LIG    1       -0.841  -0.567  -5.136  0.00  0.00    -0.660 N 
ATOM     25  H   LIG    1       -1.040   0.191  -5.709  0.00  0.00    +0.410 HD
ATOM     26  O   LIG    1       -1.023  -2.227  -6.692  0.00  0.00    -0.500 OA
ATOM     27  C   LIG    1       -0.552  -0.458  -3.775  0.00  0.00    +0.140 A 
ATOM     28  C   LIG    1       -0.483   0.659  -2.945  0.00  0.00    +0.010 A 
ENDBRANCH  17  18
ENDBRANCH   3  17
TORSDOF 5
