REMARK  Name = ZINCrg00000SjSrJ.0
REMARK                            x       y       z     vdW  Elec       q    Type
REMARK                         _______ _______ _______ _____ _____    ______ ____
ROOT
ATOM      1  C   LIG    1       -3.551  -3.583   0.634  0.00  0.00    -0.020 C 
ATOM      2  C   LIG    1       -2.416  -4.020  -0.320  0.00  0.00    +0.050 C 
ATOM      3  C   LIG    1       -1.256  -3.060   0.019  0.00  0.00    +0.150 C 
ATOM      4  O   LIG    1       -1.516  -2.620   1.371  0.00  0.00    -0.340 OA
ATOM      5  C   LIG    1       -1.342  -1.830  -0.886  0.00  0.00    +0.140 C 
ATOM      6  C   LIG    1       -2.742  -1.214  -0.841  0.00  0.00    +0.010 C 
ATOM      7  C   LIG    1       -2.591   0.279  -1.233  0.00  0.00    +0.220 C 
ATOM      8  N   LIG    1       -2.426   1.040   0.020  0.00  0.00    -0.480 N 
ATOM      9  C   LIG    1       -2.479   0.094   1.158  0.00  0.00    +0.220 C 
ATOM     10  C   LIG    1       -3.261  -1.116   0.610  0.00  0.00    +0.000 C 
ATOM     11  C   LIG    1       -2.939  -2.383   1.398  0.00  0.00    +0.230 C 
ENDROOT
BRANCH   8  12
ATOM     12  C   LIG    1       -1.224   1.754   0.017  0.00  0.00    +0.150 A 
ATOM     13  C   LIG    1       -0.014   1.078   0.095  0.00  0.00    +0.030 A 
ATOM     14  C   LIG    1        1.173   1.785   0.088  0.00  0.00    +0.070 A 
ATOM     15  C   LIG    1        1.156   3.167   0.008  0.00  0.00    +0.100 A 
ATOM     16  C   LIG    1       -0.050   3.844  -0.064  0.00  0.00    +0.080 A 
ATOM     17  F   LIG    1        2.318   3.857   0.001  0.00  0.00    -0.120 F 
ATOM     18  C   LIG    1       -1.239   3.141  -0.058  0.00  0.00    -0.000 A 
BRANCH  18  19
ATOM     19  N   LIG    1       -2.528   3.865  -0.135  0.00  0.00    +0.030 N 
ATOM     20  O   LIG    1       -3.576   3.244  -0.129  0.00  0.00    -0.090 OA
ATOM     21  O   LIG    1       -2.540   5.081  -0.205  0.00  0.00    -0.190 OA
ENDBRANCH  18  19
ENDBRANCH   8  12
BRANCH   1  24
ATOM     22  N   LIG    1       -4.453  -5.834   1.120  0.00  0.00    -0.730 N 
ATOM     23  H   LIG    1       -4.619  -5.938   0.170  0.00  0.00    +0.400 HD
ATOM     24  C   LIG    1       -3.905  -4.694   1.587  0.00  0.00    +0.520 C 
ATOM     25  O   LIG    1       -3.698  -4.564   2.775  0.00  0.00    -0.530 OA
BRANCH  22  27
ATOM     26  C   LIG    1       -5.398  -8.085   1.266  0.00  0.00    +0.030 C 
ATOM     27  C   LIG    1       -4.798  -6.915   2.047  0.00  0.00    +0.250 C 
ENDBRANCH  22  27
ENDBRANCH   1  24
BRANCH   5  28
ATOM     28  O   LIG    1       -1.041  -2.215  -2.229  0.00  0.00    -0.550 OA
ATOM     29  H   LIG    1       -0.167  -2.615  -2.338  0.00  0.00    +0.380 HD
ENDBRANCH   5  28
TORSDOF 5
