REMARK  Name = ZINCnE000001Su11.0
REMARK                            x       y       z     vdW  Elec       q    Type
REMARK                         _______ _______ _______ _____ _____    ______ ____
ROOT
ATOM      1  O   LIG    1        0.002  -0.004   0.002  0.00  0.00    -0.530 OA
ATOM      2  C   LIG    1       -0.014   1.209   0.009  0.00  0.00    +0.540 C 
ATOM      3  N   LIG    1        1.143   1.898   0.001  0.00  0.00    -0.600 N 
ATOM      4  C   LIG    1        1.268   3.363   0.009  0.00  0.00    +0.250 C 
ATOM      5  C   LIG    1        2.775   3.695  -0.031  0.00  0.00    +0.070 C 
ATOM      6  C   LIG    1        3.399   2.406  -0.629  0.00  0.00    -0.200 C 
ATOM      7  C   LIG    1        2.495   1.309  -0.009  0.00  0.00    +0.300 C 
ENDROOT
BRANCH   6   8
ATOM      8  C   LIG    1        4.851   2.239  -0.175  0.00  0.00    +0.480 C 
ATOM      9  F   LIG    1        5.609   3.324  -0.629  0.00  0.00    -0.170 F 
ATOM     10  F   LIG    1        5.371   1.053  -0.705  0.00  0.00    -0.180 F 
ATOM     11  F   LIG    1        4.900   2.187   1.222  0.00  0.00    -0.200 F 
ENDBRANCH   6   8
BRANCH   6  12
ATOM     12  C   LIG    1        3.302   2.407  -2.132  0.00  0.00    +0.520 C 
ATOM     13  O   LIG    1        2.669   1.535  -2.703  0.00  0.00    -0.660 OA
ATOM     14  O   LIG    1        3.857   3.279  -2.779  0.00  0.00    -0.670 OA
ENDBRANCH   6  12
BRANCH   2  15
ATOM     15  C   LIG    1       -1.330   1.944   0.019  0.00  0.00    +0.120 C 
BRANCH  15  16
ATOM     16  C   LIG    1       -2.462   0.950   0.019  0.00  0.00    -0.050 A 
ATOM     17  C   LIG    1       -3.112   0.643   1.199  0.00  0.00    +0.060 A 
ATOM     18  C   LIG    1       -4.151  -0.269   1.200  0.00  0.00    +0.030 A 
ATOM     19  C   LIG    1       -4.540  -0.875   0.019  0.00  0.00    -0.030 A 
ATOM     20  C   LIG    1       -3.889  -0.569  -1.163  0.00  0.00    +0.040 A 
ATOM     21 CL   LIG    1       -5.844  -2.021   0.020  0.00  0.00    -0.070 Cl
ATOM     22  C   LIG    1       -2.853   0.347  -1.164  0.00  0.00    -0.010 A 
ATOM     23 CL   LIG    1       -2.041   0.738  -2.647  0.00  0.00    -0.040 Cl
ENDBRANCH  15  16
ENDBRANCH   2  15
TORSDOF 4
