REMARK  Name = ZINCvU0000000Iog.0
REMARK                            x       y       z     vdW  Elec       q    Type
REMARK                         _______ _______ _______ _____ _____    ______ ____
ROOT
ATOM      1  C   LIG    1        8.934  -7.829  -4.569  0.00  0.00    +0.150 C 
ATOM      2  C   LIG    1        8.633  -6.367  -4.363  0.00  0.00    -0.200 A 
ATOM      3  C   LIG    1        8.720  -5.449  -5.306  0.00  0.00    -0.030 A 
ATOM      4  C   LIG    1        8.383  -4.104  -4.879  0.00  0.00    -0.230 A 
ATOM      5  C   LIG    1        8.029  -4.054  -3.532  0.00  0.00    +0.090 A 
ATOM      6  N   LIG    1        7.687  -2.876  -2.975  0.00  0.00    -0.510 NA
ATOM      7  C   LIG    1        7.677  -1.764  -3.670  0.00  0.00    +0.370 A 
ATOM      8  N   LIG    1        8.008  -1.747  -4.996  0.00  0.00    -0.470 N 
ATOM      9  C   LIG    1        8.367  -2.885  -5.621  0.00  0.00    +0.570 A 
ATOM     10  O   LIG    1        8.668  -2.875  -6.802  0.00  0.00    -0.500 OA
ATOM     11  C   LIG    1        9.136  -5.773  -6.717  0.00  0.00    +0.120 C 
ATOM     12  S   LIG    1        8.124  -5.667  -2.838  0.00  0.00    +0.200 S 
ENDROOT
BRANCH   8  13
ATOM     13  C   LIG    1        7.980  -0.539  -5.707  0.00  0.00    +0.090 A 
ATOM     14  C   LIG    1        6.819  -0.140  -6.353  0.00  0.00    +0.040 A 
ATOM     15  C   LIG    1        6.792   1.054  -7.048  0.00  0.00    +0.030 A 
ATOM     16  C   LIG    1        7.925   1.845  -7.109  0.00  0.00    +0.040 A 
ATOM     17  C   LIG    1        9.085   1.447  -6.471  0.00  0.00    +0.030 A 
ATOM     18  C   LIG    1        9.116   0.257  -5.770  0.00  0.00    +0.040 A 
ENDBRANCH   8  13
BRANCH   7  19
ATOM     19  S   LIG    1        7.218  -0.258  -2.878  0.00  0.00    +0.090 S 
BRANCH  19  20
ATOM     20  C   LIG    1        6.892  -0.869  -1.206  0.00  0.00    +0.110 C 
BRANCH  20  21
ATOM     21  C   LIG    1        6.471   0.279  -0.325  0.00  0.00    +0.390 C 
ATOM     22  O   LIG    1        6.399   1.395  -0.780  0.00  0.00    -0.400 OA
BRANCH  21  23
ATOM     23  C   LIG    1        6.141   0.034   1.125  0.00  0.00    +0.170 C 
BRANCH  23  24
ATOM     24  C   LIG    1        5.111   1.035   1.581  0.00  0.00    -0.100 A 
ATOM     25  C   LIG    1        3.887   0.601   2.055  0.00  0.00    +0.030 A 
ATOM     26  C   LIG    1        2.942   1.519   2.473  0.00  0.00    +0.010 A 
ATOM     27  C   LIG    1        3.221   2.872   2.419  0.00  0.00    +0.030 A 
ATOM     28  C   LIG    1        4.446   3.306   1.946  0.00  0.00    +0.010 A 
ATOM     29  C   LIG    1        5.390   2.388   1.526  0.00  0.00    +0.050 A 
ENDBRANCH  23  24
BRANCH  23  30
ATOM     30  C   LIG    1        7.359   0.179   1.938  0.00  0.00    +0.210 C 
ATOM     31  N   LIG    1        8.300   0.291   2.565  0.00  0.00    -0.390 NA
ENDBRANCH  23  30
ENDBRANCH  21  23
ENDBRANCH  20  21
ENDBRANCH  19  20
ENDBRANCH   7  19
TORSDOF 7
