REMARK  Name = ZINCqH00000060ls.0
REMARK                            x       y       z     vdW  Elec       q    Type
REMARK                         _______ _______ _______ _____ _____    ______ ____
ROOT
ATOM      1  N   LIG    1       -4.182  -4.280   2.819  0.00  0.00    -0.670 N 
ATOM      2  H   LIG    1       -4.894  -4.210   2.164  0.00  0.00    +0.420 HD
ATOM      3  C   LIG    1       -3.062  -3.544   2.678  0.00  0.00    +0.530 C 
ATOM      4  O   LIG    1       -2.208  -3.568   3.539  0.00  0.00    -0.490 OA
ENDROOT
BRANCH   1   9
ATOM      5  C   LIG    1       -3.925  -5.661   6.228  0.00  0.00    -0.110 A 
ATOM      6  C   LIG    1       -4.600  -6.873   6.066  0.00  0.00    +0.070 A 
ATOM      7  C   LIG    1       -5.126  -7.211   4.836  0.00  0.00    +0.030 A 
ATOM      8  C   LIG    1       -4.992  -6.351   3.762  0.00  0.00    +0.030 A 
ATOM      9  C   LIG    1       -4.318  -5.145   3.911  0.00  0.00    +0.130 A 
ATOM     10  C   LIG    1       -3.786  -4.795   5.142  0.00  0.00    +0.100 A 
BRANCH   5  11
ATOM     11  C   LIG    1       -3.361  -5.296   7.543  0.00  0.00    +0.510 C 
ATOM     12  O   LIG    1       -2.774  -4.242   7.681  0.00  0.00    -0.500 OA
BRANCH  11  14
ATOM     13  C   LIG    1       -2.917  -5.711   9.852  0.00  0.00    +0.270 C 
ATOM     14  O   LIG    1       -3.497  -6.134   8.590  0.00  0.00    -0.350 OA
ENDBRANCH  11  14
ENDBRANCH   5  11
ENDBRANCH   1   9
BRANCH   3  15
ATOM     15  C   LIG    1       -2.869  -2.692   1.450  0.00  0.00    +0.100 C 
BRANCH  15  16
ATOM     16  S   LIG    1       -1.276  -1.831   1.555  0.00  0.00    -0.120 S 
BRANCH  16  17
ATOM     17  C   LIG    1       -1.228  -0.874   0.014  0.00  0.00    +0.100 C 
ATOM     18  C   LIG    1       -1.178  -1.830  -1.179  0.00  0.00    +0.090 C 
BRANCH  17  19
ATOM     19  C   LIG    1       -0.002   0.003   0.007  0.00  0.00    +0.300 A 
ATOM     20  N   LIG    1        1.224  -0.430  -0.016  0.00  0.00    -0.460 NA
ATOM     21  C   LIG    1        2.080   0.624  -0.016  0.00  0.00    +0.050 A 
ATOM     22  C   LIG    1        3.473   0.734  -0.035  0.00  0.00    +0.070 A 
ATOM     23  C   LIG    1        4.059   1.969  -0.029  0.00  0.00    +0.000 A 
ATOM     24  C   LIG    1        3.284   3.119  -0.005  0.00  0.00    +0.030 A 
ATOM     25  C   LIG    1        1.908   3.035   0.013  0.00  0.00    +0.010 A 
ATOM     26  C   LIG    1        1.295   1.790   0.008  0.00  0.00    +0.050 A 
ATOM     27  N   LIG    1       -0.018   1.364   0.022  0.00  0.00    -0.590 N 
ATOM     28  H   LIG    1       -0.806   1.929   0.036  0.00  0.00    +0.420 HD
ENDBRANCH  17  19
ENDBRANCH  16  17
ENDBRANCH  15  16
ENDBRANCH   3  15
TORSDOF 7
