REMARK  Name = ZINCtV000002CWX1.0
REMARK                            x       y       z     vdW  Elec       q    Type
REMARK                         _______ _______ _______ _____ _____    ______ ____
ROOT
ATOM      1  C   LIG    1        3.478  -1.806   0.945  0.00  0.00    +0.520 C 
ATOM      2  N   LIG    1        3.760  -3.047   0.499  0.00  0.00    -0.730 N 
ATOM      3  H   LIG    1        3.268  -3.809   0.843  0.00  0.00    +0.400 HD
ATOM      4  O   LIG    1        4.093  -0.853   0.516  0.00  0.00    -0.510 OA
ENDROOT
BRANCH   1   6
ATOM      5  C   LIG    1        2.813  -2.278   3.287  0.00  0.00    +0.060 C 
ATOM      6  C   LIG    1        2.399  -1.604   1.977  0.00  0.00    +0.160 C 
BRANCH   6   7
ATOM      7  O   LIG    1        2.209  -0.205   2.200  0.00  0.00    -0.270 OA
BRANCH   7   8
ATOM      8  C   LIG    1        1.001   0.184   2.686  0.00  0.00    +0.150 A 
ATOM      9  C   LIG    1        0.058  -0.767   3.046  0.00  0.00    -0.040 A 
ATOM     10  C   LIG    1       -1.172  -0.369   3.535  0.00  0.00    +0.080 A 
ATOM     11  C   LIG    1       -1.460   0.977   3.675  0.00  0.00    -0.060 A 
ATOM     12  C   LIG    1       -0.521   1.928   3.317  0.00  0.00    +0.090 A 
ATOM     13 CL   LIG    1       -3.003   1.473   4.296  0.00  0.00    -0.050 Cl
ATOM     14  C   LIG    1        0.709   1.535   2.822  0.00  0.00    -0.060 A 
ATOM     15 CL   LIG    1        1.886   2.728   2.372  0.00  0.00    -0.040 Cl
ENDBRANCH   7   8
ENDBRANCH   6   7
ENDBRANCH   1   6
BRANCH   2  16
ATOM     16  C   LIG    1        4.809  -3.243  -0.504  0.00  0.00    +0.260 C 
BRANCH  16  17
ATOM     17  C   LIG    1        4.926  -4.733  -0.834  0.00  0.00    +0.040 C 
BRANCH  17  18
ATOM     18  C   LIG    1        6.022  -4.938  -1.882  0.00  0.00    +0.090 C 
BRANCH  18  19
ATOM     19  C   LIG    1        5.614  -4.275  -3.172  0.00  0.00    -0.080 A 
ATOM     20  C   LIG    1        4.388  -4.563  -3.740  0.00  0.00    +0.010 A 
ATOM     21  C   LIG    1        4.012  -3.951  -4.921  0.00  0.00    +0.000 A 
ATOM     22  C   LIG    1        4.867  -3.058  -5.539  0.00  0.00    +0.000 A 
ATOM     23  C   LIG    1        6.096  -2.773  -4.974  0.00  0.00    +0.000 A 
ATOM     24  C   LIG    1        6.469  -3.382  -3.790  0.00  0.00    +0.010 A 
ENDBRANCH  18  19
BRANCH  18  25
ATOM     25  C   LIG    1        6.222  -6.413  -2.117  0.00  0.00    -0.070 A 
ATOM     26  C   LIG    1        7.484  -6.967  -2.004  0.00  0.00    +0.010 A 
ATOM     27  C   LIG    1        7.666  -8.320  -2.215  0.00  0.00    +0.000 A 
ATOM     28  C   LIG    1        6.589  -9.119  -2.549  0.00  0.00    +0.000 A 
ATOM     29  C   LIG    1        5.328  -8.565  -2.667  0.00  0.00    +0.000 A 
ATOM     30  C   LIG    1        5.144  -7.212  -2.451  0.00  0.00    +0.010 A 
ENDBRANCH  18  25
ENDBRANCH  17  18
ENDBRANCH  16  17
ENDBRANCH   2  16
TORSDOF 8
