REMARK  Name = ZINCpe000000YZtI.0
REMARK                            x       y       z     vdW  Elec       q    Type
REMARK                         _______ _______ _______ _____ _____    ______ ____
ROOT
ATOM      1  O   LIG    1        0.593   0.725  -2.717  0.00  0.00    -0.510 OA
ATOM      2  C   LIG    1       -0.398   1.373  -2.453  0.00  0.00    +0.510 C 
ATOM      3  N   LIG    1       -0.743   1.582  -1.167  0.00  0.00    -0.620 N 
ATOM      4  C   LIG    1       -1.915   2.349  -0.707  0.00  0.00    +0.270 C 
ATOM      5  C   LIG    1       -1.545   2.819   0.722  0.00  0.00    +0.010 C 
ATOM      6  C   LIG    1       -0.756   1.594   1.262  0.00  0.00    +0.000 C 
ATOM      7  C   LIG    1       -0.013   1.086   0.008  0.00  0.00    +0.260 C 
ENDROOT
BRANCH   6   8
ATOM      8  C   LIG    1        0.238   2.020   2.344  0.00  0.00    +0.050 C 
BRANCH   8   9
ATOM      9  C   LIG    1        0.998   0.792   2.851  0.00  0.00    +0.170 C 
BRANCH   9  10
ATOM     10  O   LIG    1        1.926   1.190   3.862  0.00  0.00    -0.570 OA
ATOM     11  H   LIG    1        2.444   0.461   4.229  0.00  0.00    +0.380 HD
ENDBRANCH   9  10
ENDBRANCH   8   9
ENDBRANCH   6   8
BRANCH   5  12
ATOM     12  C   LIG    1       -2.801   3.075   1.558  0.00  0.00    +0.200 C 
BRANCH  12  13
ATOM     13  O   LIG    1       -3.514   4.189   1.016  0.00  0.00    -0.570 OA
ATOM     14  H   LIG    1       -4.323   4.410   1.498  0.00  0.00    +0.390 HD
ENDBRANCH  12  13
ENDBRANCH   5  12
BRANCH   2  15
ATOM     15  C   LIG    1       -1.242   1.944  -3.563  0.00  0.00    +0.380 C 
BRANCH  15  16
ATOM     16  N   LIG    1       -0.661   1.578  -4.857  0.00  0.00    -0.320 N 
ATOM     17  N   LIG    1        0.284   2.322  -5.574  0.00  0.00    -0.220 NA
ATOM     18  C   LIG    1        0.563   1.674  -6.675  0.00  0.00    +0.010 A 
ATOM     19  C   LIG    1       -0.203   0.501  -6.700  0.00  0.00    -0.210 A 
ATOM     20  C   LIG    1       -0.479  -0.724  -7.546  0.00  0.00    +0.110 C 
ATOM     21  C   LIG    1       -1.804  -1.298  -6.998  0.00  0.00    +0.060 C 
ATOM     22  C   LIG    1       -1.799  -0.783  -5.542  0.00  0.00    +0.120 C 
ATOM     23  C   LIG    1       -0.946   0.467  -5.572  0.00  0.00    +0.070 A 
BRANCH  18  24
ATOM     24  C   LIG    1        1.536   2.116  -7.738  0.00  0.00    +0.560 C 
ATOM     25  F   LIG    1        2.084   0.993  -8.365  0.00  0.00    -0.160 F 
ATOM     26  F   LIG    1        2.559   2.868  -7.149  0.00  0.00    -0.170 F 
ATOM     27  F   LIG    1        0.868   2.900  -8.685  0.00  0.00    -0.170 F 
ENDBRANCH  18  24
ENDBRANCH  15  16
ENDBRANCH   2  15
TORSDOF 8
