REMARK  Name = ZINCtj00001yywFd.1
REMARK                            x       y       z     vdW  Elec       q    Type
REMARK                         _______ _______ _______ _____ _____    ______ ____
ROOT
ATOM      1  N   LIG    1        0.553   1.516  -2.270  0.00  0.00    -0.480 NA
ATOM      2  C   LIG    1        1.827   1.495  -1.527  0.00  0.00    +0.240 C 
ATOM      3  C   LIG    1        1.477   1.625  -0.021  0.00  0.00    +0.030 C 
ATOM      4  C   LIG    1        1.518   3.117   0.318  0.00  0.00    +0.160 C 
ATOM      5  C   LIG    1        0.645   3.425   1.535  0.00  0.00    +0.150 C 
ATOM      6  C   LIG    1        1.042   2.486   2.694  0.00  0.00    +0.050 C 
ATOM      7  C   LIG    1        0.087   1.241   2.500  0.00  0.00    -0.020 C 
ATOM      8  C   LIG    1       -0.723   1.620   1.236  0.00  0.00    +0.230 C 
ATOM      9  O   LIG    1       -0.714   3.073   1.192  0.00  0.00    -0.350 OA
ATOM     10  C   LIG    1        0.027   1.097   0.019  0.00  0.00    +0.000 C 
ATOM     11  C   LIG    1       -0.558   1.640  -1.298  0.00  0.00    +0.250 C 
ENDROOT
BRANCH   1  14
ATOM     12  C   LIG    1       -0.084   3.455  -5.308  0.00  0.00    +0.220 C 
ATOM     13  C   LIG    1       -0.087   2.390  -4.429  0.00  0.00    +0.030 C 
ATOM     14  C   LIG    1        0.529   2.554  -3.187  0.00  0.00    +0.430 C 
ATOM     15  N   LIG    1        1.089   3.725  -2.895  0.00  0.00    -0.510 NA
ATOM     16  C   LIG    1        1.073   4.713  -3.767  0.00  0.00    +0.410 C 
ATOM     17  C   LIG    1        1.722   6.023  -3.401  0.00  0.00    +0.240 C 
ATOM     18  N   LIG    1        0.500   4.590  -4.947  0.00  0.00    -0.510 NA
ATOM     19  H   LIG    1        0.504   5.341  -5.561  0.00  0.00    +0.450 HD
BRANCH  12  21
ATOM     20  C   LIG    1       -2.231   3.631  -6.537  0.00  0.00    +0.060 C 
ATOM     21  C   LIG    1       -0.736   3.330  -6.661  0.00  0.00    +0.130 C 
ENDBRANCH  12  21
ENDBRANCH   1  14
BRANCH   7  22
ATOM     22  C   LIG    1       -0.827   1.083   3.688  0.00  0.00    +0.520 C 
ATOM     23  N   LIG    1       -0.317   0.753   4.891  0.00  0.00    -0.720 N 
ATOM     24  H   LIG    1        0.638   0.617   4.992  0.00  0.00    +0.400 HD
ATOM     25  O   LIG    1       -2.021   1.252   3.561  0.00  0.00    -0.530 OA
BRANCH  23  26
ATOM     26  C   LIG    1       -1.206   0.599   6.045  0.00  0.00    +0.240 C 
ATOM     27  C   LIG    1       -1.319   1.921   6.839  0.00  0.00    +0.050 C 
ATOM     28  C   LIG    1       -1.378   1.496   8.288  0.00  0.00    -0.030 C 
ATOM     29  C   LIG    1       -0.977   0.262   8.432  0.00  0.00    -0.040 C 
ATOM     30  C   LIG    1       -0.583  -0.341   7.104  0.00  0.00    +0.050 C 
ENDBRANCH  23  26
ENDBRANCH   7  22
BRANCH   4  31
ATOM     31  O   LIG    1        2.866   3.497   0.600  0.00  0.00    -0.560 OA
ATOM     32  H   LIG    1        2.973   4.432   0.824  0.00  0.00    +0.380 HD
ENDBRANCH   4  31
TORSDOF 5
