REMARK  Name = ZINCpk00000khGpB.0
REMARK                            x       y       z     vdW  Elec       q    Type
REMARK                         _______ _______ _______ _____ _____    ______ ____
ROOT
ATOM      1  C   LIG    1        0.459   2.002  -0.510  0.00  0.00    +0.030 A 
ATOM      2  C   LIG    1        1.599   2.731  -0.526  0.00  0.00    +0.160 A 
ATOM      3  N   LIG    1        1.222   4.023  -0.385  0.00  0.00    -0.290 N 
ATOM      4  N   LIG    1       -0.062   4.061  -0.291  0.00  0.00    -0.080 NA
ATOM      5  N   LIG    1       -0.547   2.872  -0.368  0.00  0.00    -0.260 NA
ENDROOT
BRANCH   1   6
ATOM      6  C   LIG    1        0.344   0.504  -0.634  0.00  0.00    -0.010 C 
ATOM      7  C   LIG    1       -0.575  -0.046  -1.726  0.00  0.00    +0.050 C 
ATOM      8  C   LIG    1       -0.993  -0.136  -0.257  0.00  0.00    +0.060 C 
BRANCH   6  12
ATOM      9  C   LIG    1        3.902  -1.695   0.244  0.00  0.00    +0.130 A 
ATOM     10  C   LIG    1        3.258  -0.985   1.248  0.00  0.00    -0.020 A 
ATOM     11  C   LIG    1        2.108  -0.275   0.961  0.00  0.00    +0.070 A 
ATOM     12  C   LIG    1        1.599  -0.271  -0.324  0.00  0.00    -0.090 A 
ATOM     13  C   LIG    1        2.235  -0.982  -1.325  0.00  0.00    +0.060 A 
ATOM     14  C   LIG    1        3.389  -1.690  -1.045  0.00  0.00    -0.080 A 
BRANCH   9  16
ATOM     15  C   LIG    1        5.642  -3.101  -0.558  0.00  0.00    +0.250 C 
ATOM     16  O   LIG    1        5.033  -2.394   0.524  0.00  0.00    -0.320 OA
ENDBRANCH   9  16
ENDBRANCH   6  12
ENDBRANCH   1   6
BRANCH   3  17
ATOM     17  C   LIG    1        2.120   5.180  -0.346  0.00  0.00    +0.340 C 
BRANCH  17  18
ATOM     18  C   LIG    1        1.732   6.164  -1.452  0.00  0.00    +0.190 C 
ATOM     19  C   LIG    1        0.331   6.733  -1.161  0.00  0.00    +0.110 C 
ATOM     20  C   LIG    1        0.211   7.963  -2.105  0.00  0.00    -0.300 C 
ATOM     21  S   LIG    1        1.919   8.627  -2.016  0.00  0.00    +2.570 S 
ATOM     22  O   LIG    1        2.439   8.895  -3.311  0.00  0.00    -0.950 OA
ATOM     23  O   LIG    1        2.055   9.556  -0.950  0.00  0.00    -0.950 OA
ATOM     24  N   LIG    1        2.719   7.254  -1.501  0.00  0.00    -0.990 NA
ATOM     25  C   LIG    1        4.140   7.153  -1.163  0.00  0.00    +0.330 C 
ENDBRANCH  17  18
ENDBRANCH   3  17
TORSDOF 5
