REMARK  Name = ZINCrg000000oGmw.0
REMARK                            x       y       z     vdW  Elec       q    Type
REMARK                         _______ _______ _______ _____ _____    ______ ____
ROOT
ATOM      1  C   LIG    1       -0.152  11.289   0.017  0.00  0.00    +0.540 C 
ATOM      2  N   LIG    1       -0.135   9.947  -0.108  0.00  0.00    -0.600 N 
ATOM      3  C   LIG    1        1.140   9.220  -0.188  0.00  0.00    +0.290 C 
ATOM      4  C   LIG    1        1.140   8.371  -1.466  0.00  0.00    +0.290 C 
ATOM      5  N   LIG    1       -0.116   7.609  -1.523  0.00  0.00    -1.000 NA
ATOM      6  C   LIG    1       -1.390   8.337  -1.448  0.00  0.00    +0.290 C 
ATOM      7  C   LIG    1       -1.390   9.185  -0.165  0.00  0.00    +0.260 C 
ATOM      8  O   LIG    1        0.891  11.907   0.064  0.00  0.00    -0.520 OA
ENDROOT
BRANCH   5   9
ATOM      9  S   LIG    1       -0.095   5.960  -1.677  0.00  0.00    +2.600 S 
ATOM     10  O   LIG    1       -1.333   5.651  -2.300  0.00  0.00    -0.940 OA
ATOM     11  O   LIG    1        1.140   5.684  -2.323  0.00  0.00    -0.940 OA
BRANCH   9  12
ATOM     12  C   LIG    1       -0.070   5.347   0.030  0.00  0.00    -0.300 C 
BRANCH  12  13
ATOM     13  C   LIG    1       -0.050   3.840   0.022  0.00  0.00    -0.100 A 
ATOM     14  C   LIG    1        1.156   3.165   0.008  0.00  0.00    +0.030 A 
ATOM     15  C   LIG    1        1.175   1.783   0.000  0.00  0.00    +0.010 A 
ATOM     16  C   LIG    1       -0.013   1.076   0.008  0.00  0.00    +0.020 A 
ATOM     17  C   LIG    1       -1.219   1.751   0.017  0.00  0.00    +0.010 A 
ATOM     18  C   LIG    1       -1.238   3.133   0.030  0.00  0.00    +0.030 A 
ENDBRANCH  12  13
ENDBRANCH   9  12
ENDBRANCH   5   9
BRANCH   1  19
ATOM     19  C   LIG    1       -1.466  12.021   0.099  0.00  0.00    +0.110 C 
BRANCH  19  20
ATOM     20  S   LIG    1       -1.158  13.798   0.261  0.00  0.00    +0.080 S 
BRANCH  20  25
ATOM     21  N   LIG    1       -3.208  15.692   0.458  0.00  0.00    -0.460 N 
ATOM     22  C   LIG    1       -4.575  15.668   0.469  0.00  0.00    +0.380 A 
ATOM     23  N   LIG    1       -4.942  14.423   0.356  0.00  0.00    -0.290 NA
ATOM     24  N   LIG    1       -3.908  13.664   0.271  0.00  0.00    -0.300 NA
ATOM     25  C   LIG    1       -2.816  14.390   0.333  0.00  0.00    +0.140 A 
BRANCH  21  27
ATOM     26  C   LIG    1       -1.954  17.340  -0.844  0.00  0.00    +0.050 C 
ATOM     27  C   LIG    1       -2.343  16.871   0.559  0.00  0.00    +0.300 C 
ENDBRANCH  21  27
ENDBRANCH  20  25
ENDBRANCH  19  20
ENDBRANCH   1  19
TORSDOF 7
