REMARK  Name = ZINCrD00000hQ42T.0
REMARK                            x       y       z     vdW  Elec       q    Type
REMARK                         _______ _______ _______ _____ _____    ______ ____
ROOT
ATOM      1  C   LIG    1        0.010  -4.423   2.034  0.00  0.00    +0.080 C 
ATOM      2  C   LIG    1       -0.136  -3.383   3.147  0.00  0.00    +0.030 C 
ATOM      3  C   LIG    1       -1.524  -2.740   3.062  0.00  0.00    +0.260 C 
ATOM      4  N   LIG    1       -1.714  -2.204   1.707  0.00  0.00    -0.630 N 
ATOM      5  C   LIG    1       -1.514  -3.099   0.559  0.00  0.00    +0.290 C 
ATOM      6  C   LIG    1       -2.069  -0.917   1.521  0.00  0.00    +0.710 C 
ATOM      7  N   LIG    1       -2.156  -0.083   2.576  0.00  0.00    -0.740 N 
ATOM      8  H   LIG    1       -2.034  -0.424   3.476  0.00  0.00    +0.400 HD
ATOM      9  O   LIG    1       -2.313  -0.509   0.402  0.00  0.00    -0.580 OA
ATOM     10  C   LIG    1       -0.121  -3.736   0.672  0.00  0.00    +0.030 C 
ENDROOT
BRANCH   7  11
ATOM     11  C   LIG    1       -2.434   1.340   2.364  0.00  0.00    +0.320 C 
ATOM     12  C   LIG    1       -1.905   2.148   3.549  0.00  0.00    +0.020 C 
ATOM     13  C   LIG    1       -1.655   3.594   3.147  0.00  0.00    +0.020 C 
ATOM     14  C   LIG    1       -2.922   4.358   2.825  0.00  0.00    +0.220 C 
ATOM     15  O   LIG    1       -3.557   3.822   1.647  0.00  0.00    -0.320 OA
ATOM     16  C   LIG    1       -4.415   2.788   1.870  0.00  0.00    +0.130 A 
ATOM     17  C   LIG    1       -5.782   2.983   1.735  0.00  0.00    -0.030 A 
ATOM     18  C   LIG    1       -6.653   1.940   1.999  0.00  0.00    +0.110 A 
ATOM     19  C   LIG    1       -6.161   0.708   2.396  0.00  0.00    -0.020 A 
ATOM     20  C   LIG    1       -4.797   0.514   2.524  0.00  0.00    +0.070 A 
ATOM     21  F   LIG    1       -7.985   2.124   1.869  0.00  0.00    -0.140 F 
ATOM     22  C   LIG    1       -3.931   1.555   2.258  0.00  0.00    -0.130 A 
ENDBRANCH   7  11
BRANCH   1  26
ATOM     23  C   LIG    1        3.618  -7.864   2.547  0.00  0.00    +0.360 C 
ATOM     24  N   LIG    1        2.928  -6.585   2.360  0.00  0.00    -0.380 N 
ATOM     25  C   LIG    1        1.592  -6.401   2.331  0.00  0.00    +0.230 A 
ATOM     26  C   LIG    1        1.362  -5.081   2.136  0.00  0.00    -0.230 A 
ATOM     27  C   LIG    1        2.600  -4.436   2.053  0.00  0.00    +0.240 A 
ATOM     28  N   LIG    1        3.540  -5.337   2.187  0.00  0.00    -0.300 NA
ENDBRANCH   1  26
TORSDOF 2
