REMARK  Name = ZINCpk00000xIjL9.0
REMARK                            x       y       z     vdW  Elec       q    Type
REMARK                         _______ _______ _______ _____ _____    ______ ____
ROOT
ATOM      1  O   LIG    1       -6.617   4.902   1.726  0.00  0.00    -0.360 OA
ENDROOT
BRANCH   1   3
ATOM      2  O   LIG    1       -4.776   3.871   2.385  0.00  0.00    -0.470 OA
ATOM      3  C   LIG    1       -5.466   4.259   1.472  0.00  0.00    +0.460 C 
BRANCH   3   4
ATOM      4  C   LIG    1       -5.034   4.022   0.048  0.00  0.00    +0.170 C 
BRANCH   4   5
ATOM      5  C   LIG    1       -3.719   3.286   0.038  0.00  0.00    -0.030 A 
ATOM      6  C   LIG    1       -3.700   1.904   0.030  0.00  0.00    +0.050 A 
ATOM      7  C   LIG    1       -2.494   1.229   0.021  0.00  0.00    +0.110 A 
ATOM      8  C   LIG    1       -1.306   1.936   0.019  0.00  0.00    -0.040 A 
ATOM      9  C   LIG    1       -1.325   3.319   0.032  0.00  0.00    +0.110 A 
ATOM     10  C   LIG    1       -2.531   3.993   0.037  0.00  0.00    +0.050 A 
BRANCH   8  11
ATOM     11  N   LIG    1       -0.014   1.214   0.009  0.00  0.00    +0.030 N 
ATOM     12  O   LIG    1        1.032   1.837   0.002  0.00  0.00    -0.160 OA
ATOM     13  O   LIG    1        0.002  -0.004   0.002  0.00  0.00    -0.160 OA
ENDBRANCH   8  11
ENDBRANCH   4   5
ENDBRANCH   3   4
ENDBRANCH   1   3
BRANCH   1  14
ATOM     14  C   LIG    1       -6.969   5.096   3.122  0.00  0.00    +0.570 C 
BRANCH  14  15
ATOM     15  N   LIG    1       -6.223   6.235   3.661  0.00  0.00    -0.480 N 
ATOM     16  N   LIG    1       -4.973   6.034   4.252  0.00  0.00    +0.100 NA
ATOM     17  N   LIG    1       -4.268   6.990   4.737  0.00  0.00    -0.190 NA
ATOM     18  C   LIG    1       -4.695   8.277   4.720  0.00  0.00    +0.050 A 
ATOM     19  C   LIG    1       -3.919   9.307   5.257  0.00  0.00    +0.090 A 
ATOM     20  C   LIG    1       -4.385  10.602   5.223  0.00  0.00    +0.070 A 
ATOM     21  C   LIG    1       -5.619  10.899   4.660  0.00  0.00    +0.050 A 
ATOM     22  C   LIG    1       -6.402   9.901   4.124  0.00  0.00    +0.100 A 
ATOM     23  C   LIG    1       -5.949   8.584   4.148  0.00  0.00    -0.150 A 
ATOM     24  C   LIG    1       -6.747   7.481   3.590  0.00  0.00    +0.530 A 
ATOM     25  O   LIG    1       -7.836   7.682   3.084  0.00  0.00    -0.490 OA
ENDBRANCH  14  15
ENDBRANCH   1  14
TORSDOF 6
