REMARK  Name = ZINCrg000000qKS7.0
REMARK                            x       y       z     vdW  Elec       q    Type
REMARK                         _______ _______ _______ _____ _____    ______ ____
ROOT
ATOM      1  C   LIG    1       -0.957  -2.254  -0.001  0.00  0.00    +0.070 C 
ENDROOT
BRANCH   1   5
ATOM      2  C   LIG    1       -4.628  -4.441   0.022  0.00  0.00    +0.230 A 
ATOM      3  C   LIG    1       -4.020  -4.092   1.219  0.00  0.00    -0.090 A 
ATOM      4  C   LIG    1       -2.830  -3.390   1.209  0.00  0.00    +0.130 A 
ATOM      5  C   LIG    1       -2.251  -3.025   0.007  0.00  0.00    -0.140 A 
ATOM      6  C   LIG    1       -2.856  -3.372  -1.187  0.00  0.00    +0.170 A 
ATOM      7  C   LIG    1       -4.043  -4.078  -1.182  0.00  0.00    -0.710 A 
BRANCH   7   8
ATOM      8  S   LIG    1       -4.812  -4.520  -2.705  0.00  0.00    +2.710 S 
ATOM      9  O   LIG    1       -3.961  -4.043  -3.738  0.00  0.00    -0.960 OA
ATOM     10  O   LIG    1       -6.178  -4.145  -2.587  0.00  0.00    -0.950 OA
BRANCH   8  11
ATOM     11  N   LIG    1       -4.788  -6.173  -2.805  0.00  0.00    -1.240 NA
ATOM     12  H   LIG    1       -4.072  -6.674  -2.383  0.00  0.00    +0.420 HD
ATOM     13  H   LIG    1       -5.489  -6.640  -3.285  0.00  0.00    +0.420 HD
ENDBRANCH   8  11
ENDBRANCH   7   8
BRANCH   2  15
ATOM     14  C   LIG    1       -6.341  -5.475   1.306  0.00  0.00    +0.250 C 
ATOM     15  O   LIG    1       -5.796  -5.136   0.030  0.00  0.00    -0.310 OA
ENDBRANCH   2  15
ENDBRANCH   1   5
BRANCH   1  16
ATOM     16  C   LIG    1       -1.256  -0.754   0.010  0.00  0.00    +0.280 C 
BRANCH  16  17
ATOM     17  N   LIG    1        0.002  -0.004   0.002  0.00  0.00    -0.740 N 
ATOM     18  H   LIG    1        0.849  -0.478  -0.009  0.00  0.00    +0.400 HD
ATOM     19  C   LIG    1       -0.016   1.344   0.009  0.00  0.00    +0.720 C 
ATOM     20  N   LIG    1        1.142   2.033   0.002  0.00  0.00    -0.640 N 
ATOM     21  C   LIG    1        2.490   1.445  -0.015  0.00  0.00    +0.240 C 
ATOM     22  C   LIG    1        3.501   2.612   0.007  0.00  0.00    +0.050 C 
ATOM     23  C   LIG    1        2.669   3.776   0.585  0.00  0.00    -0.110 C 
ATOM     24  C   LIG    1        3.205   5.113   0.090  0.00  0.00    +0.030 C 
ATOM     25  C   LIG    1        4.583   5.362   0.714  0.00  0.00    +0.000 C 
ATOM     26  C   LIG    1        4.465   5.281   2.238  0.00  0.00    +0.200 C 
ATOM     27  O   LIG    1        3.959   3.997   2.611  0.00  0.00    -0.380 OA
ATOM     28  C   LIG    1        2.650   3.718   2.104  0.00  0.00    +0.220 C 
ATOM     29  C   LIG    1        1.266   3.504   0.003  0.00  0.00    +0.290 C 
ATOM     30  O   LIG    1       -1.077   1.937   0.018  0.00  0.00    -0.580 OA
ENDBRANCH  16  17
ENDBRANCH   1  16
TORSDOF 6
