REMARK  Name = ZINCvU00000005DU.0
REMARK                            x       y       z     vdW  Elec       q    Type
REMARK                         _______ _______ _______ _____ _____    ______ ____
ROOT
ATOM      1  C   LIG    1        1.783   3.113   0.001  0.00  0.00    +0.350 C 
ATOM      2  N   LIG    1        1.296   1.731  -0.001  0.00  0.00    -0.460 N 
ATOM      3  C   LIG    1        2.048   0.590  -0.014  0.00  0.00    +0.160 A 
ATOM      4  N   LIG    1        1.216  -0.426  -0.012  0.00  0.00    -0.280 NA
ATOM      5  N   LIG    1        0.002  -0.004   0.002  0.00  0.00    -0.260 NA
ATOM      6  C   LIG    1       -0.016   1.311   0.009  0.00  0.00    +0.260 A 
ENDROOT
BRANCH   6   7
ATOM      7  C   LIG    1       -1.211   2.170   0.020  0.00  0.00    -0.140 A 
ATOM      8  C   LIG    1       -2.460   1.761   0.309  0.00  0.00    +0.090 A 
ATOM      9  C   LIG    1       -3.436   2.745   0.258  0.00  0.00    -0.100 A 
ATOM     10  C   LIG    1       -2.964   3.964  -0.076  0.00  0.00    -0.160 A 
ATOM     11  C   LIG    1       -3.813   5.212  -0.203  0.00  0.00    +0.110 C 
ATOM     12  C   LIG    1       -5.156   4.965   0.489  0.00  0.00    +0.040 C 
ATOM     13  C   LIG    1       -5.736   3.638  -0.009  0.00  0.00    -0.010 C 
ATOM     14  C   LIG    1       -4.907   2.481   0.552  0.00  0.00    +0.100 C 
ATOM     15  S   LIG    1       -1.227   3.891  -0.335  0.00  0.00    +0.120 S 
BRANCH  13  16
ATOM     16  C   LIG    1       -7.185   3.504   0.465  0.00  0.00    -0.060 C 
ATOM     17  C   LIG    1       -7.763   2.176  -0.029  0.00  0.00    +0.020 C 
ATOM     18  C   LIG    1       -8.014   4.661  -0.096  0.00  0.00    +0.020 C 
ATOM     19  C   LIG    1       -7.227   3.541   1.994  0.00  0.00    +0.020 C 
ENDBRANCH  13  16
ENDBRANCH   6   7
BRANCH   3  20
ATOM     20  S   LIG    1        3.808   0.499  -0.032  0.00  0.00    +0.040 S 
BRANCH  20  21
ATOM     21  C   LIG    1        4.029  -1.298  -0.043  0.00  0.00    +0.200 C 
BRANCH  21  22
ATOM     22  C   LIG    1        5.501  -1.622  -0.058  0.00  0.00    +0.220 A 
ATOM     23  C   LIG    1        6.127  -2.079   1.082  0.00  0.00    -0.110 A 
ATOM     24  C   LIG    1        7.491  -2.373   1.041  0.00  0.00    +0.530 A 
ATOM     25  N   LIG    1        8.186  -2.206  -0.122  0.00  0.00    -0.470 N 
ATOM     26  C   LIG    1        9.522  -2.447  -0.329  0.00  0.00    +0.240 A 
ATOM     27  C   LIG    1       10.034  -2.229  -1.527  0.00  0.00    +0.020 A 
ATOM     28  S   LIG    1        8.685  -1.651  -2.521  0.00  0.00    +0.190 S 
ATOM     29  C   LIG    1        7.500  -1.751  -1.207  0.00  0.00    +0.320 A 
ATOM     30  O   LIG    1        8.061  -2.778   2.042  0.00  0.00    -0.510 OA
ATOM     31  N   LIG    1        6.210  -1.478  -1.171  0.00  0.00    -0.500 NA
ENDBRANCH  21  22
ENDBRANCH  20  21
ENDBRANCH   3  20
TORSDOF 5
