REMARK  Name = ZINCrH000004proK.0
REMARK                            x       y       z     vdW  Elec       q    Type
REMARK                         _______ _______ _______ _____ _____    ______ ____
ROOT
ATOM      1  N   LIG    1        1.734   2.643  -6.652  0.00  0.00    -0.720 N 
ATOM      2  H   LIG    1        1.121   2.850  -7.374  0.00  0.00    +0.400 HD
ATOM      3  C   LIG    1        1.263   2.432  -5.407  0.00  0.00    +0.560 C 
ATOM      4  O   LIG    1        2.032   2.172  -4.502  0.00  0.00    -0.500 OA
ENDROOT
BRANCH   3   5
ATOM      5  C   LIG    1       -0.185   2.516  -5.143  0.00  0.00    -0.130 A 
ATOM      6  C   LIG    1       -1.073   2.808  -6.181  0.00  0.00    +0.070 A 
ATOM      7  C   LIG    1       -2.424   2.892  -5.926  0.00  0.00    +0.000 A 
ATOM      8  C   LIG    1       -2.910   2.681  -4.645  0.00  0.00    +0.060 A 
ATOM      9  C   LIG    1       -2.047   2.385  -3.610  0.00  0.00    -0.020 A 
ATOM     10  C   LIG    1       -0.681   2.297  -3.847  0.00  0.00    -0.050 A 
BRANCH  10  11
ATOM     11  S   LIG    1        0.424   1.919  -2.528  0.00  0.00    +0.040 S 
BRANCH  11  12
ATOM     12  C   LIG    1       -0.696   1.577  -1.143  0.00  0.00    -0.020 C 
ATOM     13  C   LIG    1        0.120   1.396   0.149  0.00  0.00    +0.110 C 
ATOM     14  C   LIG    1       -0.844   0.787   1.201  0.00  0.00    -0.300 C 
ATOM     15  S   LIG    1       -1.752  -0.475   0.226  0.00  0.00    +2.390 S 
ATOM     16  O   LIG    1       -1.060  -1.714   0.297  0.00  0.00    -0.930 OA
ATOM     17  O   LIG    1       -3.135  -0.415   0.547  0.00  0.00    -0.930 OA
ATOM     18  C   LIG    1       -1.479   0.278  -1.419  0.00  0.00    -0.310 C 
ENDBRANCH  11  12
ENDBRANCH  10  11
ENDBRANCH   3   5
BRANCH   1  20
ATOM     19  C   LIG    1        3.544   1.118  -7.270  0.00  0.00    +0.040 C 
ATOM     20  C   LIG    1        3.173   2.559  -6.915  0.00  0.00    +0.300 C 
BRANCH  20  21
ATOM     21  C   LIG    1        3.527   3.467  -8.065  0.00  0.00    -0.140 A 
ATOM     22  C   LIG    1        2.582   3.761  -9.029  0.00  0.00    +0.080 A 
ATOM     23  C   LIG    1        2.904   4.597 -10.082  0.00  0.00    -0.010 A 
ATOM     24  C   LIG    1        4.178   5.132 -10.177  0.00  0.00    +0.130 A 
ATOM     25  C   LIG    1        5.127   4.834  -9.214  0.00  0.00    -0.040 A 
ATOM     26  F   LIG    1        4.494   5.945 -11.208  0.00  0.00    -0.130 F 
ATOM     27  C   LIG    1        4.801   4.001  -8.157  0.00  0.00    +0.140 A 
ATOM     28  F   LIG    1        5.726   3.710  -7.217  0.00  0.00    -0.120 F 
ENDBRANCH  20  21
ENDBRANCH   1  20
TORSDOF 5
