REMARK  Name = ZINCpk00000eb16O.0
REMARK                            x       y       z     vdW  Elec       q    Type
REMARK                         _______ _______ _______ _____ _____    ______ ____
ROOT
ATOM      1  S   LIG    1        0.161   3.993  -6.449  0.00  0.00    +2.700 S 
ATOM      2  O   LIG    1        0.815   2.764  -6.737  0.00  0.00    -0.950 OA
ATOM      3  O   LIG    1        0.830   5.246  -6.444  0.00  0.00    -0.950 OA
ENDROOT
BRANCH   1  10
ATOM      4  C   LIG    1       -1.794   6.300  -6.519  0.00  0.00    +0.120 C 
ATOM      5  C   LIG    1       -2.003   5.231  -7.561  0.00  0.00    +0.070 A 
ATOM      6  C   LIG    1       -3.038   5.345  -8.470  0.00  0.00    -0.020 A 
ATOM      7  C   LIG    1       -3.229   4.364  -9.426  0.00  0.00    +0.180 A 
ATOM      8  C   LIG    1       -2.385   3.271  -9.473  0.00  0.00    -0.690 A 
ATOM      9  C   LIG    1       -1.346   3.160  -8.567  0.00  0.00    +0.240 A 
ATOM     10  C   LIG    1       -1.159   4.137  -7.607  0.00  0.00    -0.700 A 
BRANCH   8  11
ATOM     11  S   LIG    1       -2.628   2.022 -10.692  0.00  0.00    +2.500 S 
ATOM     12  O   LIG    1       -4.013   2.099 -11.001  0.00  0.00    -0.930 OA
ATOM     13  O   LIG    1       -2.071   0.851 -10.110  0.00  0.00    -0.930 OA
ATOM     14  C   LIG    1       -1.629   2.567 -12.104  0.00  0.00    -0.250 C 
ENDBRANCH   8  11
ENDBRANCH   1  10
BRANCH   1  15
ATOM     15  N   LIG    1       -0.520   3.820  -4.949  0.00  0.00    -1.110 NA
ATOM     16  H   LIG    1       -0.381   4.500  -4.272  0.00  0.00    +0.420 HD
BRANCH  15  17
ATOM     17  C   LIG    1       -1.333   2.640  -4.645  0.00  0.00    +0.380 C 
BRANCH  17  18
ATOM     18  C   LIG    1       -1.510   2.523  -3.153  0.00  0.00    -0.020 A 
ATOM     19  C   LIG    1       -2.557   2.988  -2.441  0.00  0.00    +0.150 A 
ATOM     20  N   LIG    1       -2.315   2.671  -1.138  0.00  0.00    -0.450 N 
ATOM     21  C   LIG    1       -3.156   2.958   0.027  0.00  0.00    +0.280 C 
ATOM     22  C   LIG    1       -2.714   2.061   1.188  0.00  0.00    +0.030 C 
ATOM     23  C   LIG    1       -1.195   2.170   1.369  0.00  0.00    +0.030 C 
ATOM     24  C   LIG    1       -0.497   1.502   0.178  0.00  0.00    +0.150 C 
ATOM     25  C   LIG    1       -1.127   2.022  -1.092  0.00  0.00    +0.210 A 
ATOM     26  N   LIG    1       -0.653   1.937  -2.301  0.00  0.00    -0.470 NA
ENDBRANCH  17  18
ENDBRANCH  15  17
ENDBRANCH   1  15
TORSDOF 5
