REMARK  Name = ZINCah0000002BAu.0
REMARK                            x       y       z     vdW  Elec       q    Type
REMARK                         _______ _______ _______ _____ _____    ______ ____
ROOT
ATOM      1  C   LIG    1        0.002  -0.004   0.002  0.00  0.00    +0.360 A 
ATOM      2  C   LIG    1       -0.016   1.357   0.009  0.00  0.00    -0.210 A 
ATOM      3  C   LIG    1        1.308   1.803  -0.001  0.00  0.00    +0.260 A 
ATOM      4  N   LIG    1        2.094   0.757  -0.014  0.00  0.00    -0.310 NA
ATOM      5  N   LIG    1        1.297  -0.395  -0.012  0.00  0.00    -0.390 N 
ENDROOT
BRANCH   5   6
ATOM      6  C   LIG    1        1.780  -1.777  -0.025  0.00  0.00    +0.240 C 
ATOM      7  C   LIG    1        3.023  -2.003   0.852  0.00  0.00    +0.030 C 
ATOM      8  C   LIG    1        3.549  -2.918  -0.269  0.00  0.00    +0.020 C 
ATOM      9  C   LIG    1        2.667  -2.109  -1.236  0.00  0.00    +0.030 C 
ENDBRANCH   5   6
BRANCH   1  10
ATOM     10  N   LIG    1       -1.110  -0.842   0.008  0.00  0.00    -0.860 N 
ATOM     11  H   LIG    1       -0.992  -1.805   0.002  0.00  0.00    +0.400 HD
ATOM     12  H   LIG    1       -2.002  -0.463   0.019  0.00  0.00    +0.420 HD
ENDBRANCH   1  10
TORSDOF 2
