REMARK  Name = ZINCqH0000031J1Y.0
REMARK                            x       y       z     vdW  Elec       q    Type
REMARK                         _______ _______ _______ _____ _____    ______ ____
ROOT
ATOM      1  N   LIG    1        4.002   4.204   0.628  0.00  0.00    -1.050 N 
ATOM      2  H   LIG    1        3.682   5.063   0.312  0.00  0.00    +0.430 HD
ENDROOT
BRANCH   1   3
ATOM      3  C   LIG    1        3.359   3.027   0.228  0.00  0.00    +0.150 A 
ATOM      4  C   LIG    1        4.107   1.941  -0.207  0.00  0.00    +0.030 A 
ATOM      5  C   LIG    1        3.473   0.778  -0.603  0.00  0.00    +0.070 A 
ATOM      6  C   LIG    1        2.093   0.694  -0.568  0.00  0.00    +0.030 A 
ATOM      7  O   LIG    1        1.231  -0.321  -0.899  0.00  0.00    -0.290 OA
ATOM      8  C   LIG    1        0.029   0.006  -0.187  0.00  0.00    +0.250 C 
ATOM      9  O   LIG    1        0.013   1.441  -0.191  0.00  0.00    -0.290 OA
ATOM     10  C   LIG    1       -1.207  -0.565  -0.891  0.00  0.00    +0.070 C 
ATOM     11  C   LIG    1       -1.527  -1.857  -0.095  0.00  0.00    +0.040 C 
ATOM     12  C   LIG    1       -1.196  -1.455   1.365  0.00  0.00    +0.030 C 
ATOM     13  C   LIG    1        0.051  -0.551   1.236  0.00  0.00    +0.020 C 
ATOM     14  C   LIG    1        1.339   1.783  -0.130  0.00  0.00    +0.050 A 
ATOM     15  C   LIG    1        1.973   2.947   0.265  0.00  0.00    +0.030 A 
ENDBRANCH   1   3
BRANCH   1  16
ATOM     16  S   LIG    1        5.310   4.129   1.641  0.00  0.00    +2.690 S 
ATOM     17  O   LIG    1        5.659   5.472   1.946  0.00  0.00    -0.940 OA
ATOM     18  O   LIG    1        6.217   3.204   1.058  0.00  0.00    -0.940 OA
BRANCH  16  23
ATOM     19  C   LIG    1        4.474   1.474   4.553  0.00  0.00    -0.190 A 
ATOM     20  C   LIG    1        3.887   2.280   5.534  0.00  0.00    +0.130 A 
ATOM     21  C   LIG    1        3.743   3.634   5.313  0.00  0.00    -0.010 A 
ATOM     22  C   LIG    1        4.184   4.195   4.127  0.00  0.00    +0.160 A 
ATOM     23  C   LIG    1        4.760   3.403   3.150  0.00  0.00    -0.690 A 
ATOM     24  C   LIG    1        4.911   2.048   3.355  0.00  0.00    +0.190 A 
BRANCH  19  26
ATOM     25  C   LIG    1        4.158  -0.587   6.073  0.00  0.00    +0.080 C 
ATOM     26  C   LIG    1        4.630   0.028   4.781  0.00  0.00    +0.390 C 
ATOM     27  O   LIG    1        5.139  -0.668   3.928  0.00  0.00    -0.450 OA
ENDBRANCH  19  26
ENDBRANCH  16  23
ENDBRANCH   1  16
TORSDOF 4
