REMARK  Name = ZINCrg000000rO0b.1
REMARK                            x       y       z     vdW  Elec       q    Type
REMARK                         _______ _______ _______ _____ _____    ______ ____
ROOT
ATOM      1  C   LIG    1       -0.339   1.433   8.607  0.00  0.00    +0.570 C 
ATOM      2  N   LIG    1        0.210   0.870   9.702  0.00  0.00    -0.600 N 
ATOM      3  C   LIG    1        1.342  -0.060   9.578  0.00  0.00    +0.270 C 
ATOM      4  C   LIG    1        2.481   0.435  10.483  0.00  0.00    +0.040 C 
ATOM      5  C   LIG    1        1.956   0.599  11.911  0.00  0.00    +0.040 C 
ATOM      6  C   LIG    1        0.839   1.645  11.928  0.00  0.00    +0.110 C 
ATOM      7  C   LIG    1       -0.315   1.169  11.041  0.00  0.00    +0.320 C 
ATOM      8  O   LIG    1       -1.210   2.271   8.727  0.00  0.00    -0.520 OA
ENDROOT
BRANCH   6   9
ATOM      9  C   LIG    1        0.345   1.830  13.340  0.00  0.00    +0.260 A 
ATOM     10  N   LIG    1       -0.670   1.225  13.862  0.00  0.00    -0.260 NA
ATOM     11  N   LIG    1       -0.800   1.667  15.187  0.00  0.00    -0.550 N 
ATOM     12  H   LIG    1       -1.474   1.387  15.827  0.00  0.00    +0.470 HD
ATOM     13  C   LIG    1        0.193   2.557  15.399  0.00  0.00    +0.610 A 
ATOM     14  O   LIG    1        0.412   3.161  16.432  0.00  0.00    -0.480 OA
ATOM     15  O   LIG    1        0.896   2.648  14.258  0.00  0.00    -0.270 OA
ENDBRANCH   6   9
BRANCH   1  18
ATOM     16  C   LIG    1        0.688   1.547   4.984  0.00  0.00    +0.320 A 
ATOM     17  C   LIG    1        0.254   1.970   6.235  0.00  0.00    +0.020 A 
ATOM     18  C   LIG    1        0.121   1.029   7.257  0.00  0.00    -0.060 A 
ATOM     19  C   LIG    1        0.432  -0.305   6.974  0.00  0.00    -0.030 A 
ATOM     20  C   LIG    1        0.857  -0.642   5.704  0.00  0.00    +0.300 A 
ATOM     21  N   LIG    1        0.966   0.272   4.760  0.00  0.00    -0.500 NA
BRANCH  16  25
ATOM     22  C   LIG    1        1.934   2.210   0.337  0.00  0.00    +0.070 C 
ATOM     23  C   LIG    1        1.372   2.862   1.601  0.00  0.00    +0.150 C 
ATOM     24  C   LIG    1        1.292   1.822   2.721  0.00  0.00    +0.200 C 
ATOM     25  N   LIG    1        0.825   2.471   3.954  0.00  0.00    -0.480 N 
ATOM     26  C   LIG    1        1.730   3.563   4.343  0.00  0.00    +0.180 C 
ATOM     27  C   LIG    1        1.805   4.586   3.207  0.00  0.00    +0.230 C 
ATOM     28  O   LIG    1        2.231   3.930   2.010  0.00  0.00    -0.380 OA
ENDBRANCH  16  25
ENDBRANCH   1  18
TORSDOF 3
