REMARK  Name = ZINCrg00000fSclK.0
REMARK                            x       y       z     vdW  Elec       q    Type
REMARK                         _______ _______ _______ _____ _____    ______ ____
ROOT
ATOM      1  C   LIG    1        3.217  -2.883  -1.421  0.00  0.00    +0.520 C 
ATOM      2  N   LIG    1        2.037  -3.535  -1.419  0.00  0.00    -0.670 N 
ATOM      3  H   LIG    1        1.253  -3.118  -1.028  0.00  0.00    +0.410 HD
ATOM      4  O   LIG    1        4.172  -3.359  -1.997  0.00  0.00    -0.490 OA
ENDROOT
BRANCH   2   5
ATOM      5  C   LIG    1        1.943  -4.815  -1.982  0.00  0.00    +0.120 A 
ATOM      6  C   LIG    1        0.778  -5.204  -2.630  0.00  0.00    +0.020 A 
ATOM      7  C   LIG    1        0.687  -6.463  -3.190  0.00  0.00    -0.020 A 
ATOM      8  C   LIG    1        1.757  -7.344  -3.095  0.00  0.00    +0.100 A 
ATOM      9  C   LIG    1        2.919  -6.957  -2.441  0.00  0.00    +0.010 A 
ATOM     10  C   LIG    1        3.012  -5.696  -1.886  0.00  0.00    +0.050 A 
BRANCH   8  11
ATOM     11  N   LIG    1        1.663  -8.621  -3.657  0.00  0.00    -0.490 N 
ATOM     12  C   LIG    1        2.752  -8.855  -4.617  0.00  0.00    +0.160 C 
ATOM     13  C   LIG    1        2.646 -10.282  -5.162  0.00  0.00    +0.220 C 
ATOM     14  O   LIG    1        1.356 -10.467  -5.752  0.00  0.00    -0.380 OA
ATOM     15  C   LIG    1        0.272 -10.247  -4.845  0.00  0.00    +0.220 C 
ATOM     16  C   LIG    1        0.354  -8.821  -4.296  0.00  0.00    +0.160 C 
ENDBRANCH   8  11
ENDBRANCH   2   5
BRANCH   1  18
ATOM     17  C   LIG    1        2.369  -0.555  -1.312  0.00  0.00    +0.070 C 
ATOM     18  C   LIG    1        3.349  -1.562  -0.707  0.00  0.00    +0.190 C 
BRANCH  18  19
ATOM     19  O   LIG    1        4.706  -1.066  -0.854  0.00  0.00    -0.300 OA
BRANCH  19  20
ATOM     20  C   LIG    1        5.190  -0.304   0.145  0.00  0.00    +0.550 C 
ATOM     21  O   LIG    1        4.498  -0.060   1.113  0.00  0.00    -0.510 OA
BRANCH  20  22
ATOM     22  C   LIG    1        6.564   0.230   0.067  0.00  0.00    -0.050 A 
ATOM     23  N   LIG    1        7.362  -0.121  -0.938  0.00  0.00    -0.340 NA
ATOM     24  C   LIG    1        8.587   0.358  -1.005  0.00  0.00    +0.160 A 
ATOM     25  C   LIG    1        9.053   1.230  -0.032  0.00  0.00    +0.340 A 
ATOM     26  N   LIG    1        8.274   1.587   0.972  0.00  0.00    -0.510 NA
ATOM     27  C   LIG    1        7.034   1.117   1.050  0.00  0.00    +0.420 A 
BRANCH  27  28
ATOM     28  N   LIG    1        6.213   1.494   2.096  0.00  0.00    -0.810 N 
ATOM     29  H   LIG    1        6.564   2.041   2.816  0.00  0.00    +0.410 HD
ATOM     30  H   LIG    1        5.285   1.210   2.111  0.00  0.00    +0.430 HD
ENDBRANCH  27  28
ENDBRANCH  20  22
ENDBRANCH  19  20
ENDBRANCH  18  19
ENDBRANCH   1  18
TORSDOF 7
