REMARK  Name = ZINCrH000004oBYc.0
REMARK                            x       y       z     vdW  Elec       q    Type
REMARK                         _______ _______ _______ _____ _____    ______ ____
ROOT
ATOM      1  C   LIG    1       -2.750   5.546   3.865  0.00  0.00    +0.070 C 
ATOM      2  C   LIG    1       -2.082   5.252   2.521  0.00  0.00    +0.030 C 
ATOM      3  C   LIG    1       -2.988   4.353   1.695  0.00  0.00    +0.030 C 
ATOM      4  C   LIG    1       -2.595   4.189   0.251  0.00  0.00    +0.300 C 
ATOM      5  N   LIG    1       -1.323   3.458   0.129  0.00  0.00    -0.560 N 
ATOM      6  C   LIG    1       -0.134   4.192   0.135  0.00  0.00    +0.160 A 
ATOM      7  C   LIG    1        0.563   4.379  -1.055  0.00  0.00    +0.010 A 
ATOM      8  C   LIG    1        1.710   5.149  -1.066  0.00  0.00    +0.040 A 
ATOM      9  C   LIG    1        2.179   5.740   0.092  0.00  0.00    +0.030 A 
ATOM     10  C   LIG    1        1.511   5.543   1.274  0.00  0.00    +0.080 A 
ATOM     11  C   LIG    1        0.375   4.761   1.291  0.00  0.00    -0.110 A 
ATOM     12  C   LIG    1       -1.306   2.115   0.020  0.00  0.00    +0.580 C 
ATOM     13  O   LIG    1       -2.349   1.500  -0.078  0.00  0.00    -0.520 OA
ATOM     14  S   LIG    1       -0.486   4.437   2.813  0.00  0.00    -0.150 S 
ENDROOT
BRANCH  12  15
ATOM     15  C   LIG    1       -0.017   1.390   0.019  0.00  0.00    -0.100 A 
ATOM     16  C   LIG    1        1.053   1.863   0.781  0.00  0.00    +0.030 A 
ATOM     17  C   LIG    1        2.256   1.188   0.774  0.00  0.00    +0.060 A 
ATOM     18  C   LIG    1        2.408   0.043   0.015  0.00  0.00    -0.010 A 
ATOM     19  C   LIG    1        1.348  -0.437  -0.746  0.00  0.00    +0.200 A 
ATOM     20  C   LIG    1        0.135   0.234  -0.747  0.00  0.00    +0.040 A 
BRANCH  19  21
ATOM     21  N   LIG    1        1.506  -1.595  -1.512  0.00  0.00    -0.930 N 
ATOM     22  C   LIG    1        0.437  -2.511  -1.936  0.00  0.00    +0.260 C 
ATOM     23  C   LIG    1        0.819  -3.185  -3.271  0.00  0.00    +0.100 C 
ATOM     24  C   LIG    1        2.299  -3.621  -3.068  0.00  0.00    -0.290 C 
ATOM     25  S   LIG    1        2.945  -2.198  -2.108  0.00  0.00    +2.560 S 
ATOM     26  O   LIG    1        3.668  -2.630  -0.964  0.00  0.00    -0.940 OA
ATOM     27  O   LIG    1        3.445  -1.182  -2.967  0.00  0.00    -0.940 OA
ENDBRANCH  19  21
ENDBRANCH  12  15
TORSDOF 2
