REMARK  Name = ZINCqH0000007oMt.0
REMARK                            x       y       z     vdW  Elec       q    Type
REMARK                         _______ _______ _______ _____ _____    ______ ____
ROOT
ATOM      1  C   LIG    1       -2.083  -0.362   2.516  0.00  0.00    +0.320 C 
ENDROOT
BRANCH   1   5
ATOM      2  C   LIG    1       -4.661  -1.749   5.630  0.00  0.00    +0.140 A 
ATOM      3  C   LIG    1       -4.914  -0.535   5.006  0.00  0.00    -0.020 A 
ATOM      4  C   LIG    1       -4.080  -0.089   4.000  0.00  0.00    +0.070 A 
ATOM      5  C   LIG    1       -2.992  -0.851   3.614  0.00  0.00    -0.150 A 
ATOM      6  C   LIG    1       -2.741  -2.063   4.229  0.00  0.00    +0.060 A 
ATOM      7  C   LIG    1       -3.569  -2.511   5.240  0.00  0.00    -0.080 A 
BRANCH   2   9
ATOM      8  C   LIG    1       -5.158  -3.447   7.217  0.00  0.00    +0.250 C 
ATOM      9  O   LIG    1       -5.480  -2.189   6.620  0.00  0.00    -0.320 OA
ENDBRANCH   2   9
ENDBRANCH   1   5
BRANCH   1  10
ATOM     10  N   LIG    1       -1.700  -1.489   1.661  0.00  0.00    -1.100 NA
ATOM     11  H   LIG    1       -0.934  -2.036   1.894  0.00  0.00    +0.420 HD
BRANCH  10  12
ATOM     12  S   LIG    1       -2.576  -1.828   0.297  0.00  0.00    +2.720 S 
ATOM     13  O   LIG    1       -1.920  -2.916  -0.341  0.00  0.00    -0.950 OA
ATOM     14  O   LIG    1       -3.939  -1.868   0.694  0.00  0.00    -0.940 OA
BRANCH  12  15
ATOM     15  C   LIG    1       -2.413  -0.446  -0.784  0.00  0.00    -0.780 A 
ATOM     16  C   LIG    1       -1.419  -0.265  -1.655  0.00  0.00    +0.200 A 
ATOM     17  C   LIG    1       -1.501   0.899  -2.401  0.00  0.00    +0.020 A 
ATOM     18  C   LIG    1       -2.564   1.663  -2.135  0.00  0.00    -0.110 A 
ATOM     19 CL   LIG    1       -2.930   3.173  -2.908  0.00  0.00    -0.000 Cl
ATOM     20  S   LIG    1       -3.535   0.904  -0.880  0.00  0.00    +0.260 S 
ENDBRANCH  12  15
ENDBRANCH  10  12
ENDBRANCH   1  10
BRANCH   1  21
ATOM     21  C   LIG    1       -0.829   0.260   3.131  0.00  0.00    +0.120 C 
BRANCH  21  22
ATOM     22  C   LIG    1        0.013   0.875   2.043  0.00  0.00    +0.460 C 
ATOM     23  O   LIG    1       -0.401   0.914   0.909  0.00  0.00    -0.490 OA
BRANCH  22  24
ATOM     24  O   LIG    1        1.223   1.379   2.334  0.00  0.00    -0.350 OA
BRANCH  24  25
ATOM     25  C   LIG    1        1.929   2.057   1.262  0.00  0.00    +0.170 C 
ATOM     26  C   LIG    1        2.704   1.030   0.432  0.00  0.00    +0.030 C 
ATOM     27  C   LIG    1        2.906   3.072   1.858  0.00  0.00    +0.070 C 
ENDBRANCH  24  25
ENDBRANCH  22  24
ENDBRANCH  21  22
ENDBRANCH   1  21
TORSDOF 9
