REMARK  Name = ZINCrD00000l7Cnv.0
REMARK                            x       y       z     vdW  Elec       q    Type
REMARK                         _______ _______ _______ _____ _____    ______ ____
ROOT
ATOM      1  N   LIG    1        6.153  -0.080  -3.012  0.00  0.00    -0.520 NA
ATOM      2  C   LIG    1        7.141   0.588  -2.154  0.00  0.00    +0.180 C 
ATOM      3  C   LIG    1        8.409  -0.266  -2.074  0.00  0.00    +0.050 C 
ATOM      4  C   LIG    1        8.977  -0.461  -3.482  0.00  0.00    -0.010 C 
ATOM      5  C   LIG    1        7.912  -1.113  -4.368  0.00  0.00    +0.060 C 
ATOM      6  C   LIG    1        6.659  -0.235  -4.382  0.00  0.00    +0.180 C 
ENDROOT
BRANCH   4   7
ATOM      7  C   LIG    1       10.192  -1.350  -3.418  0.00  0.00    +0.520 C 
ATOM      8  N   LIG    1       11.263  -0.976  -2.691  0.00  0.00    -0.670 N 
ATOM      9  H   LIG    1       11.279  -0.105  -2.264  0.00  0.00    +0.410 HD
ATOM     10  O   LIG    1       10.206  -2.402  -4.021  0.00  0.00    -0.520 OA
BRANCH   8  11
ATOM     11  C   LIG    1       12.352  -1.843  -2.552  0.00  0.00    +0.140 A 
ATOM     12  C   LIG    1       13.069  -1.875  -1.363  0.00  0.00    -0.030 A 
ATOM     13  C   LIG    1       14.140  -2.736  -1.227  0.00  0.00    +0.030 A 
ATOM     14  C   LIG    1       14.506  -3.558  -2.277  0.00  0.00    -0.010 A 
ATOM     15  C   LIG    1       13.798  -3.525  -3.464  0.00  0.00    +0.030 A 
ATOM     16  C   LIG    1       12.722  -2.670  -3.604  0.00  0.00    +0.020 A 
ENDBRANCH   8  11
ENDBRANCH   4   7
BRANCH   1  17
ATOM     17  C   LIG    1        4.874   0.642  -3.001  0.00  0.00    +0.210 C 
BRANCH  17  19
ATOM     18  O   LIG    1        4.845  -0.024  -0.738  0.00  0.00    -0.520 OA
ATOM     19  C   LIG    1        4.268   0.570  -1.623  0.00  0.00    +0.520 C 
ATOM     20  N   LIG    1        3.084   1.166  -1.376  0.00  0.00    -0.730 N 
ATOM     21  H   LIG    1        2.623   1.641  -2.084  0.00  0.00    +0.400 HD
BRANCH  20  22
ATOM     22  C   LIG    1        2.495   1.096  -0.036  0.00  0.00    +0.320 C 
BRANCH  22  23
ATOM     23  C   LIG    1        1.183   1.836  -0.026  0.00  0.00    -0.100 A 
ATOM     24  C   LIG    1       -0.007   1.133  -0.015  0.00  0.00    +0.050 A 
ATOM     25  C   LIG    1       -1.212   1.813  -0.011  0.00  0.00    +0.010 A 
ATOM     26  C   LIG    1       -1.226   3.195  -0.007  0.00  0.00    +0.030 A 
ATOM     27  C   LIG    1       -0.036   3.899  -0.018  0.00  0.00    +0.030 A 
ATOM     28  C   LIG    1        1.169   3.220  -0.027  0.00  0.00    -0.020 A 
ATOM     29 CL   LIG    1        2.663   4.103  -0.040  0.00  0.00    -0.060 Cl
ENDBRANCH  22  23
ENDBRANCH  20  22
ENDBRANCH  17  19
ENDBRANCH   1  17
TORSDOF 6
