REMARK  Name = ZINCrD00000hQ7be.0
REMARK                            x       y       z     vdW  Elec       q    Type
REMARK                         _______ _______ _______ _____ _____    ______ ____
ROOT
ATOM      1  C   LIG    1        0.067  -0.004  -0.029  0.00  0.00    +0.140 A 
ATOM      2  C   LIG    1        1.264  -0.700  -0.107  0.00  0.00    -0.050 A 
ATOM      3  C   LIG    1        1.262  -2.081  -0.098  0.00  0.00    +0.050 A 
ATOM      4  C   LIG    1        0.061  -2.772  -0.024  0.00  0.00    +0.040 A 
ATOM      5  C   LIG    1       -1.137  -2.076   0.048  0.00  0.00    +0.060 A 
ATOM      6  C   LIG    1       -1.134  -0.695   0.045  0.00  0.00    +0.010 A 
ENDROOT
BRANCH   1   7
ATOM      7  O   LIG    1        0.069   1.356  -0.032  0.00  0.00    -0.310 OA
BRANCH   7   8
ATOM      8  C   LIG    1        1.342   2.002  -0.111  0.00  0.00    +0.220 C 
BRANCH   8  11
ATOM      9  N   LIG    1        0.570   4.125   1.107  0.00  0.00    -0.440 NA
ATOM     10  C   LIG    1       -0.291   4.048  -0.089  0.00  0.00    +0.180 C 
ATOM     11  C   LIG    1        1.145   3.519  -0.102  0.00  0.00    +0.090 C 
BRANCH   9  12
ATOM     12  C   LIG    1        0.204   3.095   2.088  0.00  0.00    +0.250 C 
BRANCH  12  16
ATOM     13  C   LIG    1        0.542   5.078   6.679  0.00  0.00    +0.360 C 
ATOM     14  N   LIG    1        0.004   4.614   5.397  0.00  0.00    -0.380 N 
ATOM     15  C   LIG    1        0.708   4.024   4.409  0.00  0.00    +0.240 A 
ATOM     16  C   LIG    1       -0.149   3.751   3.398  0.00  0.00    -0.230 A 
ATOM     17  C   LIG    1       -1.422   4.181   3.786  0.00  0.00    +0.240 A 
ATOM     18  N   LIG    1       -1.331   4.699   4.984  0.00  0.00    -0.300 NA
ENDBRANCH  12  16
ENDBRANCH   9  12
ENDBRANCH   8  11
ENDBRANCH   7   8
ENDBRANCH   1   7
BRANCH   4  19
ATOM     19  O   LIG    1        0.058  -4.132  -0.021  0.00  0.00    -0.250 OA
BRANCH  19  20
ATOM     20  C   LIG    1        0.584  -4.768   1.057  0.00  0.00    +0.150 A 
ATOM     21  C   LIG    1        0.991  -4.033   2.164  0.00  0.00    -0.060 A 
ATOM     22  C   LIG    1        1.520  -4.675   3.262  0.00  0.00    +0.110 A 
ATOM     23  C   LIG    1        1.657  -6.066   3.257  0.00  0.00    -0.060 A 
ATOM     24  C   LIG    1        1.251  -6.800   2.139  0.00  0.00    +0.110 A 
ATOM     25  C   LIG    1        0.718  -6.151   1.048  0.00  0.00    +0.000 A 
BRANCH  23  26
ATOM     26  C   LIG    1        2.211  -6.737   4.394  0.00  0.00    +0.250 C 
ATOM     27  N   LIG    1        2.651  -7.270   5.296  0.00  0.00    -0.420 NA
ENDBRANCH  23  26
ENDBRANCH  19  20
ENDBRANCH   4  19
TORSDOF 8
