REMARK  Name = ZINCtV00000L6kTC.0
REMARK                            x       y       z     vdW  Elec       q    Type
REMARK                         _______ _______ _______ _____ _____    ______ ____
ROOT
ATOM      1  C   LIG    1       -5.651   2.396   1.310  0.00  0.00    +0.520 C 
ATOM      2  O   LIG    1       -6.789   1.971   1.311  0.00  0.00    -0.500 OA
ENDROOT
BRANCH   1   5
ATOM      3  C   LIG    1       -2.143   1.057   1.284  0.00  0.00    -0.080 A 
ATOM      4  C   LIG    1       -3.203   1.940   1.302  0.00  0.00    +0.070 A 
ATOM      5  C   LIG    1       -4.512   1.456   1.297  0.00  0.00    -0.120 A 
ATOM      6  C   LIG    1       -4.740   0.078   1.286  0.00  0.00    +0.080 A 
ATOM      7  C   LIG    1       -3.671  -0.794   1.273  0.00  0.00    -0.080 A 
ATOM      8  C   LIG    1       -2.376  -0.307   1.272  0.00  0.00    +0.060 A 
BRANCH   3  10
ATOM      9  C   LIG    1       -0.005   1.090   0.029  0.00  0.00    +0.040 C 
ATOM     10  C   LIG    1       -0.729   1.578   1.285  0.00  0.00    -0.030 C 
ATOM     11  C   LIG    1       -0.750   3.108   1.299  0.00  0.00    +0.030 C 
ATOM     12  C   LIG    1        0.003   1.066   2.527  0.00  0.00    +0.040 C 
ENDBRANCH   3  10
BRANCH   7  13
ATOM     13  C   LIG    1       -3.915  -2.281   1.260  0.00  0.00    -0.030 C 
ATOM     14  C   LIG    1       -3.290  -2.890   0.003  0.00  0.00    +0.040 C 
ATOM     15  C   LIG    1       -5.421  -2.551   1.264  0.00  0.00    +0.030 C 
ATOM     16  C   LIG    1       -3.281  -2.913   2.501  0.00  0.00    +0.040 C 
ENDBRANCH   7  13
ENDBRANCH   1   5
BRANCH   1  17
ATOM     17  O   LIG    1       -5.428   3.724   1.322  0.00  0.00    -0.330 OA
BRANCH  17  18
ATOM     18  C   LIG    1       -6.595   4.589   1.334  0.00  0.00    +0.270 C 
BRANCH  18  19
ATOM     19  C   LIG    1       -6.153   6.029   1.346  0.00  0.00    +0.520 C 
ATOM     20  N   LIG    1       -7.071   7.016   1.358  0.00  0.00    -0.670 N 
ATOM     21  H   LIG    1       -8.014   6.801   1.292  0.00  0.00    +0.420 HD
ATOM     22  O   LIG    1       -4.971   6.301   1.343  0.00  0.00    -0.490 OA
BRANCH  20  23
ATOM     23  C   LIG    1       -6.663   8.350   1.466  0.00  0.00    +0.160 A 
ATOM     24  C   LIG    1       -5.483   8.768   0.865  0.00  0.00    +0.060 A 
ATOM     25  C   LIG    1       -5.082  10.085   0.973  0.00  0.00    +0.070 A 
ATOM     26  C   LIG    1       -5.854  10.989   1.679  0.00  0.00    -0.040 A 
ATOM     27  C   LIG    1       -7.032  10.576   2.280  0.00  0.00    -0.010 A 
ATOM     28 CL   LIG    1       -7.999  11.713   3.166  0.00  0.00    -0.040 Cl
ATOM     29 CL   LIG    1       -5.347  12.644   1.814  0.00  0.00    -0.040 Cl
ATOM     30  C   LIG    1       -7.440   9.260   2.171  0.00  0.00    +0.030 A 
ENDBRANCH  20  23
ENDBRANCH  18  19
ENDBRANCH  17  18
ENDBRANCH   1  17
TORSDOF 7
