REMARK  Name = ZINCpk000000oDjs.0
REMARK                            x       y       z     vdW  Elec       q    Type
REMARK                         _______ _______ _______ _____ _____    ______ ____
ROOT
ATOM      1  C   LIG    1       -2.343   1.817   0.531  0.00  0.00    +0.250 C 
ATOM      2  C   LIG    1       -0.873   1.486   0.892  0.00  0.00    +0.060 C 
ATOM      3  C   LIG    1       -0.326   0.979  -0.461  0.00  0.00    +0.260 C 
ATOM      4  N   LIG    1       -1.167   1.607  -1.486  0.00  0.00    -0.610 N 
ATOM      5  C   LIG    1       -2.309   2.082  -0.958  0.00  0.00    +0.500 C 
ATOM      6  O   LIG    1       -3.184   2.640  -1.585  0.00  0.00    -0.490 OA
ENDROOT
BRANCH   1   7
ATOM      7  N   LIG    1       -3.213   0.676   0.829  0.00  0.00    -1.110 NA
ATOM      8  H   LIG    1       -2.868  -0.228   0.760  0.00  0.00    +0.420 HD
BRANCH   7   9
ATOM      9  S   LIG    1       -4.784   0.931   1.284  0.00  0.00    +2.780 S 
ATOM     10  O   LIG    1       -5.338  -0.351   1.548  0.00  0.00    -0.970 OA
ATOM     11  O   LIG    1       -5.335   1.835   0.337  0.00  0.00    -0.950 OA
BRANCH   9  12
ATOM     12  N   LIG    1       -4.752   1.733   2.732  0.00  0.00    -1.000 NA
BRANCH  12  14
ATOM     13  C   LIG    1       -6.317   3.595   2.990  0.00  0.00    +0.020 C 
ATOM     14  C   LIG    1       -4.858   3.194   2.763  0.00  0.00    +0.280 C 
ENDBRANCH  12  14
BRANCH  12  15
ATOM     15  C   LIG    1       -4.616   0.983   3.983  0.00  0.00    +0.320 C 
BRANCH  15  16
ATOM     16  C   LIG    1       -3.148   0.973   4.416  0.00  0.00    -0.070 C 
ATOM     17  C   LIG    1       -2.435  -0.379   4.466  0.00  0.00    +0.020 C 
ATOM     18  C   LIG    1       -2.814   0.335   5.765  0.00  0.00    +0.030 C 
ENDBRANCH  15  16
ENDBRANCH  12  15
ENDBRANCH   9  12
ENDBRANCH   7   9
ENDBRANCH   1   7
BRANCH   4  19
ATOM     19  C   LIG    1       -0.809   1.704  -2.904  0.00  0.00    +0.360 C 
BRANCH  19  20
ATOM     20  C   LIG    1       -1.319   0.490  -3.635  0.00  0.00    -0.130 A 
ATOM     21  C   LIG    1       -0.520  -0.632  -3.754  0.00  0.00    +0.050 A 
ATOM     22  C   LIG    1       -0.988  -1.748  -4.419  0.00  0.00    -0.020 A 
ATOM     23  C   LIG    1       -2.255  -1.740  -4.978  0.00  0.00    +0.100 A 
ATOM     24  C   LIG    1       -3.053  -0.614  -4.864  0.00  0.00    -0.020 A 
ATOM     25  F   LIG    1       -2.712  -2.828  -5.635  0.00  0.00    -0.140 F 
ATOM     26  C   LIG    1       -2.585   0.499  -4.192  0.00  0.00    +0.070 A 
ENDBRANCH  19  20
ENDBRANCH   4  19
TORSDOF 8
