REMARK  Name = ZINCrH000004j7V3.0
REMARK                            x       y       z     vdW  Elec       q    Type
REMARK                         _______ _______ _______ _____ _____    ______ ____
ROOT
ATOM      1  C   LIG    1       -4.718   1.351   1.218  0.00  0.00    +0.570 C 
ATOM      2  N   LIG    1       -3.881   1.769   0.248  0.00  0.00    -0.600 N 
ATOM      3  C   LIG    1       -2.750   0.943  -0.185  0.00  0.00    +0.330 C 
ATOM      4  C   LIG    1       -1.502   1.781  -0.296  0.00  0.00    -0.100 A 
ATOM      5  C   LIG    1       -0.284   1.128  -0.416  0.00  0.00    +0.010 A 
ATOM      6  C   LIG    1        0.886   1.849  -0.543  0.00  0.00    +0.000 A 
ATOM      7  C   LIG    1        0.846   3.230  -0.545  0.00  0.00    +0.010 A 
ATOM      8  C   LIG    1       -0.364   3.882  -0.413  0.00  0.00    +0.010 A 
ATOM      9  C   LIG    1       -1.541   3.159  -0.283  0.00  0.00    -0.050 A 
ATOM     10  C   LIG    1       -2.831   3.918  -0.127  0.00  0.00    -0.060 C 
ATOM     11  C   LIG    1       -2.835   5.271  -0.851  0.00  0.00    +0.030 C 
ATOM     12  C   LIG    1       -3.570   5.835   0.377  0.00  0.00    +0.010 C 
ATOM     13  C   LIG    1       -2.920   4.702   1.190  0.00  0.00    +0.030 C 
ATOM     14  C   LIG    1       -4.071   3.072  -0.412  0.00  0.00    +0.330 C 
ATOM     15  O   LIG    1       -5.590   2.091   1.629  0.00  0.00    -0.510 OA
ENDROOT
BRANCH   1  21
ATOM     16  C   LIG    1       -4.487  -0.189   3.163  0.00  0.00    +0.020 A 
ATOM     17  C   LIG    1       -4.359  -1.461   3.682  0.00  0.00    +0.000 A 
ATOM     18  C   LIG    1       -4.309  -2.555   2.837  0.00  0.00    +0.150 A 
ATOM     19  C   LIG    1       -4.392  -2.382   1.466  0.00  0.00    -0.670 A 
ATOM     20  C   LIG    1       -4.525  -1.117   0.934  0.00  0.00    +0.160 A 
ATOM     21  C   LIG    1       -4.576  -0.009   1.781  0.00  0.00    -0.150 A 
BRANCH  19  22
ATOM     22  S   LIG    1       -4.327  -3.783   0.399  0.00  0.00    +2.500 S 
ATOM     23  O   LIG    1       -5.028  -3.368  -0.766  0.00  0.00    -0.930 OA
ATOM     24  O   LIG    1       -4.805  -4.856   1.198  0.00  0.00    -0.930 OA
ATOM     25  C   LIG    1       -2.562  -3.995   0.037  0.00  0.00    -0.250 C 
ENDBRANCH  19  22
BRANCH  16  27
ATOM     26  C   LIG    1       -5.992   1.337   4.410  0.00  0.00    +0.040 C 
ATOM     27  C   LIG    1       -4.535   1.002   4.085  0.00  0.00    +0.070 C 
ENDBRANCH  16  27
ENDBRANCH   1  21
TORSDOF 3
