REMARK  Name = ZINCpk00000y6vJc.0
REMARK                            x       y       z     vdW  Elec       q    Type
REMARK                         _______ _______ _______ _____ _____    ______ ____
ROOT
ATOM      1  N   LIG    1        5.572  -0.116  -1.831  0.00  0.00    -0.280 N 
ATOM      2  N   LIG    1        6.430  -0.699  -2.597  0.00  0.00    -0.250 NA
ATOM      3  C   LIG    1        7.226   0.170  -3.141  0.00  0.00    +0.000 A 
ATOM      4  C   LIG    1        6.844   1.443  -2.687  0.00  0.00    -0.150 A 
ATOM      5  C   LIG    1        7.546   2.706  -3.105  0.00  0.00    +0.100 C 
ATOM      6  C   LIG    1        8.890   2.300  -3.731  0.00  0.00    +0.150 C 
ATOM      7  O   LIG    1        8.688   1.247  -4.675  0.00  0.00    -0.370 OA
ATOM      8  C   LIG    1        9.507   3.508  -4.440  0.00  0.00    +0.060 C 
ATOM      9  C   LIG    1        8.375  -0.028  -4.098  0.00  0.00    +0.260 C 
ATOM     10  C   LIG    1        7.970  -1.011  -5.199  0.00  0.00    +0.070 C 
ATOM     11  C   LIG    1        5.780   1.240  -1.851  0.00  0.00    -0.030 A 
ENDROOT
BRANCH  11  12
ATOM     12  C   LIG    1        5.019   2.264  -1.118  0.00  0.00    +0.610 C 
ATOM     13  N   LIG    1        5.396   2.623   0.125  0.00  0.00    -0.620 N 
ATOM     14  C   LIG    1        4.723   3.724   0.832  0.00  0.00    +0.330 C 
ATOM     15  C   LIG    1        4.037   3.170   2.086  0.00  0.00    +0.320 C 
ATOM     16  N   LIG    1        4.959   2.275   2.784  0.00  0.00    -0.370 N 
ATOM     17  N   LIG    1        4.896   1.836   4.111  0.00  0.00    -0.310 NA
ATOM     18  C   LIG    1        5.922   1.041   4.291  0.00  0.00    +0.220 A 
ATOM     19  N   LIG    1        6.618   0.964   3.155  0.00  0.00    -0.520 NA
ATOM     20  C   LIG    1        6.262   0.329   5.575  0.00  0.00    +0.200 C 
ATOM     21  C   LIG    1        6.052   1.703   2.244  0.00  0.00    +0.260 A 
ATOM     22  C   LIG    1        6.496   1.924   0.816  0.00  0.00    +0.440 C 
ATOM     23  O   LIG    1        4.050   2.787  -1.634  0.00  0.00    -0.500 OA
ENDBRANCH  11  12
BRANCH   1  25
ATOM     24  C   LIG    1        3.304  -1.024  -1.945  0.00  0.00    +0.050 C 
ATOM     25  C   LIG    1        4.531  -0.798  -1.058  0.00  0.00    +0.320 C 
ENDBRANCH   1  25
TORSDOF 2
