REMARK  Name = ZINCpe000000TrOk.0
REMARK                            x       y       z     vdW  Elec       q    Type
REMARK                         _______ _______ _______ _____ _____    ______ ____
ROOT
ATOM      1  N   LIG    1       -2.679   8.886   0.103  0.00  0.00    -0.500 NA
ENDROOT
BRANCH   1   3
ATOM      2  C   LIG    1       -2.705   9.956   2.306  0.00  0.00    -0.020 C 
ATOM      3  C   LIG    1       -3.378   8.928   1.394  0.00  0.00    +0.230 C 
ENDBRANCH   1   3
BRANCH   1   4
ATOM      4  C   LIG    1       -2.709  10.200  -0.554  0.00  0.00    +0.220 C 
BRANCH   4   5
ATOM      5  C   LIG    1       -4.101  10.477  -1.059  0.00  0.00    +0.510 C 
ATOM      6  N   LIG    1       -4.398  11.678  -1.593  0.00  0.00    -0.730 N 
ATOM      7  H   LIG    1       -3.715  12.364  -1.653  0.00  0.00    +0.400 HD
ATOM      8  O   LIG    1       -4.955   9.619  -0.984  0.00  0.00    -0.500 OA
BRANCH   6   9
ATOM      9  C   LIG    1       -5.752  11.947  -2.084  0.00  0.00    +0.270 C 
ATOM     10  C   LIG    1       -6.634  12.441  -0.924  0.00  0.00    +0.060 C 
ATOM     11  C   LIG    1       -7.926  13.012  -1.560  0.00  0.00    -0.300 C 
ATOM     12  S   LIG    1       -7.279  13.955  -2.992  0.00  0.00    +2.400 S 
ATOM     13  O   LIG    1       -8.094  13.707  -4.130  0.00  0.00    -0.930 OA
ATOM     14  O   LIG    1       -7.010  15.292  -2.593  0.00  0.00    -0.930 OA
ATOM     15  C   LIG    1       -5.702  13.045  -3.165  0.00  0.00    -0.320 C 
ENDBRANCH   6   9
ENDBRANCH   4   5
ENDBRANCH   1   4
BRANCH   1  16
ATOM     16  C   LIG    1       -1.298   8.411   0.268  0.00  0.00    +0.220 C 
BRANCH  16  17
ATOM     17  C   LIG    1       -1.312   6.972   0.714  0.00  0.00    +0.510 C 
ATOM     18  N   LIG    1       -0.151   6.323   0.930  0.00  0.00    -0.680 N 
ATOM     19  H   LIG    1        0.691   6.801   0.870  0.00  0.00    +0.410 HD
ATOM     20  O   LIG    1       -2.368   6.399   0.880  0.00  0.00    -0.490 OA
BRANCH  18  21
ATOM     21  C   LIG    1       -0.160   4.958   1.241  0.00  0.00    +0.170 A 
ATOM     22  C   LIG    1       -1.129   4.127   0.695  0.00  0.00    +0.020 A 
ATOM     23  C   LIG    1       -1.136   2.780   1.003  0.00  0.00    +0.070 A 
ATOM     24  C   LIG    1       -0.177   2.260   1.854  0.00  0.00    -0.120 A 
ATOM     25  C   LIG    1        0.786   3.086   2.403  0.00  0.00    +0.070 A 
ATOM     26  I   LIG    1       -0.191   0.217   2.318  0.00  0.00    -0.040 I 
ATOM     27  C   LIG    1        0.801   4.432   2.095  0.00  0.00    -0.010 A 
ENDBRANCH  18  21
ENDBRANCH  16  17
ENDBRANCH   1  16
TORSDOF 7
