REMARK  Name = ZINCrg00000IZh3c.0
REMARK                            x       y       z     vdW  Elec       q    Type
REMARK                         _______ _______ _______ _____ _____    ______ ____
ROOT
ATOM      1  N   LIG    1       -2.997   2.962  -2.797  0.00  0.00    -0.510 NA
ATOM      2  C   LIG    1       -2.191   3.749  -1.854  0.00  0.00    +0.170 C 
ATOM      3  C   LIG    1       -0.810   3.102  -1.703  0.00  0.00    +0.300 C 
ATOM      4  N   LIG    1       -0.994   1.689  -1.337  0.00  0.00    -1.000 NA
ATOM      5  C   LIG    1       -1.894   0.868  -2.161  0.00  0.00    +0.300 C 
ATOM      6  C   LIG    1       -3.236   1.605  -2.290  0.00  0.00    +0.170 C 
ENDROOT
BRANCH   4   7
ATOM      7  S   LIG    1       -0.204   1.039  -0.035  0.00  0.00    +2.690 S 
ATOM      8  O   LIG    1        0.944   1.849   0.183  0.00  0.00    -0.960 OA
ATOM      9  O   LIG    1       -0.134  -0.361  -0.266  0.00  0.00    -0.960 OA
BRANCH   7  10
ATOM     10  C   LIG    1       -1.244   1.260   1.370  0.00  0.00    -0.680 A 
ATOM     11  C   LIG    1       -1.131   2.403   2.140  0.00  0.00    +0.130 A 
ATOM     12  C   LIG    1       -1.950   2.579   3.240  0.00  0.00    -0.010 A 
ATOM     13  C   LIG    1       -2.875   1.607   3.575  0.00  0.00    -0.010 A 
ATOM     14  C   LIG    1       -2.983   0.462   2.809  0.00  0.00    -0.010 A 
ATOM     15  C   LIG    1       -2.167   0.288   1.706  0.00  0.00    +0.130 A 
BRANCH  13  16
ATOM     16  C   LIG    1       -3.765   1.797   4.777  0.00  0.00    -0.040 C 
ATOM     17  C   LIG    1       -5.229   1.786   4.333  0.00  0.00    +0.040 C 
ATOM     18  C   LIG    1       -3.444   3.136   5.443  0.00  0.00    +0.030 C 
ATOM     19  C   LIG    1       -3.526   0.661   5.773  0.00  0.00    +0.040 C 
ENDBRANCH  13  16
ENDBRANCH   7  10
ENDBRANCH   4   7
BRANCH   1  20
ATOM     20  C   LIG    1       -4.263   3.642  -3.101  0.00  0.00    +0.250 C 
BRANCH  20  23
ATOM     21  N   LIG    1       -6.358   4.208  -1.914  0.00  0.00    -0.720 N 
ATOM     22  H   LIG    1       -6.723   4.503  -2.763  0.00  0.00    +0.400 HD
ATOM     23  C   LIG    1       -5.102   3.724  -1.851  0.00  0.00    +0.480 C 
ATOM     24  O   LIG    1       -4.646   3.355  -0.790  0.00  0.00    -0.530 OA
BRANCH  21  25
ATOM     25  C   LIG    1       -7.174   4.288  -0.699  0.00  0.00    +0.280 C 
BRANCH  25  26
ATOM     26  C   LIG    1       -8.547   4.868  -1.044  0.00  0.00    +0.180 C 
BRANCH  26  28
ATOM     27  C   LIG    1      -10.543   4.416  -2.291  0.00  0.00    +0.200 C 
ATOM     28  O   LIG    1       -9.242   3.966  -1.907  0.00  0.00    -0.390 OA
ENDBRANCH  26  28
ENDBRANCH  25  26
ENDBRANCH  21  25
ENDBRANCH  20  23
ENDBRANCH   1  20
TORSDOF 8
