REMARK  Name = ZINCrH000004jGO1.0
REMARK                            x       y       z     vdW  Elec       q    Type
REMARK                         _______ _______ _______ _____ _____    ______ ____
ROOT
ATOM      1  C   LIG    1       -3.104   0.299   1.661  0.00  0.00    -0.700 A 
ATOM      2  C   LIG    1       -3.371   0.044   2.994  0.00  0.00    +0.150 A 
ATOM      3  C   LIG    1       -3.971  -1.140   3.369  0.00  0.00    -0.030 A 
ATOM      4  C   LIG    1       -4.313  -2.088   2.406  0.00  0.00    +0.160 A 
ATOM      5  C   LIG    1       -4.046  -1.819   1.069  0.00  0.00    -0.160 A 
ATOM      6  C   LIG    1       -4.531  -2.999   0.249  0.00  0.00    +0.100 C 
ATOM      7  C   LIG    1       -5.452  -3.749   1.239  0.00  0.00    +0.210 C 
ATOM      8  N   LIG    1       -4.909  -3.346   2.554  0.00  0.00    -0.460 N 
ATOM      9  C   LIG    1       -3.448  -0.633   0.699  0.00  0.00    +0.160 A 
ENDROOT
BRANCH   1  10
ATOM     10  S   LIG    1       -2.335   1.812   1.189  0.00  0.00    +2.700 S 
ATOM     11  O   LIG    1       -2.686   2.034  -0.169  0.00  0.00    -0.960 OA
ATOM     12  O   LIG    1       -2.611   2.744   2.226  0.00  0.00    -0.950 OA
BRANCH  10  14
ATOM     13  C   LIG    1       -0.013   1.086   0.008  0.00  0.00    +0.300 C 
ATOM     14  N   LIG    1       -0.698   1.558   1.213  0.00  0.00    -1.010 NA
ATOM     15  C   LIG    1        0.063   1.806   2.440  0.00  0.00    +0.290 C 
ENDBRANCH  10  14
ENDBRANCH   1  10
BRANCH   8  16
ATOM     16  C   LIG    1       -5.968  -3.310   3.572  0.00  0.00    +0.270 C 
BRANCH  16  17
ATOM     17  C   LIG    1       -6.747  -4.600   3.533  0.00  0.00    -0.050 A 
ATOM     18  C   LIG    1       -7.946  -4.654   2.893  0.00  0.00    +0.050 A 
ATOM     19  C   LIG    1       -8.682  -5.838   2.845  0.00  0.00    -0.030 A 
ATOM     20  C   LIG    1       -8.220  -6.974   3.438  0.00  0.00    +0.060 A 
ATOM     21  C   LIG    1       -6.985  -6.953   4.107  0.00  0.00    -0.100 A 
ATOM     22  C   LIG    1       -6.471  -8.105   4.732  0.00  0.00    +0.090 A 
ATOM     23  C   LIG    1       -5.256  -8.015   5.350  0.00  0.00    -0.030 A 
ATOM     24  C   LIG    1       -4.571  -6.802   5.362  0.00  0.00    +0.300 A 
ATOM     25  N   LIG    1       -5.055  -5.730   4.783  0.00  0.00    -0.460 NA
ATOM     26 CL   LIG    1      -10.209  -5.864   2.018  0.00  0.00    -0.060 Cl
ATOM     27  C   LIG    1       -6.233  -5.753   4.153  0.00  0.00    +0.150 A 
ENDBRANCH  16  17
ENDBRANCH   8  16
TORSDOF 4
