REMARK  Name = ZINCqH0000050KR4.0
REMARK                            x       y       z     vdW  Elec       q    Type
REMARK                         _______ _______ _______ _____ _____    ______ ____
ROOT
ATOM      1  N   LIG    1        1.445  -2.824   1.140  0.00  0.00    -0.600 N 
ATOM      2  C   LIG    1        1.393  -2.145  -0.023  0.00  0.00    +0.570 C 
ATOM      3  O   LIG    1        1.419  -2.747  -1.080  0.00  0.00    -0.500 OA
ATOM      4  C   LIG    1        1.415  -2.099   2.413  0.00  0.00    +0.290 C 
ENDROOT
BRANCH   2   5
ATOM      5  C   LIG    1        1.305  -0.677  -0.015  0.00  0.00    -0.100 A 
ATOM      6  C   LIG    1        2.454   0.102  -0.022  0.00  0.00    +0.040 A 
ATOM      7  C   LIG    1        2.385   1.491  -0.014  0.00  0.00    -0.020 A 
ATOM      8  C   LIG    1        1.206   2.165   0.002  0.00  0.00    +0.140 A 
ATOM      9  C   LIG    1       -0.018   1.468   0.010  0.00  0.00    -0.220 A 
ATOM     10  C   LIG    1       -1.352   1.837   0.030  0.00  0.00    +0.310 A 
ATOM     11  N   LIG    1       -2.087   0.718   0.027  0.00  0.00    -0.420 N 
ATOM     12  H   LIG    1       -3.057   0.689   0.037  0.00  0.00    +0.450 HD
ATOM     13  N   LIG    1       -1.250  -0.404   0.013  0.00  0.00    -0.290 NA
ATOM     14 CL   LIG    1        4.007  -0.673  -0.042  0.00  0.00    -0.050 Cl
ATOM     15  C   LIG    1        0.002  -0.004   0.002  0.00  0.00    +0.130 A 
ENDBRANCH   2   5
BRANCH   1  16
ATOM     16  C   LIG    1        1.533  -4.286   1.132  0.00  0.00    +0.410 C 
BRANCH  16  20
ATOM     17  C   LIG    1        5.556  -5.448   3.653  0.00  0.00    +0.150 C 
ATOM     18  C   LIG    1        4.867  -5.248   2.327  0.00  0.00    +0.220 A 
ATOM     19  N   LIG    1        3.602  -4.884   2.272  0.00  0.00    -0.520 NA
ATOM     20  C   LIG    1        2.981  -4.703   1.115  0.00  0.00    +0.310 A 
ATOM     21  N   LIG    1        3.570  -4.875  -0.044  0.00  0.00    -0.480 NA
ATOM     22  C   LIG    1        4.857  -5.240  -0.098  0.00  0.00    +0.160 A 
ATOM     23  C   LIG    1        5.526  -5.430  -1.316  0.00  0.00    +0.040 A 
ATOM     24  C   LIG    1        6.835  -5.807  -1.312  0.00  0.00    +0.060 A 
ATOM     25  C   LIG    1        7.523  -6.008  -0.118  0.00  0.00    +0.010 A 
ATOM     26  C   LIG    1        6.906  -5.833   1.084  0.00  0.00    +0.060 A 
ATOM     27  C   LIG    1        5.559  -5.444   1.119  0.00  0.00    -0.160 A 
ENDBRANCH  16  20
ENDBRANCH   1  16
TORSDOF 3
