REMARK  Name = ZINCqH0000050KR4.1
REMARK                            x       y       z     vdW  Elec       q    Type
REMARK                         _______ _______ _______ _____ _____    ______ ____
ROOT
ATOM      1  N   LIG    1        3.050   4.247   1.162  0.00  0.00    -0.600 N 
ATOM      2  C   LIG    1        2.457   3.914  -0.001  0.00  0.00    +0.560 C 
ATOM      3  O   LIG    1        2.972   4.225  -1.058  0.00  0.00    -0.490 OA
ATOM      4  C   LIG    1        2.430   3.872   2.435  0.00  0.00    +0.300 C 
ENDROOT
BRANCH   2   5
ATOM      5  C   LIG    1        1.183   3.172   0.007  0.00  0.00    -0.140 A 
ATOM      6  C   LIG    1       -0.040   3.865   0.022  0.00  0.00    +0.170 A 
ATOM      7  N   LIG    1       -0.375   5.189   0.032  0.00  0.00    -0.500 N 
ATOM      8  H   LIG    1        0.254   5.927   0.031  0.00  0.00    +0.440 HD
ATOM      9  N   LIG    1       -1.768   5.310   0.046  0.00  0.00    -0.240 NA
ATOM     10  C   LIG    1       -2.319   4.130   0.045  0.00  0.00    +0.300 A 
ATOM     11  C   LIG    1       -1.246   3.139   0.030  0.00  0.00    -0.180 A 
ATOM     12  C   LIG    1       -1.218   1.740   0.017  0.00  0.00    +0.150 A 
ATOM     13  C   LIG    1       -0.013   1.076   0.008  0.00  0.00    +0.000 A 
ATOM     14  C   LIG    1        1.183   1.778   0.000  0.00  0.00    +0.050 A 
ATOM     15 CL   LIG    1        2.689   0.916  -0.019  0.00  0.00    -0.040 Cl
ENDBRANCH   2   5
BRANCH   1  16
ATOM     16  C   LIG    1        4.316   4.984   1.153  0.00  0.00    +0.410 C 
BRANCH  16  20
ATOM     17  C   LIG    1        3.565   9.057   3.749  0.00  0.00    +0.150 C 
ATOM     18  C   LIG    1        3.684   8.374   2.411  0.00  0.00    +0.220 A 
ATOM     19  N   LIG    1        3.928   7.082   2.332  0.00  0.00    -0.520 NA
ATOM     20  C   LIG    1        4.035   6.465   1.163  0.00  0.00    +0.300 A 
ATOM     21  N   LIG    1        3.912   7.088   0.016  0.00  0.00    -0.480 NA
ATOM     22  C   LIG    1        3.657   8.402  -0.014  0.00  0.00    +0.160 A 
ATOM     23  C   LIG    1        3.513   9.104  -1.219  0.00  0.00    +0.040 A 
ATOM     24  C   LIG    1        3.260  10.443  -1.191  0.00  0.00    +0.060 A 
ATOM     25  C   LIG    1        3.141  11.128   0.016  0.00  0.00    +0.010 A 
ATOM     26  C   LIG    1        3.274  10.478   1.206  0.00  0.00    +0.060 A 
ATOM     27  C   LIG    1        3.535   9.100   1.215  0.00  0.00    -0.160 A 
ENDBRANCH  16  20
ENDBRANCH   1  16
TORSDOF 3
