REMARK  Name = ZINCpe00000VVGU6.0
REMARK                            x       y       z     vdW  Elec       q    Type
REMARK                         _______ _______ _______ _____ _____    ______ ____
ROOT
ATOM      1  C   LIG    1       -4.034  -2.502  -0.947  0.00  0.00    -0.660 A 
ATOM      2  C   LIG    1       -4.978  -1.546  -0.616  0.00  0.00    +0.130 A 
ATOM      3  C   LIG    1       -5.929  -1.163  -1.539  0.00  0.00    +0.070 A 
ATOM      4  C   LIG    1       -5.945  -1.751  -2.805  0.00  0.00    -0.070 A 
ATOM      5  C   LIG    1       -4.993  -2.718  -3.131  0.00  0.00    +0.020 A 
ATOM      6  C   LIG    1       -4.044  -3.088  -2.201  0.00  0.00    +0.130 A 
ENDROOT
BRANCH   4   7
ATOM      7  C   LIG    1       -6.965  -1.349  -3.797  0.00  0.00    +0.570 C 
ATOM      8  N   LIG    1       -6.702  -1.454  -5.114  0.00  0.00    -0.610 N 
ATOM      9  C   LIG    1       -7.593  -1.026  -6.203  0.00  0.00    +0.270 C 
ATOM     10  C   LIG    1       -6.863  -1.313  -7.532  0.00  0.00    +0.020 C 
ATOM     11  C   LIG    1       -5.372  -1.372  -7.106  0.00  0.00    -0.010 C 
ATOM     12  C   LIG    1       -7.095  -0.185  -8.539  0.00  0.00    +0.060 C 
ATOM     13  C   LIG    1       -5.475  -2.020  -5.703  0.00  0.00    +0.270 C 
ATOM     14  O   LIG    1       -8.042  -0.925  -3.424  0.00  0.00    -0.520 OA
BRANCH  11  15
ATOM     15  C   LIG    1       -4.576  -2.241  -8.046  0.00  0.00    +0.530 C 
ATOM     16  O   LIG    1       -5.096  -2.687  -9.047  0.00  0.00    -0.530 OA
ATOM     17  N   LIG    1       -3.287  -2.523  -7.774  0.00  0.00    -0.850 N 
ATOM     18  H   LIG    1       -2.775  -3.083  -8.378  0.00  0.00    +0.410 HD
ATOM     19  H   LIG    1       -2.871  -2.167  -6.973  0.00  0.00    +0.400 HD
ENDBRANCH  11  15
ENDBRANCH   4   7
BRANCH   1  20
ATOM     20  S   LIG    1       -2.818  -2.981   0.235  0.00  0.00    +2.690 S 
ATOM     21  O   LIG    1       -3.359  -2.674   1.513  0.00  0.00    -0.950 OA
ATOM     22  O   LIG    1       -2.390  -4.284  -0.135  0.00  0.00    -0.950 OA
BRANCH  20  23
ATOM     23  N   LIG    1       -1.513  -1.983   0.028  0.00  0.00    -1.110 NA
ATOM     24  H   LIG    1       -0.666  -2.349  -0.272  0.00  0.00    +0.420 HD
BRANCH  23  25
ATOM     25  C   LIG    1       -1.638  -0.549   0.297  0.00  0.00    +0.270 C 
BRANCH  25  27
ATOM     26  C   LIG    1       -0.373   1.591   0.552  0.00  0.00    +0.030 C 
ATOM     27  C   LIG    1       -0.244   0.075   0.396  0.00  0.00    -0.020 C 
ATOM     28  C   LIG    1        0.488  -0.503   1.609  0.00  0.00    +0.030 C 
ENDBRANCH  25  27
ENDBRANCH  23  25
ENDBRANCH  20  23
ENDBRANCH   1  20
TORSDOF 6
