REMARK  Name = ZINCnE000001NhJi.1
REMARK                            x       y       z     vdW  Elec       q    Type
REMARK                         _______ _______ _______ _____ _____    ______ ____
ROOT
ATOM      1  C   LIG    1       -3.367   5.178  -3.596  0.00  0.00    +0.330 A 
ATOM      2  N   LIG    1       -3.885   4.010  -3.380  0.00  0.00    -0.560 NA
ATOM      3  C   LIG    1       -3.671   3.472  -2.194  0.00  0.00    +0.240 A 
ATOM      4  C   LIG    1       -2.947   4.226  -1.365  0.00  0.00    -0.330 A 
ATOM      5  S   LIG    1       -2.522   5.713  -2.210  0.00  0.00    +0.050 S 
ENDROOT
BRANCH   1   7
ATOM      6  C   LIG    1       -4.174   5.375  -5.817  0.00  0.00    +0.480 C 
ATOM      7  N   LIG    1       -3.482   5.893  -4.783  0.00  0.00    -0.680 NA
ATOM      8  O   LIG    1       -4.697   4.286  -5.712  0.00  0.00    -0.560 OA
BRANCH   6  10
ATOM      9  C   LIG    1       -3.074   5.882  -7.981  0.00  0.00    +0.080 C 
ATOM     10  C   LIG    1       -4.299   6.150  -7.104  0.00  0.00    -0.430 C 
BRANCH  10  11
ATOM     11  S   LIG    1       -5.797   5.626  -7.982  0.00  0.00    +2.440 S 
ATOM     12  O   LIG    1       -6.930   6.100  -7.267  0.00  0.00    -0.940 OA
ATOM     13  O   LIG    1       -5.691   4.239  -8.272  0.00  0.00    -0.920 OA
ATOM     14  C   LIG    1       -5.664   6.553  -9.536  0.00  0.00    -0.300 C 
ENDBRANCH  10  11
ENDBRANCH   6  10
ENDBRANCH   1   7
BRANCH   4  15
ATOM     15  C   LIG    1       -2.555   3.867   0.045  0.00  0.00    +0.180 C 
BRANCH  15  16
ATOM     16  C   LIG    1       -1.240   3.132   0.030  0.00  0.00    -0.040 A 
ATOM     17  C   LIG    1       -1.220   1.750   0.017  0.00  0.00    +0.040 A 
ATOM     18  C   LIG    1       -0.013   1.076   0.008  0.00  0.00    +0.040 A 
ATOM     19  C   LIG    1        1.175   1.783   0.000  0.00  0.00    +0.030 A 
ATOM     20  C   LIG    1        1.157   3.166   0.008  0.00  0.00    -0.030 A 
ATOM     21 CL   LIG    1        2.648   4.054  -0.003  0.00  0.00    -0.060 Cl
ATOM     22  C   LIG    1       -0.052   3.841   0.022  0.00  0.00    -0.030 A 
ATOM     23 CL   LIG    1       -0.076   5.577   0.031  0.00  0.00    -0.040 Cl
ENDBRANCH  15  16
ENDBRANCH   4  15
TORSDOF 5
