REMARK  Name = ZINCb80000003Wu6.0
REMARK                            x       y       z     vdW  Elec       q    Type
REMARK                         _______ _______ _______ _____ _____    ______ ____
ROOT
ATOM      1  O   LIG    1       -5.213   3.301   1.974  0.00  0.00    -0.440 OA
ATOM      2  C   LIG    1       -4.344   2.622   1.483  0.00  0.00    +0.380 C 
ATOM      3  C   LIG    1       -4.508   1.224   0.911  0.00  0.00    +0.020 C 
ATOM      4  C   LIG    1       -3.089   0.602   0.990  0.00  0.00    +0.070 C 
ATOM      5  C   LIG    1       -2.187   1.807   0.677  0.00  0.00    -0.100 C 
ATOM      6  C   LIG    1       -0.775   1.604   1.251  0.00  0.00    +0.070 C 
ATOM      7  C   LIG    1       -0.013   1.086   0.008  0.00  0.00    +0.260 C 
ATOM      8  N   LIG    1       -0.759   1.590  -1.152  0.00  0.00    -0.730 N 
ATOM      9  H   LIG    1       -0.406   1.630  -2.055  0.00  0.00    +0.410 HD
ATOM     10  C   LIG    1       -1.998   1.990  -0.800  0.00  0.00    +0.530 C 
ATOM     11  O   LIG    1       -2.832   2.431  -1.562  0.00  0.00    -0.520 OA
ATOM     12  C   LIG    1       -2.885   3.007   1.322  0.00  0.00    +0.050 C 
ENDROOT
TORSDOF 0
