REMARK  Name = ZINCvU00000004Xr.0
REMARK                            x       y       z     vdW  Elec       q    Type
REMARK                         _______ _______ _______ _____ _____    ______ ____
ROOT
ATOM      1  C   LIG    1        3.150   0.009  -0.027  0.00  0.00    +0.120 C 
ENDROOT
BRANCH   1   2
ATOM      2  C   LIG    1        2.600   1.412  -0.015  0.00  0.00    -0.160 A 
ATOM      3  C   LIG    1        3.312   2.549  -0.016  0.00  0.00    +0.230 A 
ATOM      4  N   LIG    1        2.470   3.628  -0.002  0.00  0.00    -0.590 N 
ATOM      5  H   LIG    1        2.753   4.556  -0.001  0.00  0.00    +0.420 HD
ATOM      6  C   LIG    1        1.161   3.199   0.008  0.00  0.00    +0.100 A 
ATOM      7  C   LIG    1       -0.062   3.860   0.022  0.00  0.00    -0.010 A 
ATOM      8  C   LIG    1       -1.233   3.133   0.030  0.00  0.00    +0.020 A 
ATOM      9  C   LIG    1       -1.204   1.745   0.017  0.00  0.00    -0.020 A 
ATOM     10  C   LIG    1       -0.013   1.076   0.008  0.00  0.00    +0.050 A 
ATOM     11  C   LIG    1        1.185   1.793   0.000  0.00  0.00    -0.100 A 
ENDBRANCH   1   2
BRANCH   1  15
ATOM     12  C   LIG    1        5.514  -0.563  -3.542  0.00  0.00    +0.210 A 
ATOM     13  C   LIG    1        4.400  -1.362  -3.314  0.00  0.00    -0.070 A 
ATOM     14  C   LIG    1        3.639  -1.174  -2.177  0.00  0.00    +0.060 A 
ATOM     15  C   LIG    1        3.984  -0.193  -1.266  0.00  0.00    -0.130 A 
ATOM     16  C   LIG    1        5.088   0.608  -1.493  0.00  0.00    +0.060 A 
ATOM     17  C   LIG    1        5.857   0.422  -2.625  0.00  0.00    -0.070 A 
BRANCH  12  19
ATOM     18  C   LIG    1        5.921  -1.789  -5.657  0.00  0.00    +0.270 C 
ATOM     19  N   LIG    1        6.286  -0.750  -4.691  0.00  0.00    -0.640 N 
ATOM     20  C   LIG    1        7.460   0.093  -4.929  0.00  0.00    +0.280 C 
ENDBRANCH  12  19
ENDBRANCH   1  15
BRANCH   1  21
ATOM     21  C   LIG    1        4.020  -0.208   1.213  0.00  0.00    +0.270 C 
BRANCH  21  22
ATOM     22  N   LIG    1        3.185  -0.130   2.414  0.00  0.00    -0.730 N 
ATOM     23  H   LIG    1        2.233   0.038   2.334  0.00  0.00    +0.400 HD
ATOM     24  C   LIG    1        3.740  -0.292   3.632  0.00  0.00    +0.510 C 
ATOM     25  O   LIG    1        4.930  -0.503   3.733  0.00  0.00    -0.540 OA
BRANCH  24  26
ATOM     26  C   LIG    1        2.881  -0.212   4.868  0.00  0.00    +0.050 C 
BRANCH  26  27
ATOM     27  C   LIG    1        3.750  -0.429   6.108  0.00  0.00    +0.100 C 
BRANCH  27  28
ATOM     28  C   LIG    1        2.892  -0.348   7.344  0.00  0.00    -0.080 A 
ATOM     29  C   LIG    1        2.705   0.866   7.978  0.00  0.00    +0.000 A 
ATOM     30  C   LIG    1        1.914   0.940   9.109  0.00  0.00    +0.000 A 
ATOM     31  C   LIG    1        1.317  -0.201   9.612  0.00  0.00    +0.000 A 
ATOM     32  C   LIG    1        1.508  -1.416   8.980  0.00  0.00    +0.000 A 
ATOM     33  C   LIG    1        2.295  -1.490   7.846  0.00  0.00    +0.000 A 
ENDBRANCH  27  28
ENDBRANCH  26  27
ENDBRANCH  24  26
ENDBRANCH  21  22
ENDBRANCH   1  21
TORSDOF 8
