REMARK  Name = ZINCtV00000L6kKw.0
REMARK                            x       y       z     vdW  Elec       q    Type
REMARK                         _______ _______ _______ _____ _____    ______ ____
ROOT
ATOM      1  C   LIG    1        2.880   0.711   0.506  0.00  0.00    +0.160 A 
ATOM      2  N   LIG    1        2.456  -0.500   0.218  0.00  0.00    -0.290 NA
ATOM      3  N   LIG    1        1.229  -0.458  -0.164  0.00  0.00    -0.230 NA
ATOM      4  C   LIG    1        0.796   0.781  -0.144  0.00  0.00    +0.210 A 
ATOM      5  N   LIG    1        1.840   1.567   0.286  0.00  0.00    -0.450 N 
ENDROOT
BRANCH   4   6
ATOM      6  C   LIG    1       -0.557   1.245  -0.518  0.00  0.00    +0.010 A 
ATOM      7  C   LIG    1       -0.837   2.610  -0.585  0.00  0.00    +0.020 A 
ATOM      8  C   LIG    1       -2.100   3.037  -0.940  0.00  0.00    +0.040 A 
ATOM      9  C   LIG    1       -3.092   2.114  -1.218  0.00  0.00    +0.040 A 
ATOM     10  C   LIG    1       -2.824   0.758  -1.149  0.00  0.00    +0.050 A 
ATOM     11  C   LIG    1       -1.563   0.318  -0.801  0.00  0.00    -0.060 A 
ATOM     12 BR   LIG    1       -1.198  -1.535  -0.706  0.00  0.00    -0.000 Br
ENDBRANCH   4   6
BRANCH   1  13
ATOM     13  S   LIG    1        4.492   1.146   1.070  0.00  0.00    +0.000 S 
BRANCH  13  14
ATOM     14  C   LIG    1        5.265  -0.490   1.106  0.00  0.00    +0.170 C 
BRANCH  14  18
ATOM     15  C   LIG    1        9.312  -0.124   2.430  0.00  0.00    +0.140 A 
ATOM     16  C   LIG    1        8.295  -0.329   3.351  0.00  0.00    -0.010 A 
ATOM     17  C   LIG    1        6.988  -0.446   2.921  0.00  0.00    +0.070 A 
ATOM     18  C   LIG    1        6.692  -0.361   1.573  0.00  0.00    -0.120 A 
ATOM     19  C   LIG    1        7.704  -0.163   0.652  0.00  0.00    +0.070 A 
ATOM     20  C   LIG    1        9.013  -0.039   1.078  0.00  0.00    -0.080 A 
BRANCH  15  22
ATOM     21  C   LIG    1       11.594   0.200   1.846  0.00  0.00    +0.250 C 
ATOM     22  O   LIG    1       10.599  -0.009   2.851  0.00  0.00    -0.320 OA
ENDBRANCH  15  22
ENDBRANCH  14  18
ENDBRANCH  13  14
ENDBRANCH   1  13
BRANCH   5  23
ATOM     23  C   LIG    1        1.836   3.021   0.469  0.00  0.00    +0.360 C 
BRANCH  23  24
ATOM     24  C   LIG    1        2.186   3.692  -0.834  0.00  0.00    -0.120 A 
ATOM     25  C   LIG    1        3.424   3.477  -1.412  0.00  0.00    +0.030 A 
ATOM     26  C   LIG    1        3.743   4.089  -2.610  0.00  0.00    +0.010 A 
ATOM     27  C   LIG    1        2.829   4.924  -3.224  0.00  0.00    +0.020 A 
ATOM     28  C   LIG    1        1.593   5.144  -2.644  0.00  0.00    +0.010 A 
ATOM     29  C   LIG    1        1.272   4.527  -1.449  0.00  0.00    +0.020 A 
ENDBRANCH  23  24
ENDBRANCH   5  23
TORSDOF 7
