REMARK  Name = ZINCtV00000L6kkw.1
REMARK                            x       y       z     vdW  Elec       q    Type
REMARK                         _______ _______ _______ _____ _____    ______ ____
ROOT
ATOM      1  C   LIG    1        3.280  -1.326  -4.407  0.00  0.00    +0.130 C 
ATOM      2  C   LIG    1        3.315  -0.194  -3.413  0.00  0.00    -0.230 A 
ATOM      3  C   LIG    1        2.804  -0.237  -2.182  0.00  0.00    -0.080 A 
ATOM      4  C   LIG    1        2.954   0.925  -1.445  0.00  0.00    -0.140 A 
ATOM      5  C   LIG    1        3.586   1.919  -2.087  0.00  0.00    +0.070 A 
ATOM      6  C   LIG    1        2.114  -1.460  -1.635  0.00  0.00    +0.100 C 
ATOM      7  S   LIG    1        4.036   1.384  -3.701  0.00  0.00    +0.210 S 
ENDROOT
BRANCH   5   8
ATOM      8  N   LIG    1        3.850   3.183  -1.554  0.00  0.00    -0.610 N 
ATOM      9  H   LIG    1        3.651   3.368  -0.623  0.00  0.00    +0.430 HD
ATOM     10  C   LIG    1        4.380   4.145  -2.334  0.00  0.00    +0.590 C 
ATOM     11  O   LIG    1        4.630   3.913  -3.503  0.00  0.00    -0.490 OA
BRANCH  10  12
ATOM     12  C   LIG    1        4.657   5.472  -1.775  0.00  0.00    -0.090 A 
ATOM     13  C   LIG    1        5.195   6.531  -2.449  0.00  0.00    +0.050 A 
ATOM     14  C   LIG    1        5.281   7.591  -1.533  0.00  0.00    -0.060 A 
ATOM     15  C   LIG    1        4.805   7.136  -0.353  0.00  0.00    +0.210 A 
ATOM     16  O   LIG    1        4.430   5.859  -0.503  0.00  0.00    -0.160 OA
ENDBRANCH  10  12
ENDBRANCH   5   8
BRANCH   4  17
ATOM     17  C   LIG    1        2.442   1.065  -0.035  0.00  0.00    +0.260 C 
BRANCH  17  18
ATOM     18  C   LIG    1        1.164   1.865  -0.041  0.00  0.00    -0.070 A 
ATOM     19  C   LIG    1       -0.056   1.217  -0.075  0.00  0.00    +0.030 A 
ATOM     20  C   LIG    1       -1.228   1.950  -0.086  0.00  0.00    +0.020 A 
ATOM     21  C   LIG    1       -1.179   3.333  -0.054  0.00  0.00    -0.030 A 
ATOM     22  C   LIG    1        0.043   3.980  -0.021  0.00  0.00    +0.020 A 
ATOM     23 CL   LIG    1       -2.650   4.254  -0.062  0.00  0.00    -0.070 Cl
ATOM     24  C   LIG    1        1.214   3.246  -0.015  0.00  0.00    +0.040 A 
ENDBRANCH  17  18
BRANCH  17  25
ATOM     25  N   LIG    1        3.447   1.754   0.785  0.00  0.00    -0.540 NA
ATOM     26  C   LIG    1        4.737   1.055   0.734  0.00  0.00    +0.170 C 
ATOM     27  C   LIG    1        5.793   1.875   1.478  0.00  0.00    +0.020 C 
ATOM     28  C   LIG    1        5.353   2.068   2.932  0.00  0.00    +0.000 C 
ATOM     29  C   LIG    1        3.985   2.755   2.955  0.00  0.00    +0.020 C 
ATOM     30  C   LIG    1        2.981   1.909   2.169  0.00  0.00    +0.170 C 
ENDBRANCH  17  25
ENDBRANCH   4  17
TORSDOF 5
