REMARK  Name = ZINCvU0000000F55.0
REMARK                            x       y       z     vdW  Elec       q    Type
REMARK                         _______ _______ _______ _____ _____    ______ ____
ROOT
ATOM      1  C   LIG    1        2.123   7.447  -0.973  0.00  0.00    +0.160 C 
ENDROOT
BRANCH   1   2
ATOM      2  C   LIG    1        2.115   6.856  -2.359  0.00  0.00    -0.080 A 
ATOM      3  C   LIG    1        2.315   5.499  -2.534  0.00  0.00    +0.050 A 
ATOM      4  C   LIG    1        2.304   4.957  -3.805  0.00  0.00    +0.000 A 
ATOM      5  C   LIG    1        2.101   5.772  -4.903  0.00  0.00    +0.010 A 
ATOM      6  C   LIG    1        1.907   7.130  -4.729  0.00  0.00    +0.000 A 
ATOM      7  C   LIG    1        1.914   7.672  -3.457  0.00  0.00    +0.010 A 
ENDBRANCH   1   2
BRANCH   1   8
ATOM      8  N   LIG    1        1.293   6.622  -0.085  0.00  0.00    -0.510 NA
ATOM      9  C   LIG    1       -0.059   6.455  -0.632  0.00  0.00    +0.200 C 
BRANCH   8  10
ATOM     10  C   LIG    1        1.246   7.190   1.269  0.00  0.00    +0.230 C 
BRANCH  10  14
ATOM     11  C   LIG    1       -0.584   4.385   3.928  0.00  0.00    +0.100 A 
ATOM     12  C   LIG    1        0.787   4.365   3.732  0.00  0.00    -0.030 A 
ATOM     13  C   LIG    1        1.376   5.273   2.872  0.00  0.00    +0.040 A 
ATOM     14  C   LIG    1        0.599   6.203   2.206  0.00  0.00    -0.070 A 
ATOM     15  C   LIG    1       -0.771   6.225   2.393  0.00  0.00    -0.040 A 
ATOM     16  C   LIG    1       -1.366   5.321   3.257  0.00  0.00    +0.100 A 
BRANCH  11  18
ATOM     17  C   LIG    1       -0.301   2.560   5.427  0.00  0.00    +0.240 C 
ATOM     18  O   LIG    1       -1.165   3.491   4.773  0.00  0.00    -0.310 OA
ENDBRANCH  11  18
BRANCH  16  19
ATOM     19  O   LIG    1       -2.713   5.345   3.446  0.00  0.00    -0.310 OA
ATOM     20  C   LIG    1       -3.452   6.333   2.725  0.00  0.00    +0.230 C 
ENDBRANCH  16  19
ENDBRANCH  10  14
ENDBRANCH   8  10
ENDBRANCH   1   8
BRANCH   1  21
ATOM     21  C   LIG    1        3.536   7.483  -0.450  0.00  0.00    +0.430 C 
ATOM     22  O   LIG    1        3.938   6.596   0.276  0.00  0.00    -0.440 OA
BRANCH  21  23
ATOM     23  C   LIG    1        4.396   8.551  -0.806  0.00  0.00    -0.270 A 
ATOM     24  C   LIG    1        4.094   9.622  -1.621  0.00  0.00    +0.320 A 
ATOM     25  N   LIG    1        5.165  10.431  -1.720  0.00  0.00    -0.570 N 
ATOM     26  H   LIG    1        5.191  11.250  -2.239  0.00  0.00    +0.420 HD
ATOM     27  C   LIG    1        6.224   9.931  -0.990  0.00  0.00    +0.070 A 
ATOM     28  C   LIG    1        7.524  10.378  -0.775  0.00  0.00    +0.000 A 
ATOM     29  C   LIG    1        8.379   9.649   0.024  0.00  0.00    +0.030 A 
ATOM     30  C   LIG    1        7.956   8.470   0.620  0.00  0.00    +0.000 A 
ATOM     31  C   LIG    1        6.672   8.012   0.419  0.00  0.00    +0.060 A 
ATOM     32  C   LIG    1        5.799   8.738  -0.385  0.00  0.00    -0.060 A 
ENDBRANCH  21  23
ENDBRANCH   1  21
TORSDOF 8
