REMARK  Name = ZINCrH000004q8Hp.0
REMARK                            x       y       z     vdW  Elec       q    Type
REMARK                         _______ _______ _______ _____ _____    ______ ____
ROOT
ATOM      1  C   LIG    1        4.413   5.981  -2.225  0.00  0.00    +0.600 C 
ATOM      2  N   LIG    1        3.717   5.536  -1.160  0.00  0.00    -0.710 N 
ATOM      3  H   LIG    1        3.977   5.804  -0.265  0.00  0.00    +0.420 HD
ATOM      4  O   LIG    1        4.087   5.645  -3.348  0.00  0.00    -0.510 OA
ENDROOT
BRANCH   1   7
ATOM      5  C   LIG    1        6.186   7.135  -4.504  0.00  0.00    +0.140 C 
ATOM      6  C   LIG    1        6.340   7.377  -3.025  0.00  0.00    -0.070 A 
ATOM      7  C   LIG    1        5.565   6.873  -2.030  0.00  0.00    -0.030 A 
ATOM      8  O   LIG    1        6.015   7.309  -0.835  0.00  0.00    -0.180 OA
ATOM      9  C   LIG    1        7.087   8.112  -0.990  0.00  0.00    +0.070 A 
ATOM     10  C   LIG    1        7.897   8.799  -0.094  0.00  0.00    +0.070 A 
ATOM     11  C   LIG    1        8.947   9.561  -0.558  0.00  0.00    +0.040 A 
ATOM     12  C   LIG    1        9.209   9.654  -1.920  0.00  0.00    +0.080 A 
ATOM     13  C   LIG    1        8.419   8.982  -2.827  0.00  0.00    +0.060 A 
ATOM     14  F   LIG    1       10.243  10.407  -2.357  0.00  0.00    -0.130 F 
ATOM     15  C   LIG    1        7.352   8.205  -2.369  0.00  0.00    -0.120 A 
ENDBRANCH   1   7
BRANCH   2  16
ATOM     16  C   LIG    1        2.569   4.647  -1.355  0.00  0.00    +0.290 C 
BRANCH  16  17
ATOM     17  C   LIG    1        2.035   4.198   0.007  0.00  0.00    +0.260 C 
BRANCH  17  18
ATOM     18  N   LIG    1        1.729   5.378   0.827  0.00  0.00    -0.520 NA
ATOM     19  C   LIG    1        0.980   5.001   2.034  0.00  0.00    +0.160 C 
ATOM     20  C   LIG    1        0.735   6.249   2.887  0.00  0.00    +0.220 C 
ATOM     21  O   LIG    1        0.045   7.226   2.104  0.00  0.00    -0.380 OA
ATOM     22  C   LIG    1        0.746   7.617   0.921  0.00  0.00    +0.230 C 
ATOM     23  C   LIG    1        0.991   6.383   0.049  0.00  0.00    +0.140 C 
ENDBRANCH  17  18
BRANCH  17  24
ATOM     24  C   LIG    1        0.782   3.384  -0.189  0.00  0.00    -0.220 A 
ATOM     25  C   LIG    1        0.694   2.061  -0.041  0.00  0.00    +0.030 A 
ATOM     26  C   LIG    1       -0.564   1.531  -0.273  0.00  0.00    +0.000 A 
ATOM     27  C   LIG    1       -1.495   2.422  -0.614  0.00  0.00    -0.060 A 
ATOM     28  S   LIG    1       -0.788   4.032  -0.645  0.00  0.00    +0.120 S 
ENDBRANCH  17  24
ENDBRANCH  16  17
ENDBRANCH   2  16
TORSDOF 5
