REMARK  Name = ZINCqH0000004ttJ.0
REMARK                            x       y       z     vdW  Elec       q    Type
REMARK                         _______ _______ _______ _____ _____    ______ ____
ROOT
ATOM      1  C   LIG    1       -2.649   0.428   1.370  0.00  0.00    +0.360 C 
ENDROOT
BRANCH   1   4
ATOM      2  C   LIG    1       -3.591   3.113   0.369  0.00  0.00    +0.130 C 
ATOM      3  C   LIG    1       -3.566   1.790  -0.408  0.00  0.00    +0.230 C 
ATOM      4  N   LIG    1       -2.410   1.005   0.041  0.00  0.00    -0.480 N 
ATOM      5  C   LIG    1       -1.228   1.752   0.017  0.00  0.00    +0.010 A 
ATOM      6  C   LIG    1       -0.013   1.076   0.008  0.00  0.00    +0.050 A 
ATOM      7  C   LIG    1        1.175   1.780   0.000  0.00  0.00    +0.000 A 
ATOM      8  C   LIG    1        1.162   3.162   0.007  0.00  0.00    +0.040 A 
ATOM      9  C   LIG    1       -0.041   3.842   0.019  0.00  0.00    -0.010 A 
ATOM     10  C   LIG    1       -1.238   3.142   0.026  0.00  0.00    +0.100 A 
ATOM     11  O   LIG    1       -2.406   3.842   0.033  0.00  0.00    -0.300 OA
BRANCH   2  13
ATOM     12  C   LIG    1       -4.891   5.199   0.814  0.00  0.00    +0.020 C 
ATOM     13  C   LIG    1       -4.827   3.922  -0.027  0.00  0.00    +0.060 C 
ENDBRANCH   2  13
ENDBRANCH   1   4
BRANCH   1  14
ATOM     14  C   LIG    1       -1.558  -0.561   1.692  0.00  0.00    +0.170 A 
ATOM     15  N   LIG    1       -0.431  -0.296   2.293  0.00  0.00    -0.260 NA
ATOM     16  N   LIG    1        0.261  -1.375   2.404  0.00  0.00    -0.260 NA
ATOM     17  C   LIG    1       -0.407  -2.373   1.873  0.00  0.00    +0.200 A 
ATOM     18  O   LIG    1       -1.574  -1.876   1.417  0.00  0.00    -0.210 OA
BRANCH  17  19
ATOM     19  C   LIG    1        0.036  -3.781   1.795  0.00  0.00    +0.000 A 
ATOM     20  C   LIG    1       -0.789  -4.741   1.203  0.00  0.00    +0.060 A 
ATOM     21  C   LIG    1       -0.375  -6.050   1.125  0.00  0.00    +0.080 A 
ATOM     22  C   LIG    1        0.867  -6.423   1.648  0.00  0.00    +0.000 A 
ATOM     23  C   LIG    1        1.689  -5.463   2.245  0.00  0.00    +0.080 A 
ATOM     24  C   LIG    1        1.277  -4.153   2.318  0.00  0.00    +0.080 A 
BRANCH  22  25
ATOM     25  C   LIG    1        1.296  -7.787   1.573  0.00  0.00    +0.250 C 
ATOM     26  N   LIG    1        1.636  -8.869   1.513  0.00  0.00    -0.400 NA
ENDBRANCH  22  25
ENDBRANCH  17  19
ENDBRANCH   1  14
TORSDOF 5
