REMARK  Name = ZINCqH0000005QZi.0
REMARK                            x       y       z     vdW  Elec       q    Type
REMARK                         _______ _______ _______ _____ _____    ______ ____
ROOT
ATOM      1  N   LIG    1       -2.433   1.694   0.023  0.00  0.00    -0.650 N 
ATOM      2  H   LIG    1       -2.419   0.727  -0.049  0.00  0.00    +0.430 HD
ATOM      3  C   LIG    1       -3.609   2.345   0.134  0.00  0.00    +0.600 C 
ATOM      4  O   LIG    1       -3.632   3.560   0.141  0.00  0.00    -0.480 OA
ENDROOT
BRANCH   1   8
ATOM      5  C   LIG    1        1.143   3.833  -0.015  0.00  0.00    -0.170 A 
ATOM      6  C   LIG    1        1.084   2.575   0.594  0.00  0.00    +0.170 A 
ATOM      7  C   LIG    1       -0.100   1.873   0.607  0.00  0.00    -0.090 A 
ATOM      8  C   LIG    1       -1.239   2.411   0.011  0.00  0.00    +0.220 A 
ATOM      9  C   LIG    1       -1.188   3.664  -0.590  0.00  0.00    +0.010 A 
ATOM     10 CL   LIG    1       -0.173   0.312   1.362  0.00  0.00    -0.040 Cl
ATOM     11  C   LIG    1       -0.005   4.374  -0.609  0.00  0.00    +0.200 A 
ATOM     12  F   LIG    1        0.046   5.588  -1.198  0.00  0.00    -0.100 F 
BRANCH   5  13
ATOM     13  C   LIG    1        2.408   4.588  -0.032  0.00  0.00    +0.510 C 
ATOM     14  O   LIG    1        2.457   5.680  -0.561  0.00  0.00    -0.490 OA
BRANCH  13  16
ATOM     15  C   LIG    1        4.723   4.864   0.485  0.00  0.00    +0.290 C 
ATOM     16  O   LIG    1        3.511   4.065   0.539  0.00  0.00    -0.350 OA
ENDBRANCH  13  16
ENDBRANCH   5  13
ENDBRANCH   1   8
BRANCH   3  17
ATOM     17  C   LIG    1       -4.866   1.581   0.246  0.00  0.00    +0.050 C 
ATOM     18  N   LIG    1       -4.973   0.295   0.246  0.00  0.00    -0.230 NA
ATOM     19  O   LIG    1       -6.309  -0.145   0.380  0.00  0.00    -0.160 OA
ATOM     20  C   LIG    1       -7.168   0.966   0.054  0.00  0.00    +0.200 C 
ATOM     21  C   LIG    1       -6.256   2.174   0.377  0.00  0.00    +0.120 C 
BRANCH  20  22
ATOM     22  C   LIG    1       -8.399   0.971   0.924  0.00  0.00    -0.100 A 
ATOM     23  C   LIG    1       -8.330   0.497   2.221  0.00  0.00    +0.040 A 
ATOM     24  C   LIG    1       -9.457   0.505   3.021  0.00  0.00    +0.010 A 
ATOM     25  C   LIG    1      -10.656   0.979   2.521  0.00  0.00    +0.020 A 
ATOM     26  C   LIG    1      -10.726   1.448   1.222  0.00  0.00    +0.010 A 
ATOM     27  C   LIG    1       -9.597   1.444   0.424  0.00  0.00    +0.030 A 
ENDBRANCH  20  22
ENDBRANCH   3  17
TORSDOF 5
