REMARK  Name = ZINCrg00000bHymP.0
REMARK                            x       y       z     vdW  Elec       q    Type
REMARK                         _______ _______ _______ _____ _____    ______ ____
ROOT
ATOM      1  C   LIG    1       -2.153   3.412   1.605  0.00  0.00    +0.590 C 
ATOM      2  N   LIG    1       -3.304   2.781   1.303  0.00  0.00    -0.630 N 
ATOM      3  C   LIG    1       -3.735   1.384   1.141  0.00  0.00    +0.260 C 
ATOM      4  C   LIG    1       -4.821   1.884   0.181  0.00  0.00    +0.100 C 
ATOM      5  C   LIG    1       -4.682   3.186   0.983  0.00  0.00    +0.310 C 
ATOM      6  O   LIG    1       -2.136   4.622   1.724  0.00  0.00    -0.530 OA
ENDROOT
BRANCH   1  11
ATOM      7  C   LIG    1        2.681   0.366   2.334  0.00  0.00    +0.090 C 
ATOM      8  C   LIG    1        1.417   1.165   2.144  0.00  0.00    -0.140 A 
ATOM      9  C   LIG    1        0.209   0.514   1.982  0.00  0.00    +0.050 A 
ATOM     10  C   LIG    1       -0.952   1.238   1.802  0.00  0.00    -0.030 A 
ATOM     11  C   LIG    1       -0.910   2.634   1.793  0.00  0.00    -0.090 A 
ATOM     12  C   LIG    1        0.310   3.291   1.956  0.00  0.00    -0.010 A 
ATOM     13  C   LIG    1        1.471   2.554   2.131  0.00  0.00    +0.210 A 
BRANCH  13  14
ATOM     14  N   LIG    1        2.695   3.207   2.296  0.00  0.00    -0.880 N 
ATOM     15  H   LIG    1        2.732   4.176   2.287  0.00  0.00    +0.400 HD
ATOM     16  H   LIG    1        3.507   2.692   2.419  0.00  0.00    +0.400 HD
ENDBRANCH  13  14
ENDBRANCH   1  11
BRANCH   4  17
ATOM     17  O   LIG    1       -4.393   1.985  -1.178  0.00  0.00    -0.530 OA
ATOM     18  H   LIG    1       -4.482   1.164  -1.681  0.00  0.00    +0.380 HD
ENDBRANCH   4  17
BRANCH   4  19
ATOM     19  C   LIG    1       -6.174   1.189   0.343  0.00  0.00    +0.030 C 
BRANCH  19  20
ATOM     20  C   LIG    1       -6.151  -0.150  -0.396  0.00  0.00    +0.250 C 
BRANCH  20  21
ATOM     21  N   LIG    1       -7.447  -0.816  -0.241  0.00  0.00    -0.730 N 
ATOM     22  H   LIG    1       -8.152  -0.392   0.272  0.00  0.00    +0.400 HD
ATOM     23  C   LIG    1       -7.659  -2.018  -0.812  0.00  0.00    +0.480 C 
ATOM     24  O   LIG    1       -6.778  -2.549  -1.454  0.00  0.00    -0.530 OA
BRANCH  23  25
ATOM     25  C   LIG    1       -8.992  -2.703  -0.653  0.00  0.00    +0.220 C 
BRANCH  25  26
ATOM     26  O   LIG    1       -9.011  -3.897  -1.438  0.00  0.00    -0.530 OA
ATOM     27  H   LIG    1       -8.330  -4.538  -1.195  0.00  0.00    +0.380 HD
ENDBRANCH  25  26
BRANCH  25  28
ATOM     28  C   LIG    1       -9.210  -3.058   0.819  0.00  0.00    +0.010 C 
BRANCH  28  29
ATOM     29  C   LIG    1      -10.618  -3.630   1.003  0.00  0.00    -0.060 C 
ATOM     30  C   LIG    1      -11.652  -2.581   0.591  0.00  0.00    +0.020 C 
ATOM     31  C   LIG    1      -10.828  -4.004   2.471  0.00  0.00    +0.020 C 
ATOM     32  C   LIG    1      -10.779  -4.876   0.130  0.00  0.00    +0.040 C 
ENDBRANCH  28  29
ENDBRANCH  25  28
ENDBRANCH  23  25
ENDBRANCH  20  21
ENDBRANCH  19  20
ENDBRANCH   4  19
TORSDOF 10
