REMARK  Name = ZINCpe000000VK3v.0
REMARK                            x       y       z     vdW  Elec       q    Type
REMARK                         _______ _______ _______ _____ _____    ______ ____
ROOT
ATOM      1  N   LIG    1       -7.955   2.546   4.845  0.00  0.00    -0.510 NA
ATOM      2  C   LIG    1       -8.668   2.432   3.565  0.00  0.00    +0.160 C 
ATOM      3  C   LIG    1       -8.063   1.286   2.748  0.00  0.00    +0.310 C 
ATOM      4  N   LIG    1       -6.614   1.507   2.635  0.00  0.00    -0.590 N 
ATOM      5  C   LIG    1       -5.850   1.760   3.866  0.00  0.00    +0.290 C 
ATOM      6  C   LIG    1       -6.000   1.474   1.435  0.00  0.00    +0.580 C 
ATOM      7  O   LIG    1       -4.809   1.698   1.355  0.00  0.00    -0.540 OA
ATOM      8  C   LIG    1       -6.543   2.894   4.638  0.00  0.00    +0.160 C 
ENDROOT
BRANCH   6   9
ATOM      9  C   LIG    1       -6.778   1.163   0.215  0.00  0.00    +0.040 A 
ATOM     10  C   LIG    1       -6.222   1.408  -1.040  0.00  0.00    +0.080 A 
ATOM     11  C   LIG    1       -6.962   1.111  -2.172  0.00  0.00    -0.120 A 
ATOM     12  C   LIG    1       -8.232   0.577  -2.018  0.00  0.00    +0.110 A 
ATOM     13  O   LIG    1       -9.008   0.255  -3.086  0.00  0.00    -0.300 OA
ATOM     14  C   LIG    1       -8.655   0.817  -4.351  0.00  0.00    +0.250 C 
ATOM     15  C   LIG    1       -7.157   0.588  -4.589  0.00  0.00    +0.010 C 
ATOM     16  C   LIG    1       -8.723   0.360  -0.730  0.00  0.00    +0.250 A 
ATOM     17  C   LIG    1       -6.375   1.375  -3.533  0.00  0.00    +0.100 C 
ATOM     18  N   LIG    1       -7.999   0.652   0.325  0.00  0.00    -0.420 NA
ENDBRANCH   6   9
BRANCH   1  19
ATOM     19  C   LIG    1       -8.613   3.518   5.729  0.00  0.00    +0.160 C 
BRANCH  19  20
ATOM     20  C   LIG    1      -10.011   3.014   6.090  0.00  0.00    +0.170 C 
BRANCH  20  22
ATOM     21  C   LIG    1      -11.159   1.257   7.247  0.00  0.00    +0.170 C 
ATOM     22  O   LIG    1       -9.902   1.813   6.856  0.00  0.00    -0.340 OA
ENDBRANCH  20  22
ENDBRANCH  19  20
BRANCH  19  23
ATOM     23  C   LIG    1       -7.786   3.688   7.005  0.00  0.00    +0.170 C 
BRANCH  23  24
ATOM     24  O   LIG    1       -7.754   2.450   7.719  0.00  0.00    -0.340 OA
ATOM     25  C   LIG    1       -7.003   2.500   8.934  0.00  0.00    +0.170 C 
ENDBRANCH  23  24
ENDBRANCH  19  23
ENDBRANCH   1  19
TORSDOF 6
