REMARK  Name = ZINCbw0000000Hox.0
REMARK                            x       y       z     vdW  Elec       q    Type
REMARK                         _______ _______ _______ _____ _____    ______ ____
ROOT
ATOM      1  C   LIG    1       -1.251   1.625   0.236  0.00  0.00    +0.310 A 
ATOM      2  C   LIG    1       -1.277   3.010   0.351  0.00  0.00    -0.180 A 
ATOM      3  C   LIG    1       -2.454   3.700   0.138  0.00  0.00    +0.170 A 
ATOM      4  C   LIG    1       -3.620   3.020  -0.181  0.00  0.00    -0.160 A 
ATOM      5  C   LIG    1       -3.617   1.648  -0.295  0.00  0.00    +0.170 A 
ATOM      6 BR   LIG    1       -5.223   3.984  -0.463  0.00  0.00    -0.040 Br
ATOM      7 BR   LIG    1        0.302   3.951   0.794  0.00  0.00    -0.030 Br
ATOM      8  C   LIG    1       -2.431   0.932  -0.087  0.00  0.00    -0.260 A 
ENDROOT
BRANCH   1   9
ATOM      9  N   LIG    1       -0.068   0.930   0.445  0.00  0.00    -0.840 N 
ATOM     10  H   LIG    1       -0.094  -0.002   0.713  0.00  0.00    +0.420 HD
ATOM     11  H   LIG    1        0.785   1.377   0.326  0.00  0.00    +0.400 HD
ENDBRANCH   1   9
BRANCH   8  12
ATOM     12  C   LIG    1       -2.420  -0.529  -0.206  0.00  0.00    +0.510 C 
ATOM     13  O   LIG    1       -1.373  -1.137  -0.123  0.00  0.00    -0.470 OA
ENDBRANCH   8  12
TORSDOF 2
