REMARK  Name = ZINCrD00000760zK.0
REMARK                            x       y       z     vdW  Elec       q    Type
REMARK                         _______ _______ _______ _____ _____    ______ ____
ROOT
ATOM      1  C   LIG    1       -1.306   1.936   0.019  0.00  0.00    -0.120 A 
ATOM      2  C   LIG    1       -1.323   3.319   0.032  0.00  0.00    +0.200 A 
ATOM      3  C   LIG    1       -2.527   3.996   0.037  0.00  0.00    -0.040 A 
ATOM      4  C   LIG    1       -3.721   3.287   0.038  0.00  0.00    +0.350 A 
ATOM      5  C   LIG    1       -3.700   1.898   0.030  0.00  0.00    -0.760 A 
ATOM      6  C   LIG    1       -2.493   1.227   0.021  0.00  0.00    +0.270 A 
ENDROOT
BRANCH   1   8
ATOM      7  O   LIG    1        0.002  -0.004   0.002  0.00  0.00    -0.160 OA
ATOM      8  N   LIG    1       -0.014   1.214   0.009  0.00  0.00    +0.040 N 
ATOM      9  O   LIG    1        1.032   1.837   0.002  0.00  0.00    -0.160 OA
ENDBRANCH   1   8
BRANCH   5  10
ATOM     10  S   LIG    1       -5.212   0.993   0.033  0.00  0.00    +2.700 S 
ATOM     11  O   LIG    1       -4.857  -0.382   0.059  0.00  0.00    -0.940 OA
ATOM     12  O   LIG    1       -6.025   1.567  -0.981  0.00  0.00    -0.940 OA
BRANCH  10  13
ATOM     13  N   LIG    1       -5.969   1.308   1.472  0.00  0.00    -1.010 NA
ATOM     14  C   LIG    1       -5.807   0.534   2.712  0.00  0.00    +0.270 C 
ATOM     15  C   LIG    1       -6.720   1.178   3.777  0.00  0.00    +0.040 C 
ATOM     16  C   LIG    1       -7.777   1.924   2.920  0.00  0.00    +0.040 C 
ATOM     17  C   LIG    1       -6.921   2.405   1.721  0.00  0.00    +0.250 C 
ENDBRANCH  10  13
ENDBRANCH   5  10
BRANCH   4  18
ATOM     18  N   LIG    1       -4.940   3.969   0.049  0.00  0.00    -0.690 N 
ATOM     19  H   LIG    1       -5.773   3.473   0.051  0.00  0.00    +0.410 HD
BRANCH  18  20
ATOM     20  C   LIG    1       -4.960   5.434   0.057  0.00  0.00    +0.220 C 
ATOM     21  C   LIG    1       -5.947   6.121   1.003  0.00  0.00    +0.040 C 
ATOM     22  C   LIG    1       -6.202   6.127  -0.506  0.00  0.00    +0.020 C 
BRANCH  22  23
ATOM     23  C   LIG    1       -7.312   5.250  -1.027  0.00  0.00    -0.060 A 
ATOM     24  C   LIG    1       -7.932   4.346  -0.185  0.00  0.00    -0.030 A 
ATOM     25  C   LIG    1       -8.952   3.545  -0.662  0.00  0.00    +0.010 A 
ATOM     26  C   LIG    1       -9.347   3.642  -1.983  0.00  0.00    +0.020 A 
ATOM     27  C   LIG    1       -8.724   4.542  -2.826  0.00  0.00    +0.020 A 
ATOM     28  C   LIG    1       -7.706   5.346  -2.348  0.00  0.00    +0.010 A 
ENDBRANCH  22  23
ENDBRANCH  18  20
ENDBRANCH   4  18
TORSDOF 6
