REMARK  Name = ZINCrg00000fR7DN.0
REMARK                            x       y       z     vdW  Elec       q    Type
REMARK                         _______ _______ _______ _____ _____    ______ ____
ROOT
ATOM      1  C   LIG    1       -2.194   7.559  -5.001  0.00  0.00    +0.270 C 
ATOM      2  C   LIG    1       -1.628   7.297  -3.593  0.00  0.00    +0.250 C 
ATOM      3  N   LIG    1       -2.504   8.001  -2.637  0.00  0.00    -0.640 N 
ATOM      4  C   LIG    1       -3.128   9.108  -3.397  0.00  0.00    +0.320 C 
ATOM      5  C   LIG    1       -2.700   7.695  -1.339  0.00  0.00    +0.730 C 
ATOM      6  N   LIG    1       -2.058   6.645  -0.790  0.00  0.00    -0.740 N 
ATOM      7  H   LIG    1       -1.455   6.109  -1.328  0.00  0.00    +0.400 HD
ATOM      8  O   LIG    1       -3.456   8.366  -0.664  0.00  0.00    -0.580 OA
ATOM      9  C   LIG    1       -3.417   8.478  -4.778  0.00  0.00    +0.050 C 
ENDROOT
BRANCH   9  10
ATOM     10  C   LIG    1       -3.490   9.538  -5.847  0.00  0.00    +0.090 A 
ATOM     11  C   LIG    1       -2.437  10.154  -6.432  0.00  0.00    -0.110 A 
ATOM     12  C   LIG    1       -2.938  11.066  -7.368  0.00  0.00    +0.240 A 
ATOM     13  N   LIG    1       -4.245  11.005  -7.339  0.00  0.00    -0.290 NA
ATOM     14  N   LIG    1       -4.617  10.048  -6.386  0.00  0.00    -0.370 N 
ATOM     15  C   LIG    1       -5.988   9.667  -6.037  0.00  0.00    +0.350 C 
ENDBRANCH   9  10
BRANCH   1  18
ATOM     16  C   LIG    1       -2.135   4.263  -6.948  0.00  0.00    +0.110 C 
ATOM     17  C   LIG    1       -1.710   5.558  -6.305  0.00  0.00    +0.510 C 
ATOM     18  N   LIG    1       -2.607   6.300  -5.626  0.00  0.00    -0.730 N 
ATOM     19  H   LIG    1       -3.526   6.000  -5.550  0.00  0.00    +0.400 HD
ATOM     20  O   LIG    1       -0.561   5.934  -6.400  0.00  0.00    -0.540 OA
ENDBRANCH   1  18
BRANCH   6  21
ATOM     21  C   LIG    1       -2.271   6.312   0.621  0.00  0.00    +0.390 C 
BRANCH  21  22
ATOM     22  C   LIG    1       -1.443   5.106   0.983  0.00  0.00    +0.050 A 
ATOM     23  N   LIG    1       -1.791   3.857   0.811  0.00  0.00    -0.280 NA
ATOM     24  N   LIG    1       -0.749   3.044   1.275  0.00  0.00    -0.360 N 
ATOM     25  C   LIG    1        0.232   3.849   1.736  0.00  0.00    +0.230 A 
ATOM     26  C   LIG    1       -0.170   5.129   1.562  0.00  0.00    -0.110 A 
BRANCH  24  27
ATOM     27  C   LIG    1       -0.729   1.579   1.267  0.00  0.00    +0.250 C 
ATOM     28  C   LIG    1        0.011   1.072   2.506  0.00  0.00    +0.050 C 
ATOM     29  C   LIG    1       -0.013   1.086   0.008  0.00  0.00    +0.040 C 
ENDBRANCH  24  27
ENDBRANCH  21  22
ENDBRANCH   6  21
TORSDOF 5
