REMARK  Name = ZINCpk00000y6v1l.0
REMARK                            x       y       z     vdW  Elec       q    Type
REMARK                         _______ _______ _______ _____ _____    ______ ____
ROOT
ATOM      1  N   LIG    1       -2.447   1.015   0.063  0.00  0.00    -0.450 N 
ATOM      2  C   LIG    1       -3.103   1.370   1.340  0.00  0.00    +0.220 C 
ATOM      3  C   LIG    1       -2.775   2.869   1.550  0.00  0.00    +0.200 C 
ATOM      4  C   LIG    1       -1.324   2.952   1.008  0.00  0.00    +0.050 C 
ATOM      5  F   LIG    1       -3.636   3.679   0.802  0.00  0.00    -0.200 F 
ATOM      6  C   LIG    1       -1.336   1.956  -0.171  0.00  0.00    +0.180 C 
ENDROOT
BRANCH   1  12
ATOM      7  C   LIG    1       -1.161  -2.846   2.590  0.00  0.00    +0.160 C 
ATOM      8  C   LIG    1       -1.368  -2.165   1.262  0.00  0.00    +0.340 A 
ATOM      9  N   LIG    1       -1.115  -2.829   0.155  0.00  0.00    -0.530 NA
ATOM     10  C   LIG    1       -1.283  -2.269  -1.041  0.00  0.00    +0.190 A 
ATOM     11  C   LIG    1       -1.732  -0.974  -1.111  0.00  0.00    -0.180 A 
ATOM     12  C   LIG    1       -1.993  -0.293   0.085  0.00  0.00    +0.360 A 
ATOM     13  C   LIG    1       -1.961  -0.259  -2.414  0.00  0.00    +0.090 C 
ATOM     14  C   LIG    1       -1.238  -0.977  -3.552  0.00  0.00    +0.010 C 
ATOM     15  C   LIG    1       -1.611  -2.463  -3.503  0.00  0.00    +0.030 C 
ATOM     16  C   LIG    1       -0.966  -3.085  -2.265  0.00  0.00    +0.110 C 
ATOM     17  N   LIG    1       -1.793  -0.918   1.240  0.00  0.00    -0.530 NA
ENDBRANCH   1  12
BRANCH   6  18
ATOM     18  C   LIG    1       -0.030   1.205  -0.221  0.00  0.00    +0.510 C 
ATOM     19  N   LIG    1        0.869   1.481  -1.187  0.00  0.00    -0.610 N 
ATOM     20  C   LIG    1        0.559   2.440  -2.259  0.00  0.00    +0.250 C 
ATOM     21  C   LIG    1        1.716   3.448  -2.348  0.00  0.00    +0.220 C 
ATOM     22  O   LIG    1        2.950   2.737  -2.470  0.00  0.00    -0.370 OA
ATOM     23  C   LIG    1        3.263   1.910  -1.347  0.00  0.00    +0.220 C 
ATOM     24  C   LIG    1        2.187   0.827  -1.203  0.00  0.00    +0.260 C 
ATOM     25  O   LIG    1        0.210   0.350   0.604  0.00  0.00    -0.510 OA
ENDBRANCH   6  18
TORSDOF 2
