REMARK  Name = ZINCpe000000YTBm.0
REMARK                            x       y       z     vdW  Elec       q    Type
REMARK                         _______ _______ _______ _____ _____    ______ ____
ROOT
ATOM      1  N   LIG    1       -0.706   1.508  -4.860  0.00  0.00    -0.540 NA
ATOM      2  C   LIG    1        0.665   2.034  -5.038  0.00  0.00    +0.190 C 
ATOM      3  C   LIG    1        1.407   1.125  -5.986  0.00  0.00    +0.040 C 
ATOM      4  C   LIG    1        1.299   1.597  -7.444  0.00  0.00    +0.170 C 
ATOM      5  N   LIG    1       -0.063   2.067  -7.787  0.00  0.00    -0.550 NA
ATOM      6  C   LIG    1       -1.119   1.239  -7.252  0.00  0.00    +0.200 C 
ATOM      7  C   LIG    1       -1.581   1.830  -5.905  0.00  0.00    +0.180 C 
ENDROOT
BRANCH   1   8
ATOM      8  C   LIG    1       -1.262   1.915  -3.563  0.00  0.00    +0.210 C 
BRANCH   8  10
ATOM      9  O   LIG    1        0.547   0.657  -2.717  0.00  0.00    -0.520 OA
ATOM     10  C   LIG    1       -0.421   1.339  -2.453  0.00  0.00    +0.530 C 
ATOM     11  N   LIG    1       -0.743   1.582  -1.167  0.00  0.00    -0.620 N 
ATOM     12  C   LIG    1       -0.013   1.086   0.008  0.00  0.00    +0.250 C 
ATOM     13  C   LIG    1       -0.756   1.594   1.262  0.00  0.00    +0.030 C 
ATOM     14  C   LIG    1       -2.187   1.874   0.722  0.00  0.00    +0.040 C 
ATOM     15  C   LIG    1       -1.886   2.391  -0.707  0.00  0.00    +0.250 C 
ENDBRANCH   8  10
ENDBRANCH   1   8
BRANCH   5  16
ATOM     16  C   LIG    1       -0.211   2.236  -9.239  0.00  0.00    +0.290 C 
BRANCH  16  17
ATOM     17  C   LIG    1        1.027   2.890  -9.798  0.00  0.00    -0.050 A 
ATOM     18  C   LIG    1        2.097   2.258 -10.336  0.00  0.00    +0.230 A 
ATOM     19  N   LIG    1        2.985   3.176 -10.719  0.00  0.00    -0.460 NA
ATOM     20  C   LIG    1        2.516   4.380 -10.432  0.00  0.00    +0.160 A 
ATOM     21  C   LIG    1        3.026   5.681 -10.607  0.00  0.00    +0.390 A 
ATOM     22  N   LIG    1        2.320   6.714 -10.215  0.00  0.00    -0.460 NA
ATOM     23  C   LIG    1        1.120   6.561  -9.650  0.00  0.00    +0.220 A 
ATOM     24  C   LIG    1        0.587   5.336  -9.459  0.00  0.00    +0.190 A 
ATOM     25  N   LIG    1        1.281   4.226  -9.850  0.00  0.00    -0.330 N 
ENDBRANCH  16  17
ENDBRANCH   5  16
TORSDOF 4
