REMARK  Name = ZINCpk00000y6wqW.0
REMARK                            x       y       z     vdW  Elec       q    Type
REMARK                         _______ _______ _______ _____ _____    ______ ____
ROOT
ATOM      1  N   LIG    1       -6.573   3.293   1.436  0.00  0.00    -0.600 N 
ATOM      2  C   LIG    1       -5.901   4.133   2.241  0.00  0.00    +0.530 C 
ATOM      3  C   LIG    1       -4.953   4.987   1.428  0.00  0.00    +0.080 C 
ATOM      4  C   LIG    1       -4.852   4.253   0.070  0.00  0.00    +0.010 C 
ATOM      5  O   LIG    1       -6.034   4.197   3.445  0.00  0.00    -0.520 OA
ATOM      6  C   LIG    1       -6.186   3.476   0.031  0.00  0.00    +0.330 C 
ENDROOT
BRANCH   6   7
ATOM      7  C   LIG    1       -7.234   4.276  -0.700  0.00  0.00    +0.180 A 
ATOM      8  N   LIG    1       -7.862   5.318  -0.227  0.00  0.00    -0.460 NA
ATOM      9  C   LIG    1       -8.721   5.773  -1.151  0.00  0.00    +0.140 A 
ATOM     10  C   LIG    1       -8.623   4.982  -2.237  0.00  0.00    +0.130 A 
ATOM     11  N   LIG    1       -7.676   4.036  -1.953  0.00  0.00    -0.450 N 
ATOM     12  C   LIG    1       -7.227   2.961  -2.842  0.00  0.00    +0.330 C 
ENDBRANCH   6   7
BRANCH   1  14
ATOM     13  C   LIG    1       -8.952   2.967   1.902  0.00  0.00    +0.020 C 
ATOM     14  C   LIG    1       -7.566   2.320   1.899  0.00  0.00    +0.290 C 
ENDBRANCH   1  14
BRANCH   4  15
ATOM     15  C   LIG    1       -3.659   3.295   0.054  0.00  0.00    +0.300 C 
BRANCH  15  16
ATOM     16  N   LIG    1       -2.413   4.066   0.046  0.00  0.00    -0.690 N 
ATOM     17  H   LIG    1       -2.443   5.036   0.051  0.00  0.00    +0.420 HD
BRANCH  16  18
ATOM     18  C   LIG    1       -1.194   3.411   0.031  0.00  0.00    +0.580 A 
ATOM     19  N   LIG    1       -1.174   2.088   0.019  0.00  0.00    -0.550 NA
ATOM     20  C   LIG    1       -0.017   1.428   0.010  0.00  0.00    +0.290 A 
ATOM     21  C   LIG    1        1.176   2.154   0.002  0.00  0.00    -0.080 A 
ATOM     22  C   LIG    1        1.107   3.538   0.010  0.00  0.00    +0.240 A 
ATOM     23  C   LIG    1        2.367   4.364   0.003  0.00  0.00    +0.160 C 
ATOM     24  N   LIG    1       -0.077   4.126   0.024  0.00  0.00    -0.550 NA
BRANCH  20  25
ATOM     25  C   LIG    1        0.002  -0.004   0.002  0.00  0.00    +0.260 C 
ATOM     26  N   LIG    1        0.018  -1.140  -0.004  0.00  0.00    -0.370 NA
ENDBRANCH  20  25
ENDBRANCH  16  18
ENDBRANCH  15  16
ENDBRANCH   4  15
TORSDOF 6
