REMARK  Name = ZINCkj00000y7BOa.0
REMARK                            x       y       z     vdW  Elec       q    Type
REMARK                         _______ _______ _______ _____ _____    ______ ____
ROOT
ATOM      1  N   LIG    1       -6.087   2.054   0.133  0.00  0.00    -0.730 N 
ATOM      2  H   LIG    1       -6.080   3.013  -0.012  0.00  0.00    +0.410 HD
ATOM      3  C   LIG    1       -4.932   1.361   0.113  0.00  0.00    +0.570 C 
ATOM      4  O   LIG    1       -4.940   0.160   0.295  0.00  0.00    -0.510 OA
ENDROOT
BRANCH   3   5
ATOM      5  C   LIG    1       -3.650   2.064  -0.131  0.00  0.00    -0.060 A 
ATOM      6  C   LIG    1       -3.619   3.448  -0.342  0.00  0.00    -0.080 A 
ATOM      7  C   LIG    1       -2.406   4.067  -0.566  0.00  0.00    +0.320 A 
ATOM      8  N   LIG    1       -1.283   3.376  -0.577  0.00  0.00    -0.520 NA
ATOM      9  C   LIG    1       -1.264   2.066  -0.388  0.00  0.00    +0.410 A 
ATOM     10  C   LIG    1       -2.443   1.365  -0.156  0.00  0.00    -0.030 A 
BRANCH   9  11
ATOM     11  N   LIG    1       -0.053   1.384  -0.415  0.00  0.00    -0.610 N 
ATOM     12  C   LIG    1        1.202   2.127  -0.555  0.00  0.00    +0.300 C 
ATOM     13  C   LIG    1       -0.032  -0.077  -0.310  0.00  0.00    +0.300 C 
ENDBRANCH   9  11
ENDBRANCH   3   5
BRANCH   1  14
ATOM     14  C   LIG    1       -7.354   1.359   0.374  0.00  0.00    +0.290 C 
BRANCH  14  19
ATOM     15  C   LIG    1      -11.802   2.107   2.082  0.00  0.00    +0.090 C 
ATOM     16  C   LIG    1      -10.649   2.747   1.306  0.00  0.00    +0.170 C 
ATOM     17  C   LIG    1       -9.716   3.517   2.265  0.00  0.00    +0.070 C 
ATOM     18  C   LIG    1       -8.294   3.277   1.719  0.00  0.00    +0.070 C 
ATOM     19  C   LIG    1       -8.486   2.383   0.476  0.00  0.00    +0.170 C 
ATOM     20  N   LIG    1       -9.785   1.698   0.702  0.00  0.00    -0.390 N 
ATOM     21  C   LIG    1      -10.351   1.234  -0.572  0.00  0.00    +0.320 C 
ATOM     22  H   LIG    1       -9.671   0.925   1.341  0.00  0.00    +0.430 HD
ENDBRANCH  14  19
ENDBRANCH   1  14
TORSDOF 4
