REMARK  Name = ZINCkj00000y7BOa.1
REMARK                            x       y       z     vdW  Elec       q    Type
REMARK                         _______ _______ _______ _____ _____    ______ ____
ROOT
ATOM      1  N   LIG    1       -1.410   3.078   3.566  0.00  0.00    -0.750 N 
ATOM      2  H   LIG    1       -1.580   2.127   3.646  0.00  0.00    +0.400 HD
ATOM      3  C   LIG    1       -2.151   3.957   4.270  0.00  0.00    +0.570 C 
ATOM      4  O   LIG    1       -1.937   5.149   4.170  0.00  0.00    -0.500 OA
ENDROOT
BRANCH   3   5
ATOM      5  C   LIG    1       -3.224   3.469   5.167  0.00  0.00    -0.060 A 
ATOM      6  C   LIG    1       -3.486   2.100   5.296  0.00  0.00    -0.090 A 
ATOM      7  C   LIG    1       -4.494   1.685   6.142  0.00  0.00    +0.320 A 
ATOM      8  N   LIG    1       -5.210   2.557   6.825  0.00  0.00    -0.520 NA
ATOM      9  C   LIG    1       -4.999   3.860   6.735  0.00  0.00    +0.410 A 
ATOM     10  C   LIG    1       -3.998   4.362   5.909  0.00  0.00    -0.030 A 
BRANCH   9  11
ATOM     11  N   LIG    1       -5.782   4.736   7.477  0.00  0.00    -0.610 N 
ATOM     12  C   LIG    1       -6.760   4.214   8.435  0.00  0.00    +0.300 C 
ATOM     13  C   LIG    1       -5.630   6.183   7.301  0.00  0.00    +0.300 C 
ENDBRANCH   9  11
ENDBRANCH   3   5
BRANCH   1  14
ATOM     14  C   LIG    1       -0.348   3.561   2.679  0.00  0.00    +0.320 C 
BRANCH  14  19
ATOM     15  C   LIG    1       -0.773   1.603  -1.215  0.00  0.00    +0.080 C 
ATOM     16  C   LIG    1       -0.013   1.086   0.008  0.00  0.00    +0.160 C 
ATOM     17  C   LIG    1        1.431   1.631  -0.003  0.00  0.00    +0.080 C 
ATOM     18  C   LIG    1        1.349   2.858   0.942  0.00  0.00    +0.090 C 
ATOM     19  C   LIG    1        0.333   2.369   2.004  0.00  0.00    +0.160 C 
ATOM     20  N   LIG    1       -0.654   1.572   1.244  0.00  0.00    -0.390 N 
ATOM     21  C   LIG    1       -1.810   2.412   0.903  0.00  0.00    +0.320 C 
ATOM     22  H   LIG    1       -0.958   0.787   1.800  0.00  0.00    +0.420 HD
ENDBRANCH  14  19
ENDBRANCH   1  14
TORSDOF 4
