REMARK  Name = ZINCpk000004ASnS.0
REMARK                            x       y       z     vdW  Elec       q    Type
REMARK                         _______ _______ _______ _____ _____    ______ ____
ROOT
ATOM      1  C   LIG    1        0.000   1.080   2.488  0.00  0.00    +0.520 C 
ATOM      2  N   LIG    1       -0.453   1.393   3.718  0.00  0.00    -0.610 N 
ATOM      3  C   LIG    1       -1.653   2.224   3.884  0.00  0.00    +0.280 C 
ATOM      4  C   LIG    1       -1.319   3.404   4.796  0.00  0.00    +0.050 C 
ATOM      5  C   LIG    1       -0.731   2.879   6.108  0.00  0.00    -0.070 C 
ATOM      6  C   LIG    1       -0.428   4.055   7.037  0.00  0.00    +0.110 C 
ATOM      7  C   LIG    1       -0.119   3.541   8.421  0.00  0.00    -0.120 A 
ATOM      8  C   LIG    1        0.788   4.209   9.219  0.00  0.00    +0.050 A 
ATOM      9  C   LIG    1        1.044   3.761  10.502  0.00  0.00    -0.010 A 
ATOM     10  C   LIG    1        0.390   2.645  10.991  0.00  0.00    +0.040 A 
ATOM     11  C   LIG    1       -0.513   1.968  10.194  0.00  0.00    -0.020 A 
ATOM     12  C   LIG    1       -0.758   2.404   8.899  0.00  0.00    +0.160 A 
ATOM     13  N   LIG    1       -1.664   1.716   8.087  0.00  0.00    -0.660 N 
ATOM     14  H   LIG    1       -2.258   1.058   8.482  0.00  0.00    +0.410 HD
ATOM     15  C   LIG    1        0.562   2.112   5.817  0.00  0.00    +0.050 C 
ATOM     16  C   LIG    1       -1.722   1.954   6.766  0.00  0.00    +0.530 C 
ATOM     17  O   LIG    1       -2.581   1.420   6.096  0.00  0.00    -0.510 OA
ATOM     18  C   LIG    1        0.247   0.913   4.917  0.00  0.00    +0.280 C 
ATOM     19  O   LIG    1        0.994   0.397   2.363  0.00  0.00    -0.540 OA
ENDROOT
BRANCH   1  20
ATOM     20  C   LIG    1       -0.729   1.579   1.267  0.00  0.00    +0.050 C 
BRANCH  20  21
ATOM     21  C   LIG    1       -0.013   1.086   0.008  0.00  0.00    +0.290 C 
BRANCH  21  23
ATOM     22  C   LIG    1       -0.268   1.258  -2.409  0.00  0.00    +0.540 C 
ATOM     23  N   LIG    1       -0.721   1.571  -1.179  0.00  0.00    -0.730 N 
ATOM     24  H   LIG    1       -1.516   2.118  -1.079  0.00  0.00    +0.400 HD
ATOM     25  O   LIG    1        0.729   0.573  -2.534  0.00  0.00    -0.540 OA
BRANCH  22  27
ATOM     26  C   LIG    1       -0.532   1.437  -4.815  0.00  0.00    +0.140 C 
ATOM     27  C   LIG    1       -0.980   1.746  -3.601  0.00  0.00    -0.090 C 
ENDBRANCH  22  27
ENDBRANCH  21  23
ENDBRANCH  20  21
ENDBRANCH   1  20
TORSDOF 4
