REMARK  Name = ZINCvU00000005XI.0
REMARK                            x       y       z     vdW  Elec       q    Type
REMARK                         _______ _______ _______ _____ _____    ______ ____
ROOT
ATOM      1  C   LIG    1       -5.991  -1.789   0.193  0.00  0.00    +0.090 A 
ATOM      2  C   LIG    1       -5.907  -0.406   0.225  0.00  0.00    -0.050 A 
ATOM      3  C   LIG    1       -7.055   0.353   0.348  0.00  0.00    +0.030 A 
ATOM      4  C   LIG    1       -8.289  -0.263   0.451  0.00  0.00    +0.000 A 
ATOM      5  C   LIG    1       -8.381  -1.642   0.425  0.00  0.00    +0.060 A 
ATOM      6  C   LIG    1       -7.234  -2.411   0.296  0.00  0.00    +0.130 A 
ENDROOT
BRANCH   6   7
ATOM      7  N   LIG    1       -7.325  -3.808   0.270  0.00  0.00    -0.660 N 
ATOM      8  H   LIG    1       -6.621  -4.347   0.664  0.00  0.00    +0.410 HD
ATOM      9  C   LIG    1       -8.389  -4.403  -0.303  0.00  0.00    +0.570 C 
ATOM     10  O   LIG    1       -9.304  -3.728  -0.735  0.00  0.00    -0.500 OA
BRANCH   9  11
ATOM     11  C   LIG    1       -8.445  -5.871  -0.407  0.00  0.00    -0.190 A 
ATOM     12  C   LIG    1       -7.394  -6.650   0.089  0.00  0.00    +0.110 A 
ATOM     13  C   LIG    1       -7.448  -8.022  -0.009  0.00  0.00    -0.060 A 
ATOM     14  C   LIG    1       -8.545  -8.640  -0.598  0.00  0.00    +0.160 A 
ATOM     15  C   LIG    1       -9.596  -7.877  -1.095  0.00  0.00    +0.030 A 
ATOM     16  C   LIG    1       -9.554  -6.494  -0.997  0.00  0.00    +0.190 A 
BRANCH  15  17
ATOM     17  O   LIG    1      -10.667  -8.488  -1.671  0.00  0.00    -0.320 OA
ATOM     18  C   LIG    1      -11.755  -8.835  -0.813  0.00  0.00    +0.240 C 
ENDBRANCH  15  17
BRANCH  14  19
ATOM     19  O   LIG    1       -8.590  -9.995  -0.689  0.00  0.00    -0.300 OA
ATOM     20  C   LIG    1       -7.477 -10.718  -0.159  0.00  0.00    +0.250 C 
ENDBRANCH  14  19
BRANCH  16  21
ATOM     21  O   LIG    1      -10.581  -5.745  -1.476  0.00  0.00    -0.310 OA
ATOM     22  C   LIG    1      -10.499  -5.330  -2.841  0.00  0.00    +0.250 C 
ENDBRANCH  16  21
ENDBRANCH   9  11
ENDBRANCH   6   7
BRANCH   1  23
ATOM     23  O   LIG    1       -4.863  -2.537   0.067  0.00  0.00    -0.260 OA
BRANCH  23  27
ATOM     24  C   LIG    1       -1.225  -0.589   0.155  0.00  0.00    +0.130 A 
ATOM     25  C   LIG    1       -2.011  -0.641   1.296  0.00  0.00    -0.050 A 
ATOM     26  C   LIG    1       -3.231  -1.288   1.265  0.00  0.00    +0.030 A 
ATOM     27  C   LIG    1       -3.664  -1.896   0.096  0.00  0.00    +0.050 A 
ATOM     28  C   LIG    1       -2.875  -1.849  -1.044  0.00  0.00    +0.060 A 
ATOM     29  C   LIG    1       -1.658  -1.197  -1.014  0.00  0.00    +0.000 A 
BRANCH  24  30
ATOM     30  O   LIG    1       -0.026   0.052   0.184  0.00  0.00    -0.310 OA
BRANCH  30  32
ATOM     31  C   LIG    1        1.724   1.324   1.261  0.00  0.00    +0.070 C 
ATOM     32  C   LIG    1        0.357   0.655   1.421  0.00  0.00    +0.170 C 
ENDBRANCH  30  32
ENDBRANCH  24  30
ENDBRANCH  23  27
ENDBRANCH   1  23
TORSDOF 9
