REMARK  Name = ZINCrD000000CIRh.0
REMARK                            x       y       z     vdW  Elec       q    Type
REMARK                         _______ _______ _______ _____ _____    ______ ____
ROOT
ATOM      1  C   LIG    1       -1.367   1.742  -0.554  0.00  0.00    +0.190 A 
ATOM      2  N   LIG    1       -2.493   1.058  -0.583  0.00  0.00    -0.230 NA
ATOM      3  N   LIG    1       -3.534   1.988  -0.730  0.00  0.00    -0.320 N 
ATOM      4  C   LIG    1       -2.943   3.219  -0.791  0.00  0.00    +0.370 A 
ATOM      5  N   LIG    1       -1.642   3.047  -0.683  0.00  0.00    -0.490 NA
ENDROOT
BRANCH   1   7
ATOM      6  O   LIG    1        0.115  -0.020  -0.153  0.00  0.00    -0.500 OA
ATOM      7  C   LIG    1       -0.015   1.161  -0.409  0.00  0.00    +0.610 C 
ATOM      8  N   LIG    1        1.073   1.940  -0.567  0.00  0.00    -0.580 N 
ATOM      9  C   LIG    1        0.938   3.334  -1.010  0.00  0.00    +0.280 C 
ATOM     10  C   LIG    1        1.834   3.552  -2.234  0.00  0.00    +0.010 C 
ATOM     11  C   LIG    1        3.267   3.137  -1.893  0.00  0.00    +0.020 C 
ATOM     12  C   LIG    1        3.296   1.650  -1.531  0.00  0.00    +0.020 C 
ATOM     13  C   LIG    1        2.417   1.413  -0.293  0.00  0.00    +0.230 C 
BRANCH  13  14
ATOM     14  C   LIG    1        2.330  -0.087  -0.003  0.00  0.00    +0.060 C 
BRANCH  14  15
ATOM     15  C   LIG    1        3.723  -0.621   0.339  0.00  0.00    +0.150 C 
BRANCH  15  16
ATOM     16  O   LIG    1        3.624  -1.993   0.728  0.00  0.00    -0.570 OA
ATOM     17  H   LIG    1        4.471  -2.398   0.959  0.00  0.00    +0.380 HD
ENDBRANCH  15  16
ENDBRANCH  14  15
ENDBRANCH  13  14
ENDBRANCH   1   7
BRANCH   3  18
ATOM     18  C   LIG    1       -4.905   1.710  -0.804  0.00  0.00    +0.120 A 
ATOM     19  C   LIG    1       -5.484   0.819   0.090  0.00  0.00    +0.050 A 
ATOM     20  C   LIG    1       -6.836   0.551   0.017  0.00  0.00    +0.040 A 
ATOM     21  C   LIG    1       -7.612   1.161  -0.952  0.00  0.00    +0.040 A 
ATOM     22  C   LIG    1       -7.038   2.044  -1.847  0.00  0.00    +0.040 A 
ATOM     23  C   LIG    1       -5.687   2.321  -1.776  0.00  0.00    +0.020 A 
ENDBRANCH   3  18
BRANCH   4  24
ATOM     24  C   LIG    1       -3.637   4.507  -0.949  0.00  0.00    -0.170 A 
ATOM     25  C   LIG    1       -3.061   5.659  -1.359  0.00  0.00    +0.100 A 
ATOM     26  C   LIG    1       -3.917   6.735  -1.433  0.00  0.00    +0.000 A 
ATOM     27  C   LIG    1       -5.182   6.480  -1.079  0.00  0.00    -0.030 A 
ATOM     28  S   LIG    1       -5.343   4.789  -0.626  0.00  0.00    +0.170 S 
ENDBRANCH   4  24
TORSDOF 6
