REMARK  Name = ZINCpe000000SyJF.0
REMARK                            x       y       z     vdW  Elec       q    Type
REMARK                         _______ _______ _______ _____ _____    ______ ____
ROOT
ATOM      1  N   LIG    1        1.719   0.303  -1.097  0.00  0.00    -0.730 N 
ATOM      2  H   LIG    1        2.357  -0.281  -0.657  0.00  0.00    +0.400 HD
ATOM      3  C   LIG    1        0.499   0.496  -0.558  0.00  0.00    +0.500 C 
ATOM      4  O   LIG    1       -0.298   1.226  -1.108  0.00  0.00    -0.520 OA
ENDROOT
BRANCH   1  10
ATOM      5  C   LIG    1        5.606   1.126  -5.938  0.00  0.00    +0.080 C 
ATOM      6  C   LIG    1        4.147   0.750  -5.890  0.00  0.00    +0.510 C 
ATOM      7  N   LIG    1        3.384   1.145  -4.852  0.00  0.00    -0.620 N 
ATOM      8  C   LIG    1        3.979   1.857  -3.713  0.00  0.00    +0.270 C 
ATOM      9  C   LIG    1        3.605   1.122  -2.422  0.00  0.00    +0.020 C 
ATOM     10  C   LIG    1        2.083   0.976  -2.346  0.00  0.00    +0.240 C 
ATOM     11  C   LIG    1        1.589   0.148  -3.534  0.00  0.00    +0.010 C 
ATOM     12  C   LIG    1        1.940   0.872  -4.838  0.00  0.00    +0.280 C 
ATOM     13  O   LIG    1        3.660   0.093  -6.786  0.00  0.00    -0.540 OA
ENDBRANCH   1  10
BRANCH   3  14
ATOM     14  C   LIG    1        0.124  -0.197   0.727  0.00  0.00    +0.330 C 
BRANCH  14  15
ATOM     15  N   LIG    1       -1.243   0.173   1.100  0.00  0.00    -0.930 N 
BRANCH  15  16
ATOM     16  C   LIG    1       -1.477   1.347   1.821  0.00  0.00    +0.120 A 
ATOM     17  C   LIG    1       -1.998   2.464   1.181  0.00  0.00    +0.070 A 
ATOM     18  C   LIG    1       -2.233   3.622   1.897  0.00  0.00    +0.010 A 
ATOM     19  C   LIG    1       -1.940   3.672   3.247  0.00  0.00    +0.030 A 
ATOM     20  C   LIG    1       -1.416   2.563   3.886  0.00  0.00    +0.010 A 
ATOM     21  C   LIG    1       -1.184   1.401   3.177  0.00  0.00    -0.080 A 
ATOM     22  C   LIG    1       -0.613   0.193   3.874  0.00  0.00    +0.080 C 
ENDBRANCH  15  16
BRANCH  15  23
ATOM     23  S   LIG    1       -2.511  -0.800   0.668  0.00  0.00    +2.600 S 
ATOM     24  O   LIG    1       -2.044  -1.496  -0.479  0.00  0.00    -0.940 OA
ATOM     25  O   LIG    1       -3.620   0.085   0.587  0.00  0.00    -0.930 OA
ATOM     26  C   LIG    1       -2.707  -1.937   2.068  0.00  0.00    -0.290 C 
ENDBRANCH  15  23
ENDBRANCH  14  15
ENDBRANCH   3  14
TORSDOF 5
