REMARK  Name = ZINCtV000002OWa9.0
REMARK                            x       y       z     vdW  Elec       q    Type
REMARK                         _______ _______ _______ _____ _____    ______ ____
ROOT
ATOM      1  C   LIG    1        4.808   4.278  -0.129  0.00  0.00    -0.070 A 
ATOM      2  C   LIG    1        3.621   3.559  -0.139  0.00  0.00    +0.080 A 
ATOM      3  C   LIG    1        3.663   2.159  -0.039  0.00  0.00    +0.180 A 
ATOM      4  N   LIG    1        4.794   1.495   0.070  0.00  0.00    -0.420 NA
ATOM      5  C   LIG    1        5.980   2.105   0.083  0.00  0.00    +0.120 A 
ATOM      6  C   LIG    1        7.174   1.367   0.196  0.00  0.00    +0.060 A 
ATOM      7  C   LIG    1        8.369   2.018   0.212  0.00  0.00    +0.030 A 
ATOM      8  C   LIG    1        8.435   3.406   0.118  0.00  0.00    +0.030 A 
ATOM      9  C   LIG    1        7.299   4.153   0.007  0.00  0.00    +0.050 A 
ATOM     10  C   LIG    1        6.053   3.517  -0.012  0.00  0.00    -0.060 A 
ENDROOT
BRANCH   3  11
ATOM     11  C   LIG    1        2.387   1.403  -0.051  0.00  0.00    -0.040 A 
ATOM     12  C   LIG    1        1.337   1.790   0.779  0.00  0.00    +0.050 A 
ATOM     13  C   LIG    1        0.152   1.082   0.764  0.00  0.00    +0.020 A 
ATOM     14  C   LIG    1        0.005  -0.009  -0.073  0.00  0.00    +0.050 A 
ATOM     15  C   LIG    1        1.043  -0.398  -0.900  0.00  0.00    +0.030 A 
ATOM     16  C   LIG    1        2.234   0.302  -0.894  0.00  0.00    -0.000 A 
ATOM     17 CL   LIG    1        3.536  -0.187  -1.933  0.00  0.00    -0.050 Cl
ENDBRANCH   3  11
BRANCH   1  19
ATOM     18  O   LIG    1        5.868   6.350  -0.328  0.00  0.00    -0.490 OA
ATOM     19  C   LIG    1        4.815   5.752  -0.232  0.00  0.00    +0.520 C 
BRANCH  19  20
ATOM     20  O   LIG    1        3.653   6.434  -0.219  0.00  0.00    -0.340 OA
BRANCH  20  21
ATOM     21  C   LIG    1        3.735   7.879  -0.324  0.00  0.00    +0.300 C 
BRANCH  21  22
ATOM     22  C   LIG    1        2.347   8.465  -0.293  0.00  0.00    -0.130 A 
ATOM     23  C   LIG    1        1.771   8.818   0.915  0.00  0.00    +0.140 A 
ATOM     24  C   LIG    1        0.495   9.356   0.943  0.00  0.00    +0.000 A 
ATOM     25  C   LIG    1       -0.202   9.541  -0.236  0.00  0.00    +0.090 A 
ATOM     26  C   LIG    1        0.373   9.190  -1.443  0.00  0.00    +0.030 A 
ATOM     27  F   LIG    1        2.453   8.637   2.067  0.00  0.00    -0.120 F 
ATOM     28  C   LIG    1        1.649   8.656  -1.472  0.00  0.00    +0.010 A 
ATOM     29 CL   LIG    1        2.373   8.221  -2.989  0.00  0.00    -0.040 Cl
ENDBRANCH  21  22
ENDBRANCH  20  21
ENDBRANCH  19  20
ENDBRANCH   1  19
TORSDOF 5
