REMARK  Name = ZINCfA000000bmt5.0
REMARK                            x       y       z     vdW  Elec       q    Type
REMARK                         _______ _______ _______ _____ _____    ______ ____
ROOT
ATOM      1  N   LIG    1       -0.712   2.035  -1.184  0.00  0.00    -0.510 N 
ATOM      2  H   LIG    1       -0.296   1.629  -2.009  0.00  0.00    +0.430 HD
ATOM      3  H   LIG    1       -0.629   3.040  -1.225  0.00  0.00    +0.430 HD
ENDROOT
BRANCH   1  11
ATOM      4  C   LIG    1        1.634   3.233   0.881  0.00  0.00    +0.050 C 
ATOM      5  C   LIG    1        1.453   1.995  -0.001  0.00  0.00    -0.010 C 
ATOM      6  C   LIG    1        2.232   0.792   0.586  0.00  0.00    +0.070 C 
ATOM      7  C   LIG    1        1.486  -0.425  -0.014  0.00  0.00    -0.070 C 
ATOM      8  C   LIG    1        0.002  -0.004   0.002  0.00  0.00    +0.060 C 
ATOM      9  C   LIG    1        1.953  -0.685  -1.448  0.00  0.00    +0.030 C 
ATOM     10  C   LIG    1        1.701  -1.666   0.854  0.00  0.00    +0.040 C 
ATOM     11  C   LIG    1       -0.019   1.534   0.011  0.00  0.00    +0.170 C 
ENDBRANCH   1  11
BRANCH   1  12
ATOM     12  C   LIG    1       -2.132   1.663  -1.118  0.00  0.00    +0.400 C 
BRANCH  12  13
ATOM     13  C   LIG    1       -2.843   2.177  -2.343  0.00  0.00    -0.070 A 
ATOM     14  N   LIG    1       -2.973   1.525  -3.449  0.00  0.00    -0.430 NA
ATOM     15  C   LIG    1       -3.629   2.120  -4.424  0.00  0.00    +0.220 A 
ATOM     16  C   LIG    1       -4.069   3.347  -4.128  0.00  0.00    -0.010 A 
ATOM     17  S   LIG    1       -3.588   3.710  -2.472  0.00  0.00    +0.190 S 
ENDBRANCH  12  13
ENDBRANCH   1  12
TORSDOF 3
