REMARK  Name = ZINCvU0000000FeQ.0
REMARK                            x       y       z     vdW  Elec       q    Type
REMARK                         _______ _______ _______ _____ _____    ______ ____
ROOT
ATOM      1  C   LIG    1        0.985   1.911   0.183  0.00  0.00    +0.130 A 
ATOM      2  C   LIG    1        0.696   3.269   0.120  0.00  0.00    +0.040 A 
ATOM      3  C   LIG    1        1.700   4.197   0.308  0.00  0.00    +0.050 A 
ATOM      4  C   LIG    1        3.001   3.774   0.549  0.00  0.00    +0.150 A 
ATOM      5  C   LIG    1        3.291   2.417   0.606  0.00  0.00    +0.010 A 
ATOM      6  C   LIG    1        2.285   1.488   0.423  0.00  0.00    +0.010 A 
ENDROOT
BRANCH   4   7
ATOM      7  N   LIG    1        4.021   4.716   0.735  0.00  0.00    -0.680 N 
ATOM      8  H   LIG    1        4.916   4.532   0.409  0.00  0.00    +0.410 HD
ATOM      9  C   LIG    1        3.759   5.878   1.367  0.00  0.00    +0.700 C 
ATOM     10  N   LIG    1        4.758   6.743   1.628  0.00  0.00    -0.680 N 
ATOM     11  H   LIG    1        5.652   6.568   1.294  0.00  0.00    +0.410 HD
ATOM     12  O   LIG    1        2.620   6.145   1.700  0.00  0.00    -0.550 OA
BRANCH  10  13
ATOM     13  C   LIG    1        4.507   7.895   2.381  0.00  0.00    +0.160 A 
ATOM     14  C   LIG    1        5.187   9.073   2.100  0.00  0.00    -0.030 A 
ATOM     15  C   LIG    1        4.933  10.210   2.842  0.00  0.00    +0.030 A 
ATOM     16  C   LIG    1        4.011  10.173   3.872  0.00  0.00    -0.010 A 
ATOM     17  C   LIG    1        3.336   9.001   4.158  0.00  0.00    +0.030 A 
ATOM     18  C   LIG    1        3.581   7.862   3.416  0.00  0.00    +0.010 A 
ENDBRANCH  10  13
ENDBRANCH   4   7
BRANCH   1  20
ATOM     19  C   LIG    1       -1.278   1.225   0.450  0.00  0.00    +0.560 C 
ATOM     20  N   LIG    1       -0.035   0.970  -0.002  0.00  0.00    -0.670 N 
ATOM     21  H   LIG    1        0.153   0.135  -0.460  0.00  0.00    +0.410 HD
ATOM     22  O   LIG    1       -1.535   2.305   0.947  0.00  0.00    -0.510 OA
BRANCH  19  26
ATOM     23  C   LIG    1       -4.303  -1.740   0.137  0.00  0.00    +0.190 A 
ATOM     24  C   LIG    1       -4.598  -0.506   0.707  0.00  0.00    +0.020 A 
ATOM     25  C   LIG    1       -3.620   0.458   0.810  0.00  0.00    +0.120 A 
ATOM     26  C   LIG    1       -2.330   0.195   0.341  0.00  0.00    -0.140 A 
ATOM     27  C   LIG    1       -2.039  -1.044  -0.235  0.00  0.00    +0.080 A 
ATOM     28  C   LIG    1       -3.021  -2.006  -0.330  0.00  0.00    +0.000 A 
BRANCH  23  34
ATOM     29  C   LIG    1       -4.562  -3.723  -2.197  0.00  0.00    +0.150 C 
ATOM     30  C   LIG    1       -5.444  -3.608  -0.980  0.00  0.00    +0.090 A 
ATOM     31  C   LIG    1       -6.522  -4.375  -0.700  0.00  0.00    -0.100 A 
ATOM     32  C   LIG    1       -7.059  -3.938   0.516  0.00  0.00    +0.250 A 
ATOM     33  N   LIG    1       -6.328  -2.946   0.956  0.00  0.00    -0.290 NA
ATOM     34  N   LIG    1       -5.299  -2.716   0.034  0.00  0.00    -0.330 N 
ENDBRANCH  23  34
ENDBRANCH  19  26
ENDBRANCH   1  20
TORSDOF 5
