REMARK  Name = ZINCrD00000l1SNK.0
REMARK                            x       y       z     vdW  Elec       q    Type
REMARK                         _______ _______ _______ _____ _____    ______ ____
ROOT
ATOM      1  N   LIG    1        0.082   1.489  -0.128  0.00  0.00    -0.600 N 
ATOM      2  C   LIG    1       -1.029   2.142   0.266  0.00  0.00    +0.500 C 
ATOM      3  O   LIG    1       -1.011   3.348   0.394  0.00  0.00    -0.500 OA
ENDROOT
BRANCH   2   4
ATOM      4  C   LIG    1       -2.294   1.373   0.548  0.00  0.00    +0.160 C 
ATOM      5  C   LIG    1       -2.318   0.860   2.007  0.00  0.00    +0.090 C 
ATOM      6  C   LIG    1       -3.076   1.957   2.730  0.00  0.00    +0.120 C 
ATOM      7  N   LIG    1       -3.671   2.687   1.847  0.00  0.00    -0.260 NA
ATOM      8  O   LIG    1       -3.443   2.244   0.524  0.00  0.00    -0.160 OA
BRANCH   6   9
ATOM      9  C   LIG    1       -3.125   2.157   4.192  0.00  0.00    -0.010 A 
ATOM     10  C   LIG    1       -3.864   3.211   4.732  0.00  0.00    +0.050 A 
ATOM     11  C   LIG    1       -3.906   3.393   6.099  0.00  0.00    +0.050 A 
ATOM     12  C   LIG    1       -3.218   2.533   6.936  0.00  0.00    +0.010 A 
ATOM     13  C   LIG    1       -2.482   1.484   6.408  0.00  0.00    +0.100 A 
ATOM     14  F   LIG    1       -1.812   0.648   7.232  0.00  0.00    -0.130 F 
ATOM     15  C   LIG    1       -2.437   1.288   5.041  0.00  0.00    +0.020 A 
ENDBRANCH   6   9
ENDBRANCH   2   4
BRANCH   1  17
ATOM     16  C   LIG    1        1.393   2.859  -1.674  0.00  0.00    +0.020 C 
ATOM     17  C   LIG    1        1.343   2.219  -0.285  0.00  0.00    +0.270 C 
ENDBRANCH   1  17
BRANCH   1  18
ATOM     18  C   LIG    1        0.028   0.052  -0.406  0.00  0.00    +0.350 C 
BRANCH  18  19
ATOM     19  C   LIG    1        0.300  -0.715   0.863  0.00  0.00    -0.120 A 
ATOM     20  C   LIG    1       -0.740  -1.343   1.524  0.00  0.00    +0.060 A 
ATOM     21  C   LIG    1       -0.499  -2.047   2.686  0.00  0.00    +0.070 A 
ATOM     22  C   LIG    1        0.799  -2.125   3.195  0.00  0.00    +0.020 A 
ATOM     23  C   LIG    1        1.845  -1.490   2.524  0.00  0.00    +0.040 A 
ATOM     24  C   LIG    1        1.592  -0.793   1.359  0.00  0.00    +0.120 A 
ATOM     25  F   LIG    1        2.603  -0.182   0.705  0.00  0.00    -0.120 F 
BRANCH  22  26
ATOM     26  C   LIG    1        1.055  -2.855   4.401  0.00  0.00    +0.240 C 
ATOM     27  N   LIG    1        1.258  -3.433   5.357  0.00  0.00    -0.390 NA
ENDBRANCH  22  26
ENDBRANCH  18  19
ENDBRANCH   1  18
TORSDOF 6
