REMARK  Name = ZINCvU0000000E74.0
REMARK                            x       y       z     vdW  Elec       q    Type
REMARK                         _______ _______ _______ _____ _____    ______ ____
ROOT
ATOM      1  O   LIG    1       -1.460   8.371  -4.343  0.00  0.00    -0.490 OA
ATOM      2  C   LIG    1       -2.023   9.256  -4.952  0.00  0.00    +0.520 C 
ATOM      3  N   LIG    1       -1.311  10.281  -5.462  0.00  0.00    -0.600 N 
ENDROOT
BRANCH   3   4
ATOM      4  C   LIG    1        0.123  10.386  -5.184  0.00  0.00    +0.240 C 
ATOM      5  C   LIG    1        0.864   9.163  -5.762  0.00  0.00    +0.020 C 
ATOM      6  C   LIG    1        1.966   8.858  -4.715  0.00  0.00    +0.010 C 
ATOM      7  C   LIG    1        1.250   9.142  -3.372  0.00  0.00    +0.020 C 
ATOM      8  C   LIG    1        0.369  10.373  -3.665  0.00  0.00    +0.010 C 
ENDBRANCH   3   4
BRANCH   3   9
ATOM      9  C   LIG    1       -1.972  11.290  -6.293  0.00  0.00    +0.340 C 
BRANCH   9  10
ATOM     10  C   LIG    1       -2.393  12.453  -5.431  0.00  0.00    -0.100 A 
ATOM     11  C   LIG    1       -1.486  13.452  -5.130  0.00  0.00    +0.050 A 
ATOM     12  C   LIG    1       -1.867  14.521  -4.340  0.00  0.00    +0.040 A 
ATOM     13  C   LIG    1       -3.160  14.593  -3.848  0.00  0.00    +0.040 A 
ATOM     14  O   LIG    1       -3.779  15.522  -3.062  0.00  0.00    -0.310 OA
ATOM     15  C   LIG    1       -4.957  14.870  -2.552  0.00  0.00    +0.440 C 
ATOM     16  O   LIG    1       -5.265  13.885  -3.556  0.00  0.00    -0.310 OA
ATOM     17  C   LIG    1       -4.074  13.586  -4.152  0.00  0.00    +0.040 A 
ATOM     18  C   LIG    1       -3.687  12.522  -4.949  0.00  0.00    +0.030 A 
ENDBRANCH   9  10
ENDBRANCH   3   9
BRANCH   2  19
ATOM     19  C   LIG    1       -3.517   9.210  -5.140  0.00  0.00    +0.210 C 
BRANCH  19  20
ATOM     20  O   LIG    1       -4.042   8.044  -4.501  0.00  0.00    -0.290 OA
BRANCH  20  21
ATOM     21  C   LIG    1       -5.368   7.796  -4.662  0.00  0.00    +0.150 A 
ATOM     22  C   LIG    1       -5.921   6.625  -4.165  0.00  0.00    -0.010 A 
ATOM     23  C   LIG    1       -7.270   6.375  -4.330  0.00  0.00    +0.080 A 
ATOM     24  C   LIG    1       -8.068   7.292  -4.989  0.00  0.00    -0.110 A 
ATOM     25  C   LIG    1       -7.518   8.457  -5.490  0.00  0.00    +0.110 A 
ATOM     26  C   LIG    1       -6.171   8.714  -5.323  0.00  0.00    -0.080 A 
BRANCH  24  27
ATOM     27  C   LIG    1       -9.539   7.017  -5.167  0.00  0.00    +0.170 C 
ATOM     28  S   LIG    1      -10.546   8.321  -4.370  0.00  0.00    -0.240 S 
ATOM     29  C   LIG    1      -11.930   8.495  -5.532  0.00  0.00    +0.130 C 
ATOM     30  C   LIG    1      -11.805   7.487  -6.679  0.00  0.00    +0.140 C 
ATOM     31  S   LIG    1      -10.022   7.168  -6.933  0.00  0.00    -0.240 S 
ENDBRANCH  24  27
ENDBRANCH  20  21
ENDBRANCH  19  20
ENDBRANCH   2  19
TORSDOF 7
