REMARK  Name = ZINCqH00000088oK.0
REMARK                            x       y       z     vdW  Elec       q    Type
REMARK                         _______ _______ _______ _____ _____    ______ ____
ROOT
ATOM      1  C   LIG    1        0.005   5.622   0.038  0.00  0.00    +0.160 C 
ENDROOT
BRANCH   1   8
ATOM      2  C   LIG    1       -5.116   7.705   2.112  0.00  0.00    +0.250 A 
ATOM      3  N   LIG    1       -3.922   7.414   2.589  0.00  0.00    -0.310 NA
ATOM      4  N   LIG    1       -3.155   6.947   1.514  0.00  0.00    -0.320 N 
ATOM      5  C   LIG    1       -3.963   6.987   0.413  0.00  0.00    +0.470 A 
ATOM      6  N   LIG    1       -3.500   6.595  -0.779  0.00  0.00    -0.460 NA
ATOM      7  C   LIG    1       -2.265   6.166  -0.915  0.00  0.00    +0.260 A 
ATOM      8  C   LIG    1       -1.411   6.113   0.192  0.00  0.00    -0.180 A 
ATOM      9  C   LIG    1       -1.767   5.731  -2.269  0.00  0.00    +0.170 C 
ATOM     10  C   LIG    1       -1.875   6.504   1.407  0.00  0.00    +0.220 A 
ATOM     11  C   LIG    1       -0.981   6.452   2.619  0.00  0.00    +0.160 C 
ATOM     12  N   LIG    1       -5.146   7.450   0.806  0.00  0.00    -0.530 NA
BRANCH   2  14
ATOM     13  C   LIG    1       -7.780   8.511   1.823  0.00  0.00    +0.150 C 
ATOM     14  S   LIG    1       -6.463   8.334   3.058  0.00  0.00    +0.040 S 
ENDBRANCH   2  14
ENDBRANCH   1   8
BRANCH   1  15
ATOM     15  C   LIG    1        0.029   4.118   0.134  0.00  0.00    +0.510 C 
ATOM     16  N   LIG    1        1.197   3.454   0.024  0.00  0.00    -0.670 N 
ATOM     17  H   LIG    1        2.031   3.946  -0.035  0.00  0.00    +0.410 HD
ATOM     18  O   LIG    1       -1.003   3.506   0.309  0.00  0.00    -0.510 OA
BRANCH  16  19
ATOM     19  C   LIG    1        1.206   2.055  -0.004  0.00  0.00    +0.140 A 
ATOM     20  C   LIG    1        0.165   1.365  -0.610  0.00  0.00    +0.010 A 
ATOM     21  C   LIG    1        0.177  -0.017  -0.637  0.00  0.00    +0.020 A 
ATOM     22  C   LIG    1        1.224  -0.711  -0.060  0.00  0.00    -0.010 A 
ATOM     23  C   LIG    1        2.262  -0.026   0.546  0.00  0.00    +0.030 A 
ATOM     24  C   LIG    1        2.256   1.354   0.575  0.00  0.00    -0.100 A 
BRANCH  24  25
ATOM     25  C   LIG    1        3.388   2.100   1.234  0.00  0.00    +0.020 C 
ATOM     26  C   LIG    1        4.717   1.659   0.618  0.00  0.00    +0.030 C 
ATOM     27  C   LIG    1        3.394   1.794   2.734  0.00  0.00    +0.030 C 
ENDBRANCH  24  25
ENDBRANCH  16  19
ENDBRANCH   1  15
TORSDOF 5
