REMARK  Name = ZINCrH000004lEOZ.0
REMARK                            x       y       z     vdW  Elec       q    Type
REMARK                         _______ _______ _______ _____ _____    ______ ____
ROOT
ATOM      1  C   LIG    1       -1.048  -0.563   1.051  0.00  0.00    +0.520 C 
ATOM      2  N   LIG    1       -1.296  -1.855   1.343  0.00  0.00    -0.540 N 
ATOM      3  O   LIG    1        0.037  -0.236   0.618  0.00  0.00    -0.480 OA
ENDROOT
BRANCH   2   4
ATOM      4  C   LIG    1       -0.265  -2.799   1.272  0.00  0.00    +0.150 A 
ATOM      5  C   LIG    1       -0.485  -4.101   1.704  0.00  0.00    +0.000 A 
ATOM      6  C   LIG    1        0.530  -5.037   1.637  0.00  0.00    +0.050 A 
ATOM      7  C   LIG    1        1.768  -4.685   1.140  0.00  0.00    +0.040 A 
ATOM      8  C   LIG    1        1.999  -3.379   0.703  0.00  0.00    -0.000 A 
ATOM      9  C   LIG    1        0.973  -2.436   0.766  0.00  0.00    +0.070 A 
BRANCH   8  10
ATOM     10  C   LIG    1        3.283  -3.011   0.186  0.00  0.00    +0.250 C 
ATOM     11  N   LIG    1        4.301  -2.719  -0.223  0.00  0.00    -0.410 NA
ENDBRANCH   8  10
ENDBRANCH   2   4
BRANCH   1  12
ATOM     12  C   LIG    1       -2.118   0.477   1.262  0.00  0.00    +0.170 C 
BRANCH  12  13
ATOM     13  C   LIG    1       -1.786   1.306   2.505  0.00  0.00    -0.030 C 
ATOM     14  C   LIG    1       -2.880   2.378   2.762  0.00  0.00    +0.020 C 
ATOM     15  C   LIG    1       -2.769   2.543   4.301  0.00  0.00    +0.210 C 
ATOM     16  O   LIG    1       -2.480   1.229   4.803  0.00  0.00    -0.380 OA
ATOM     17  C   LIG    1       -1.863   0.439   3.780  0.00  0.00    +0.200 C 
ENDBRANCH  12  13
BRANCH  12  19
ATOM     18  C   LIG    1       -3.481   1.873  -0.130  0.00  0.00    +0.220 C 
ATOM     19  O   LIG    1       -2.182   1.334   0.121  0.00  0.00    -0.350 OA
ENDBRANCH  12  19
ENDBRANCH   1  12
BRANCH   2  20
ATOM     20  C   LIG    1       -2.645  -2.271   1.735  0.00  0.00    +0.350 C 
BRANCH  20  21
ATOM     21  C   LIG    1       -3.380  -2.792   0.527  0.00  0.00    -0.110 A 
ATOM     22  C   LIG    1       -4.029  -1.913  -0.320  0.00  0.00    +0.040 A 
ATOM     23  C   LIG    1       -4.700  -2.390  -1.430  0.00  0.00    +0.030 A 
ATOM     24  C   LIG    1       -4.731  -3.749  -1.688  0.00  0.00    -0.020 A 
ATOM     25  C   LIG    1       -4.085  -4.629  -0.838  0.00  0.00    +0.030 A 
ATOM     26 CL   LIG    1       -5.579  -4.349  -3.079  0.00  0.00    -0.060 Cl
ATOM     27  C   LIG    1       -3.410  -4.150   0.269  0.00  0.00    +0.060 A 
ENDBRANCH  20  21
ENDBRANCH   2  20
TORSDOF 7
