REMARK  Name = ZINCkj000005g1R4.0
REMARK                            x       y       z     vdW  Elec       q    Type
REMARK                         _______ _______ _______ _____ _____    ______ ____
ROOT
ATOM      1  C   LIG    1        6.056   2.147  -0.044  0.00  0.00    +0.170 C 
ATOM      2  C   LIG    1        7.350   1.344  -0.187  0.00  0.00    +0.030 C 
ENDROOT
BRANCH   1   6
ATOM      3  N   LIG    1        6.828   4.345  -3.572  0.00  0.00    -0.390 N 
ATOM      4  C   LIG    1        6.801   5.073  -2.297  0.00  0.00    +0.280 C 
ATOM      5  C   LIG    1        7.001   4.088  -1.142  0.00  0.00    +0.210 C 
ATOM      6  N   LIG    1        5.932   3.080  -1.173  0.00  0.00    -0.530 NA
ATOM      7  C   LIG    1        5.931   2.359  -2.454  0.00  0.00    +0.220 C 
ATOM      8  C   LIG    1        5.740   3.358  -3.597  0.00  0.00    +0.270 C 
ATOM      9  H   LIG    1        7.714   3.871  -3.670  0.00  0.00    +0.420 HD
BRANCH   3  11
ATOM     10  C   LIG    1        6.807   4.554  -6.012  0.00  0.00    +0.080 C 
ATOM     11  C   LIG    1        6.655   5.293  -4.681  0.00  0.00    +0.250 C 
ENDBRANCH   3  11
ENDBRANCH   1   6
BRANCH   1  12
ATOM     12  C   LIG    1        4.861   1.192  -0.038  0.00  0.00    +0.290 C 
BRANCH  12  13
ATOM     13  N   LIG    1        3.617   1.967  -0.022  0.00  0.00    -0.710 N 
ATOM     14  H   LIG    1        3.650   2.936  -0.017  0.00  0.00    +0.410 HD
BRANCH  13  15
ATOM     15  C   LIG    1        2.397   1.315  -0.014  0.00  0.00    +0.440 A 
ATOM     16  N   LIG    1        2.357  -0.008  -0.021  0.00  0.00    -0.540 NA
ATOM     17  C   LIG    1        1.215  -0.669  -0.013  0.00  0.00    +0.350 A 
ATOM     18  C   LIG    1        0.002  -0.004   0.002  0.00  0.00    -0.080 A 
ATOM     19  C   LIG    1       -0.017   1.380   0.010  0.00  0.00    +0.170 A 
ATOM     20  C   LIG    1        1.205   2.061   0.002  0.00  0.00    -0.160 A 
BRANCH  20  21
ATOM     21  C   LIG    1        1.242   3.493   0.009  0.00  0.00    +0.260 C 
ATOM     22  N   LIG    1        1.271   4.628   0.015  0.00  0.00    -0.420 NA
ENDBRANCH  20  21
ENDBRANCH  13  15
ENDBRANCH  12  13
ENDBRANCH   1  12
TORSDOF 6
