REMARK  Name = ZINCqH000000002M.0
REMARK                            x       y       z     vdW  Elec       q    Type
REMARK                         _______ _______ _______ _____ _____    ______ ____
ROOT
ATOM      1  C   LIG    1       -3.129  -1.715   0.022  0.00  0.00    +0.180 A 
ATOM      2  N   LIG    1       -2.268  -2.690   0.009  0.00  0.00    -0.370 NA
ATOM      3  O   LIG    1       -1.136  -2.256   0.000  0.00  0.00    +0.100 OA
ATOM      4  C   LIG    1       -1.166  -0.915   0.008  0.00  0.00    +0.260 A 
ATOM      5  N   LIG    1       -2.438  -0.565   0.027  0.00  0.00    -0.440 NA
ENDROOT
BRANCH   4   6
ATOM      6  C   LIG    1        0.002  -0.004   0.002  0.00  0.00    +0.090 A 
ATOM      7  N   LIG    1       -0.016   1.312   0.009  0.00  0.00    -0.310 NA
ATOM      8  O   LIG    1        1.108   1.772   0.001  0.00  0.00    +0.140 OA
ATOM      9  C   LIG    1        2.031   0.811  -0.012  0.00  0.00    -0.020 A 
ATOM     10  C   LIG    1        3.533   0.924  -0.023  0.00  0.00    +0.160 C 
ATOM     11  C   LIG    1        4.121  -0.433   0.385  0.00  0.00    +0.040 C 
ATOM     12  C   LIG    1        3.480  -1.546  -0.449  0.00  0.00    +0.030 C 
ATOM     13  C   LIG    1        2.013  -1.720  -0.030  0.00  0.00    +0.130 C 
ATOM     14  C   LIG    1        1.365  -0.366  -0.013  0.00  0.00    -0.170 A 
ENDBRANCH   4   6
BRANCH   1  15
ATOM     15  C   LIG    1       -4.629  -1.853   0.036  0.00  0.00    +0.250 C 
BRANCH  15  19
ATOM     16 BR   LIG    1       -5.829  -4.844   4.293  0.00  0.00    -0.020 Br
ATOM     17  C   LIG    1       -5.676  -3.177   3.414  0.00  0.00    -0.090 A 
ATOM     18  C   LIG    1       -5.234  -3.125   2.105  0.00  0.00    +0.070 A 
ATOM     19  C   LIG    1       -5.115  -1.907   1.461  0.00  0.00    -0.080 A 
ATOM     20  C   LIG    1       -5.447  -0.739   2.121  0.00  0.00    +0.070 A 
ATOM     21  C   LIG    1       -5.895  -0.784   3.433  0.00  0.00    +0.060 A 
ATOM     22  O   LIG    1       -6.214   0.375   4.071  0.00  0.00    -0.300 OA
ATOM     23  C   LIG    1       -7.010   0.260   5.256  0.00  0.00    +0.230 C 
ATOM     24  C   LIG    1       -6.421  -0.860   6.124  0.00  0.00    +0.230 C 
ATOM     25  O   LIG    1       -6.453  -2.076   5.367  0.00  0.00    -0.290 OA
ATOM     26  C   LIG    1       -6.011  -2.008   4.082  0.00  0.00    +0.080 A 
ENDBRANCH  15  19
ENDBRANCH   1  15
TORSDOF 3
