REMARK  Name = ZINCvU0000000EGl.0
REMARK                            x       y       z     vdW  Elec       q    Type
REMARK                         _______ _______ _______ _____ _____    ______ ____
ROOT
ATOM      1  N   LIG    1       -0.105  -0.016  -0.118  0.00  0.00    -0.310 N 
ATOM      2  N   LIG    1        0.802  -0.840  -0.804  0.00  0.00    -0.270 NA
ATOM      3  C   LIG    1        0.611  -2.061  -0.375  0.00  0.00    +0.220 A 
ATOM      4  N   LIG    1       -0.362  -2.063   0.530  0.00  0.00    -0.490 NA
ATOM      5  C   LIG    1       -0.813  -0.837   0.705  0.00  0.00    +0.310 A 
ENDROOT
BRANCH   5   6
ATOM      6  C   LIG    1       -1.894  -0.427   1.627  0.00  0.00    -0.040 A 
ATOM      7  C   LIG    1       -1.707   0.655   2.488  0.00  0.00    +0.150 A 
ATOM      8  C   LIG    1       -2.719   1.036   3.343  0.00  0.00    +0.020 A 
ATOM      9  C   LIG    1       -3.918   0.341   3.356  0.00  0.00    +0.190 A 
ATOM     10  C   LIG    1       -4.108  -0.738   2.507  0.00  0.00    -0.220 A 
ATOM     11  F   LIG    1       -4.904   0.715   4.200  0.00  0.00    -0.110 F 
ATOM     12  C   LIG    1       -3.103  -1.125   1.644  0.00  0.00    +0.070 A 
ATOM     13 CL   LIG    1       -3.342  -2.477   0.582  0.00  0.00    +0.010 Cl
BRANCH  10  14
ATOM     14  C   LIG    1       -5.414  -1.490   2.528  0.00  0.00    +0.510 C 
ATOM     15  F   LIG    1       -5.669  -2.015   1.256  0.00  0.00    -0.160 F 
ATOM     16  F   LIG    1       -6.448  -0.619   2.888  0.00  0.00    -0.170 F 
ATOM     17  F   LIG    1       -5.337  -2.533   3.457  0.00  0.00    -0.160 F 
ENDBRANCH  10  14
ENDBRANCH   5   6
BRANCH   1  21
ATOM     18  C   LIG    1       -0.549   4.110  -0.529  0.00  0.00    +0.150 A 
ATOM     19  C   LIG    1        0.720   3.551  -0.477  0.00  0.00    +0.010 A 
ATOM     20  C   LIG    1        0.868   2.185  -0.341  0.00  0.00    +0.090 A 
ATOM     21  C   LIG    1       -0.254   1.371  -0.256  0.00  0.00    +0.090 A 
ATOM     22  C   LIG    1       -1.524   1.930  -0.314  0.00  0.00    +0.060 A 
ATOM     23  C   LIG    1       -1.670   3.297  -0.445  0.00  0.00    -0.050 A 
BRANCH  18  24
ATOM     24  O   LIG    1       -0.694   5.455  -0.663  0.00  0.00    -0.310 OA
BRANCH  24  26
ATOM     25  C   LIG    1       -1.991   7.484  -0.863  0.00  0.00    +0.070 C 
ATOM     26  C   LIG    1       -2.029   5.962  -0.710  0.00  0.00    +0.190 C 
ENDBRANCH  24  26
ENDBRANCH  18  24
ENDBRANCH   1  21
BRANCH   3  27
ATOM     27  C   LIG    1        1.372  -3.276  -0.840  0.00  0.00    +0.300 C 
ATOM     28  C   LIG    1        2.787  -3.276  -0.225  0.00  0.00    +0.030 C 
ATOM     29  C   LIG    1        3.659  -3.792  -1.402  0.00  0.00    +0.020 C 
ATOM     30  C   LIG    1        2.911  -3.179  -2.612  0.00  0.00    +0.200 C 
ATOM     31  O   LIG    1        1.519  -3.242  -2.265  0.00  0.00    -0.360 OA
ENDBRANCH   3  27
TORSDOF 6
