REMARK  Name = ZINCrg000000s9Tg.0
REMARK                            x       y       z     vdW  Elec       q    Type
REMARK                         _______ _______ _______ _____ _____    ______ ____
ROOT
ATOM      1  C   LIG    1       -7.440   0.393  -0.893  0.00  0.00    +0.520 C 
ATOM      2  N   LIG    1       -6.493   0.591   0.045  0.00  0.00    -0.610 N 
ATOM      3  C   LIG    1       -6.773   1.415   1.228  0.00  0.00    +0.270 C 
ATOM      4  C   LIG    1       -5.698   2.502   1.338  0.00  0.00    +0.020 C 
ATOM      5  C   LIG    1       -4.315   1.846   1.341  0.00  0.00    +0.020 C 
ATOM      6  C   LIG    1       -4.104   1.089   0.027  0.00  0.00    +0.000 C 
ATOM      7  C   LIG    1       -5.161  -0.013  -0.098  0.00  0.00    +0.310 C 
ATOM      8  O   LIG    1       -7.197  -0.290  -1.866  0.00  0.00    -0.520 OA
ENDROOT
BRANCH   1  11
ATOM      9  N   LIG    1       -9.555   1.748  -2.890  0.00  0.00    -0.570 N 
ATOM     10  C   LIG    1       -9.720   0.657  -1.922  0.00  0.00    +0.310 C 
ATOM     11  C   LIG    1       -8.802   1.019  -0.733  0.00  0.00    +0.000 C 
ATOM     12  C   LIG    1       -8.721   2.558  -0.855  0.00  0.00    +0.080 C 
ATOM     13  C   LIG    1       -9.002   2.830  -2.316  0.00  0.00    +0.520 C 
ATOM     14  O   LIG    1       -8.763   3.874  -2.887  0.00  0.00    -0.510 OA
BRANCH   9  19
ATOM     15  C   LIG    1      -11.068   1.441  -8.352  0.00  0.00    +0.100 C 
ATOM     16  C   LIG    1      -10.665   1.522  -6.902  0.00  0.00    -0.050 A 
ATOM     17  C   LIG    1      -11.571   1.970  -5.959  0.00  0.00    +0.010 A 
ATOM     18  C   LIG    1      -11.206   2.046  -4.628  0.00  0.00    +0.060 A 
ATOM     19  C   LIG    1       -9.928   1.672  -4.238  0.00  0.00    +0.100 A 
ATOM     20  C   LIG    1       -9.016   1.227  -5.189  0.00  0.00    +0.120 A 
ATOM     21  F   LIG    1       -7.769   0.866  -4.814  0.00  0.00    -0.120 F 
ATOM     22  C   LIG    1       -9.390   1.148  -6.518  0.00  0.00    -0.010 A 
ENDBRANCH   9  19
ENDBRANCH   1  11
BRANCH   6  23
ATOM     23  C   LIG    1       -2.709   0.462   0.017  0.00  0.00    -0.340 C 
BRANCH  23  24
ATOM     24  S   LIG    1       -1.456   1.774   0.019  0.00  0.00    +2.610 S 
ATOM     25  O   LIG    1       -1.472   2.480  -1.214  0.00  0.00    -0.960 OA
ATOM     26  O   LIG    1       -1.461   2.467   1.259  0.00  0.00    -0.960 OA
BRANCH  24  27
ATOM     27  N   LIG    1       -0.011   0.966   0.007  0.00  0.00    -1.250 NA
ATOM     28  H   LIG    1        0.822   1.462   0.002  0.00  0.00    +0.420 HD
ATOM     29  H   LIG    1        0.002  -0.004   0.002  0.00  0.00    +0.410 HD
ENDBRANCH  24  27
ENDBRANCH  23  24
ENDBRANCH   6  23
TORSDOF 5
