REMARK  Name = ZINCrD000000fYJV.0
REMARK                            x       y       z     vdW  Elec       q    Type
REMARK                         _______ _______ _______ _____ _____    ______ ____
ROOT
ATOM      1  C   LIG    1       -1.760   2.007  -0.025  0.00  0.00    +0.600 C 
ATOM      2  N   LIG    1       -0.521   1.542   0.234  0.00  0.00    -0.650 N 
ATOM      3  H   LIG    1       -0.367   0.587   0.307  0.00  0.00    +0.420 HD
ATOM      4  O   LIG    1       -1.937   3.198  -0.205  0.00  0.00    -0.490 OA
ENDROOT
BRANCH   2   5
ATOM      5  C   LIG    1        0.544   2.437   0.392  0.00  0.00    +0.130 A 
ATOM      6  C   LIG    1        0.294   3.755   0.736  0.00  0.00    +0.060 A 
ATOM      7  C   LIG    1        1.341   4.644   0.895  0.00  0.00    +0.020 A 
ATOM      8  C   LIG    1        2.643   4.214   0.712  0.00  0.00    +0.050 A 
ATOM      9  C   LIG    1        2.897   2.902   0.372  0.00  0.00    -0.150 A 
ATOM     10  C   LIG    1        4.189   2.147   0.128  0.00  0.00    +0.080 C 
ATOM     11  C   LIG    1        3.718   0.673   0.215  0.00  0.00    +0.100 C 
ATOM     12  C   LIG    1        4.476  -0.197  -0.789  0.00  0.00    +0.080 C 
ATOM     13  C   LIG    1        3.879   0.124   1.635  0.00  0.00    +0.050 C 
ATOM     14  O   LIG    1        2.328   0.766  -0.140  0.00  0.00    -0.300 OA
ATOM     15  C   LIG    1        1.859   1.997   0.207  0.00  0.00    +0.080 A 
ENDBRANCH   2   5
BRANCH   1  19
ATOM     16  C   LIG    1       -4.061  -0.777  -0.043  0.00  0.00    -0.550 A 
ATOM     17  C   LIG    1       -4.931   0.222  -0.311  0.00  0.00    +0.090 A 
ATOM     18  C   LIG    1       -4.192   1.415  -0.343  0.00  0.00    +0.050 A 
ATOM     19  C   LIG    1       -2.893   1.079  -0.090  0.00  0.00    -0.030 A 
ATOM     20  O   LIG    1       -2.833  -0.258   0.083  0.00  0.00    -0.110 OA
BRANCH  16  21
ATOM     21  S   LIG    1       -4.474  -2.484   0.106  0.00  0.00    +2.720 S 
ATOM     22  O   LIG    1       -5.802  -2.533   0.610  0.00  0.00    -0.930 OA
ATOM     23  O   LIG    1       -3.374  -3.107   0.755  0.00  0.00    -0.930 OA
BRANCH  21  24
ATOM     24  N   LIG    1       -4.531  -3.111  -1.425  0.00  0.00    -1.100 NA
ATOM     25  H   LIG    1       -5.375  -3.417  -1.793  0.00  0.00    +0.420 HD
BRANCH  24  27
ATOM     26  C   LIG    1       -2.361  -4.228  -1.593  0.00  0.00    +0.040 C 
ATOM     27  C   LIG    1       -3.307  -3.204  -2.224  0.00  0.00    +0.170 C 
ATOM     28  C   LIG    1       -2.621  -1.837  -2.268  0.00  0.00    +0.030 C 
ATOM     29  C   LIG    1       -3.658  -3.644  -3.647  0.00  0.00    +0.060 C 
ENDBRANCH  24  27
ENDBRANCH  21  24
ENDBRANCH  16  21
ENDBRANCH   1  19
TORSDOF 5
