REMARK  Name = ZINCqH0000034ZD3.0
REMARK                            x       y       z     vdW  Elec       q    Type
REMARK                         _______ _______ _______ _____ _____    ______ ____
ROOT
ATOM      1  C   LIG    1        0.107   1.601   2.385  0.00  0.00    +0.230 C 
ENDROOT
BRANCH   1   2
ATOM      2  C   LIG    1       -0.638   2.228   3.535  0.00  0.00    -0.030 A 
ATOM      3  C   LIG    1       -1.980   1.954   3.721  0.00  0.00    +0.020 A 
ATOM      4  C   LIG    1       -2.664   2.526   4.780  0.00  0.00    +0.130 A 
ATOM      5  C   LIG    1       -2.006   3.381   5.648  0.00  0.00    -0.030 A 
ATOM      6  C   LIG    1       -0.663   3.659   5.458  0.00  0.00    +0.130 A 
ATOM      7  F   LIG    1       -0.019   4.492   6.304  0.00  0.00    -0.130 F 
ATOM      8  F   LIG    1       -3.974   2.254   4.964  0.00  0.00    -0.130 F 
ATOM      9  C   LIG    1        0.020   3.082   4.401  0.00  0.00    +0.010 A 
ENDBRANCH   1   2
BRANCH   1  10
ATOM     10  N   LIG    1       -0.753   1.587   1.194  0.00  0.00    -0.490 NA
ATOM     11  C   LIG    1       -1.162   2.965   0.812  0.00  0.00    +0.210 C 
ATOM     12  C   LIG    1       -1.562   2.857  -0.675  0.00  0.00    -0.040 C 
ATOM     13  C   LIG    1       -2.334   1.615  -1.125  0.00  0.00    +0.100 C 
ATOM     14  C   LIG    1       -0.806   1.620  -1.204  0.00  0.00    -0.110 C 
ATOM     15  C   LIG    1       -0.013   1.086   0.008  0.00  0.00    +0.220 C 
BRANCH  14  16
ATOM     16  C   LIG    1       -0.131   1.583  -2.551  0.00  0.00    -0.040 A 
ATOM     17  C   LIG    1       -0.197   2.682  -3.387  0.00  0.00    +0.010 A 
ATOM     18  C   LIG    1        0.426   2.650  -4.621  0.00  0.00    +0.000 A 
ATOM     19  C   LIG    1        1.105   1.515  -5.023  0.00  0.00    -0.090 A 
ATOM     20  C   LIG    1        1.166   0.414  -4.189  0.00  0.00    +0.000 A 
ATOM     21  C   LIG    1        1.780   1.478  -6.370  0.00  0.00    +0.090 C 
ATOM     22  C   LIG    1        0.548   0.448  -2.953  0.00  0.00    +0.010 A 
ENDBRANCH  14  16
ENDBRANCH   1  10
BRANCH   1  23
ATOM     23  C   LIG    1        0.489   0.189   2.744  0.00  0.00    +0.470 C 
ATOM     24  O   LIG    1        0.087  -0.735   2.077  0.00  0.00    -0.480 OA
BRANCH  23  26
ATOM     25  C   LIG    1        1.605  -1.429   4.093  0.00  0.00    +0.280 C 
ATOM     26  O   LIG    1        1.278  -0.043   3.806  0.00  0.00    -0.360 OA
ENDBRANCH  23  26
ENDBRANCH   1  23
TORSDOF 5
