REMARK  Name = ZINCpk00000e9G6l.0
REMARK                            x       y       z     vdW  Elec       q    Type
REMARK                         _______ _______ _______ _____ _____    ______ ____
ROOT
ATOM      1  C   LIG    1       -0.807   8.113  -0.667  0.00  0.00    +0.270 C 
ENDROOT
BRANCH   1   7
ATOM      2  C   LIG    1       -0.752  10.594  -0.969  0.00  0.00    +0.260 C 
ATOM      3  O   LIG    1       -1.119  11.670  -1.834  0.00  0.00    -0.380 OA
ATOM      4  C   LIG    1       -0.560  11.582  -3.146  0.00  0.00    +0.220 C 
ATOM      5  C   LIG    1       -1.052  10.300  -3.824  0.00  0.00    -0.010 C 
ATOM      6  C   LIG    1       -0.664   9.095  -2.962  0.00  0.00    +0.020 C 
ATOM      7  C   LIG    1       -1.252   9.273  -1.559  0.00  0.00    -0.030 C 
BRANCH   2  12
ATOM      8  N   LIG    1       -2.486  11.521   0.651  0.00  0.00    -0.350 N 
ATOM      9  N   LIG    1       -2.720  11.464   2.031  0.00  0.00    -0.290 NA
ATOM     10  C   LIG    1       -1.777  10.739   2.575  0.00  0.00    +0.230 A 
ATOM     11  C   LIG    1       -0.917  10.306   1.561  0.00  0.00    -0.120 A 
ATOM     12  C   LIG    1       -1.373  10.805   0.388  0.00  0.00    +0.090 A 
BRANCH   8  14
ATOM     13  C   LIG    1       -4.396  11.296  -0.861  0.00  0.00    +0.030 C 
ATOM     14  C   LIG    1       -3.306  12.232  -0.334  0.00  0.00    +0.330 C 
ENDBRANCH   8  14
ENDBRANCH   2  12
ENDBRANCH   1   7
BRANCH   1  15
ATOM     15  N   LIG    1       -1.379   6.862  -1.170  0.00  0.00    -0.740 N 
ATOM     16  H   LIG    1       -1.944   6.870  -1.958  0.00  0.00    +0.390 HD
BRANCH  15  17
ATOM     17  C   LIG    1       -1.109   5.648  -0.509  0.00  0.00    +0.070 A 
ATOM     18  C   LIG    1       -1.569   4.423  -0.870  0.00  0.00    +0.140 A 
ATOM     19  N   LIG    1       -1.083   3.523   0.026  0.00  0.00    -0.370 N 
ATOM     20  N   LIG    1       -0.299   4.221   0.954  0.00  0.00    -0.240 NA
ATOM     21  C   LIG    1       -0.314   5.490   0.634  0.00  0.00    +0.190 A 
BRANCH  19  22
ATOM     22  C   LIG    1       -1.331   2.079   0.020  0.00  0.00    +0.360 C 
BRANCH  22  23
ATOM     23  C   LIG    1       -0.016   1.344   0.009  0.00  0.00    +0.490 C 
ATOM     24  N   LIG    1        0.002  -0.004   0.002  0.00  0.00    -0.740 N 
ATOM     25  H   LIG    1       -0.831  -0.500   0.007  0.00  0.00    +0.400 HD
ATOM     26  C   LIG    1        1.281  -0.719  -0.014  0.00  0.00    +0.290 C 
ATOM     27  O   LIG    1        1.026   1.964   0.003  0.00  0.00    -0.510 OA
ENDBRANCH  22  23
ENDBRANCH  19  22
ENDBRANCH  15  17
ENDBRANCH   1  15
TORSDOF 7
