REMARK  Name = ZINCtV00001bB3ec.0
REMARK                            x       y       z     vdW  Elec       q    Type
REMARK                         _______ _______ _______ _____ _____    ______ ____
ROOT
ATOM      1  C   LIG    1        1.130   1.932   0.002  0.00  0.00    +0.310 A 
ATOM      2  N   LIG    1       -0.016   1.330   0.009  0.00  0.00    -0.460 NA
ATOM      3  C   LIG    1        0.002  -0.004   0.002  0.00  0.00    +0.110 A 
ATOM      4  C   LIG    1        1.234  -0.560  -0.013  0.00  0.00    -0.060 A 
ATOM      5  S   LIG    1        2.425   0.739  -0.017  0.00  0.00    +0.100 S 
ENDROOT
BRANCH   1   8
ATOM      6  C   LIG    1        0.437   5.625   0.027  0.00  0.00    +0.110 C 
ATOM      7  C   LIG    1        0.241   4.130   0.021  0.00  0.00    +0.510 C 
ATOM      8  N   LIG    1        1.311   3.311   0.007  0.00  0.00    -0.480 N 
ATOM      9  O   LIG    1       -0.879   3.666   0.029  0.00  0.00    -0.470 OA
BRANCH   8  10
ATOM     10  C   LIG    1        2.605   3.847  -0.003  0.00  0.00    +0.100 A 
ATOM     11  C   LIG    1        3.238   4.114  -1.209  0.00  0.00    +0.030 A 
ATOM     12  C   LIG    1        4.512   4.649  -1.215  0.00  0.00    +0.020 A 
ATOM     13  C   LIG    1        5.160   4.907  -0.021  0.00  0.00    +0.030 A 
ATOM     14  C   LIG    1        4.534   4.637   1.182  0.00  0.00    -0.080 A 
ATOM     15  C   LIG    1        5.245   4.920   2.481  0.00  0.00    +0.100 C 
ATOM     16  C   LIG    1        3.259   4.108   1.195  0.00  0.00    -0.060 A 
ATOM     17  C   LIG    1        2.577   3.814   2.506  0.00  0.00    +0.100 C 
ENDBRANCH   8  10
ENDBRANCH   1   8
BRANCH   3  18
ATOM     18  C   LIG    1       -1.228  -0.810   0.009  0.00  0.00    +0.100 C 
ATOM     19  C   LIG    1       -2.430  -0.204   0.024  0.00  0.00    +0.060 C 
BRANCH  19  20
ATOM     20  C   LIG    1       -3.659  -1.010   0.031  0.00  0.00    +0.190 A 
ATOM     21  N   LIG    1       -3.568  -2.331   0.022  0.00  0.00    -0.470 NA
ATOM     22  C   LIG    1       -4.660  -3.100   0.028  0.00  0.00    +0.130 A 
ATOM     23  C   LIG    1       -4.557  -4.502   0.019  0.00  0.00    +0.050 A 
ATOM     24  C   LIG    1       -5.686  -5.263   0.024  0.00  0.00    +0.030 A 
ATOM     25  C   LIG    1       -6.948  -4.675   0.039  0.00  0.00    +0.010 A 
ATOM     26  C   LIG    1       -7.088  -3.320   0.049  0.00  0.00    +0.030 A 
ATOM     27  C   LIG    1       -5.947  -2.504   0.044  0.00  0.00    -0.110 A 
ATOM     28  C   LIG    1       -6.054  -1.097   0.053  0.00  0.00    +0.080 A 
ATOM     29  C   LIG    1       -4.909  -0.361   0.052  0.00  0.00    -0.020 A 
ENDBRANCH  19  20
ENDBRANCH   3  18
TORSDOF 4
