REMARK  Name = ZINCrD000000fuX9.0
REMARK                            x       y       z     vdW  Elec       q    Type
REMARK                         _______ _______ _______ _____ _____    ______ ____
ROOT
ATOM      1  N   LIG    1        3.696   1.655  -0.402  0.00  0.00    -0.450 N 
ATOM      2  C   LIG    1        4.609   0.647  -0.279  0.00  0.00    +0.160 A 
ATOM      3  N   LIG    1        3.968  -0.404   0.184  0.00  0.00    -0.290 NA
ATOM      4  N   LIG    1        2.727  -0.122   0.362  0.00  0.00    -0.250 NA
ATOM      5  C   LIG    1        2.497   1.124   0.015  0.00  0.00    +0.220 A 
ENDROOT
BRANCH   5   6
ATOM      6  C   LIG    1        1.198   1.825   0.070  0.00  0.00    +0.030 A 
ATOM      7  C   LIG    1       -0.004   1.109   0.142  0.00  0.00    +0.020 A 
ATOM      8  C   LIG    1       -1.194   1.804   0.186  0.00  0.00    +0.280 A 
ATOM      9  N   LIG    1       -1.210   3.123   0.171  0.00  0.00    -0.480 NA
ATOM     10  C   LIG    1       -0.101   3.836   0.103  0.00  0.00    +0.270 A 
ATOM     11  C   LIG    1        1.133   3.224   0.051  0.00  0.00    -0.040 A 
ENDBRANCH   5   6
BRANCH   1  12
ATOM     12  C   LIG    1        3.942   3.018  -0.879  0.00  0.00    +0.350 C 
BRANCH  12  14
ATOM     13  C   LIG    1        5.511   4.547   0.200  0.00  0.00    +0.090 C 
ATOM     14  C   LIG    1        4.384   3.882   0.274  0.00  0.00    -0.080 C 
ENDBRANCH  12  14
ENDBRANCH   1  12
BRANCH   2  15
ATOM     15  S   LIG    1        6.325   0.738  -0.667  0.00  0.00    +0.050 S 
BRANCH  15  16
ATOM     16  C   LIG    1        6.832  -0.948  -0.247  0.00  0.00    +0.070 C 
BRANCH  16  17
ATOM     17  C   LIG    1        8.330  -1.111  -0.511  0.00  0.00    +0.250 C 
BRANCH  17  18
ATOM     18  O   LIG    1        9.065  -0.263   0.375  0.00  0.00    -0.540 OA
ATOM     19  H   LIG    1        8.918  -0.452   1.312  0.00  0.00    +0.380 HD
ENDBRANCH  17  18
BRANCH  17  20
ATOM     20  C   LIG    1        8.734  -2.567  -0.275  0.00  0.00    +0.180 C 
BRANCH  20  21
ATOM     21  O   LIG    1       10.106  -2.745  -0.633  0.00  0.00    -0.300 OA
BRANCH  21  22
ATOM     22  C   LIG    1       10.627  -3.991  -0.482  0.00  0.00    +0.130 A 
ATOM     23  C   LIG    1        9.835  -5.020   0.005  0.00  0.00    -0.090 A 
ATOM     24  C   LIG    1       10.365  -6.288   0.152  0.00  0.00    +0.050 A 
ATOM     25  C   LIG    1       11.687  -6.528  -0.175  0.00  0.00    -0.040 A 
ATOM     26  C   LIG    1       12.480  -5.502  -0.656  0.00  0.00    -0.050 A 
ATOM     27  C   LIG    1       13.920  -5.767  -1.013  0.00  0.00    +0.090 C 
ATOM     28  C   LIG    1       11.953  -4.234  -0.810  0.00  0.00    -0.020 A 
ENDBRANCH  21  22
ENDBRANCH  20  21
ENDBRANCH  17  20
ENDBRANCH  16  17
ENDBRANCH  15  16
ENDBRANCH   2  15
TORSDOF 10
