REMARK  Name = ZINCqH0000050B19.2
REMARK                            x       y       z     vdW  Elec       q    Type
REMARK                         _______ _______ _______ _____ _____    ______ ____
ROOT
ATOM      1  C   LIG    1       -0.018   1.465   0.007  0.00  0.00    +0.240 C 
ENDROOT
BRANCH   1   2
ATOM      2  C   LIG    1        1.395   1.986   0.008  0.00  0.00    +0.550 C 
ATOM      3  N   LIG    1        1.623   3.315   0.014  0.00  0.00    -0.470 N 
ATOM      4  C   LIG    1        2.948   3.956   0.016  0.00  0.00    +0.260 C 
ATOM      5  C   LIG    1        2.620   5.462   0.022  0.00  0.00    +0.090 C 
ATOM      6  C   LIG    1        1.109   5.506   0.024  0.00  0.00    +0.140 C 
ATOM      7  N   LIG    1        0.644   4.305   0.014  0.00  0.00    -0.230 NA
ATOM      8  O   LIG    1        2.328   1.211   0.003  0.00  0.00    -0.500 OA
BRANCH   6   9
ATOM      9  C   LIG    1        0.294   6.735   0.030  0.00  0.00    -0.040 A 
ATOM     10  C   LIG    1        0.912   7.988   0.041  0.00  0.00    +0.040 A 
ATOM     11  C   LIG    1        0.143   9.133   0.043  0.00  0.00    +0.010 A 
ATOM     12  C   LIG    1       -1.238   9.043   0.043  0.00  0.00    +0.030 A 
ATOM     13  C   LIG    1       -1.857   7.805   0.038  0.00  0.00    +0.010 A 
ATOM     14  C   LIG    1       -1.101   6.652   0.032  0.00  0.00    +0.050 A 
ENDBRANCH   6   9
ENDBRANCH   1   2
BRANCH   1  19
ATOM     15  C   LIG    1       -1.317  -0.552   0.368  0.00  0.00    +0.210 C 
ATOM     16  C   LIG    1       -1.768  -1.472  -0.787  0.00  0.00    +0.010 C 
ATOM     17  C   LIG    1       -0.431  -1.839  -1.483  0.00  0.00    +0.030 C 
ATOM     18  C   LIG    1        0.372  -0.523  -1.334  0.00  0.00    +0.170 C 
ATOM     19  N   LIG    1        0.002  -0.004   0.000  0.00  0.00    -0.500 NA
BRANCH  15  25
ATOM     20  C   LIG    1       -4.363   2.103   3.320  0.00  0.00    +0.090 C 
ATOM     21  C   LIG    1       -3.764   1.840   1.963  0.00  0.00    -0.080 A 
ATOM     22  C   LIG    1       -4.121   2.628   0.885  0.00  0.00    +0.000 A 
ATOM     23  C   LIG    1       -3.571   2.387  -0.360  0.00  0.00    +0.010 A 
ATOM     24  C   LIG    1       -2.664   1.358  -0.528  0.00  0.00    +0.000 A 
ATOM     25  C   LIG    1       -2.306   0.570   0.550  0.00  0.00    -0.100 A 
ATOM     26  C   LIG    1       -2.860   0.807   1.794  0.00  0.00    +0.010 A 
ENDBRANCH  15  25
ENDBRANCH   1  19
TORSDOF 4
