REMARK  Name = ZINCrH000004jGNv.0
REMARK                            x       y       z     vdW  Elec       q    Type
REMARK                         _______ _______ _______ _____ _____    ______ ____
ROOT
ATOM      1  C   LIG    1        0.306   6.019  -1.484  0.00  0.00    -0.700 A 
ATOM      2  C   LIG    1        0.766   4.715  -1.507  0.00  0.00    +0.140 A 
ATOM      3  C   LIG    1        0.348   3.821  -0.542  0.00  0.00    +0.000 A 
ATOM      4  C   LIG    1       -0.529   4.231   0.454  0.00  0.00    +0.210 A 
ATOM      5  C   LIG    1       -0.994   5.539   0.474  0.00  0.00    -0.140 A 
ATOM      6  C   LIG    1       -1.947   6.019   1.537  0.00  0.00    +0.090 C 
ATOM      7  C   LIG    1       -2.674   4.837   2.178  0.00  0.00    +0.030 C 
ATOM      8  C   LIG    1       -1.636   3.798   2.622  0.00  0.00    +0.280 C 
ATOM      9  N   LIG    1       -0.950   3.307   1.419  0.00  0.00    -0.550 N 
ATOM     10  C   LIG    1       -0.724   1.989   1.250  0.00  0.00    +0.530 C 
ATOM     11  O   LIG    1       -0.099   1.600   0.286  0.00  0.00    -0.490 OA
ATOM     12  C   LIG    1       -0.570   6.429  -0.498  0.00  0.00    +0.140 A 
ENDROOT
BRANCH   1  13
ATOM     13  S   LIG    1        0.838   7.160  -2.717  0.00  0.00    +2.690 S 
ATOM     14  O   LIG    1       -0.159   8.171  -2.786  0.00  0.00    -0.960 OA
ATOM     15  O   LIG    1        1.236   6.383  -3.838  0.00  0.00    -0.950 OA
BRANCH  13  17
ATOM     16  C   LIG    1        3.523   7.311  -2.429  0.00  0.00    +0.290 C 
ATOM     17  N   LIG    1        2.209   7.894  -2.147  0.00  0.00    -1.010 NA
ATOM     18  C   LIG    1        2.107   9.126  -1.360  0.00  0.00    +0.300 C 
ENDBRANCH  13  17
ENDBRANCH   1  13
BRANCH  10  19
ATOM     19  C   LIG    1       -1.248   0.999   2.258  0.00  0.00    +0.130 C 
BRANCH  19  20
ATOM     20  C   LIG    1       -0.969  -0.402   1.778  0.00  0.00    -0.060 A 
ATOM     21  C   LIG    1       -1.899  -1.064   0.998  0.00  0.00    -0.010 A 
ATOM     22  C   LIG    1       -1.640  -2.348   0.552  0.00  0.00    +0.040 A 
ATOM     23  C   LIG    1       -0.457  -2.974   0.897  0.00  0.00    +0.060 A 
ATOM     24  C   LIG    1        0.471  -2.315   1.682  0.00  0.00    +0.040 A 
ATOM     25 CL   LIG    1       -3.389  -0.281   0.571  0.00  0.00    -0.050 Cl
ATOM     26  C   LIG    1        0.215  -1.029   2.123  0.00  0.00    -0.010 A 
ATOM     27 CL   LIG    1        1.381  -0.201   3.108  0.00  0.00    -0.050 Cl
ENDBRANCH  19  20
ENDBRANCH  10  19
TORSDOF 4
