REMARK  Name = ZINCrH000004pBBY.0
REMARK                            x       y       z     vdW  Elec       q    Type
REMARK                         _______ _______ _______ _____ _____    ______ ____
ROOT
ATOM      1  N   LIG    1        3.096   0.876  -1.688  0.00  0.00    -0.610 N 
ATOM      2  C   LIG    1        2.661   0.940  -0.287  0.00  0.00    +0.310 C 
ATOM      3  C   LIG    1        1.370   1.788  -0.296  0.00  0.00    +0.010 C 
ATOM      4  C   LIG    1        1.564   2.646  -1.568  0.00  0.00    +0.080 C 
ATOM      5  C   LIG    1        2.499   1.826  -2.429  0.00  0.00    +0.520 C 
ATOM      6  O   LIG    1        2.684   2.000  -3.615  0.00  0.00    -0.510 OA
ENDROOT
BRANCH   3   7
ATOM      7  C   LIG    1        0.150   0.912  -0.417  0.00  0.00    +0.520 C 
ATOM      8  N   LIG    1       -1.074   1.469  -0.511  0.00  0.00    -0.660 N 
ATOM      9  H   LIG    1       -1.178   2.429  -0.414  0.00  0.00    +0.420 HD
ATOM     10  O   LIG    1        0.269  -0.295  -0.435  0.00  0.00    -0.510 OA
BRANCH   8  11
ATOM     11  C   LIG    1       -2.191   0.665  -0.747  0.00  0.00    +0.170 A 
ATOM     12  C   LIG    1       -2.084  -0.457  -1.538  0.00  0.00    +0.030 A 
ATOM     13  C   LIG    1       -3.190  -1.267  -1.782  0.00  0.00    +0.040 A 
ATOM     14  C   LIG    1       -4.406  -0.972  -1.246  0.00  0.00    +0.020 A 
ATOM     15  C   LIG    1       -4.556   0.164  -0.433  0.00  0.00    -0.090 A 
ATOM     16  C   LIG    1       -5.800   0.496   0.136  0.00  0.00    +0.080 A 
ATOM     17  C   LIG    1       -5.870   1.606   0.929  0.00  0.00    -0.030 A 
ATOM     18  C   LIG    1       -4.732   2.382   1.140  0.00  0.00    +0.290 A 
ATOM     19  N   LIG    1       -3.577   2.072   0.604  0.00  0.00    -0.480 NA
ATOM     20  C   LIG    1       -3.439   0.994  -0.173  0.00  0.00    +0.110 A 
ENDBRANCH   8  11
ENDBRANCH   3   7
BRANCH   1  22
ATOM     21  C   LIG    1        5.314   0.630  -2.689  0.00  0.00    +0.030 C 
ATOM     22  C   LIG    1        4.056  -0.099  -2.212  0.00  0.00    +0.300 C 
BRANCH  22  23
ATOM     23  C   LIG    1        3.438  -0.842  -3.368  0.00  0.00    -0.090 A 
ATOM     24  C   LIG    1        2.073  -1.056  -3.401  0.00  0.00    +0.020 A 
ATOM     25  C   LIG    1        1.506  -1.735  -4.464  0.00  0.00    +0.000 A 
ATOM     26  C   LIG    1        2.304  -2.206  -5.489  0.00  0.00    +0.000 A 
ATOM     27  C   LIG    1        3.671  -1.997  -5.452  0.00  0.00    +0.000 A 
ATOM     28  C   LIG    1        4.237  -1.315  -4.392  0.00  0.00    +0.010 A 
ENDBRANCH  22  23
ENDBRANCH   1  22
TORSDOF 4
