REMARK  Name = ZINCpk000000oFBP.0
REMARK                            x       y       z     vdW  Elec       q    Type
REMARK                         _______ _______ _______ _____ _____    ______ ____
ROOT
ATOM      1  N   LIG    1        0.452   4.120   8.244  0.00  0.00    -0.630 N 
ATOM      2  C   LIG    1       -0.147   2.995   7.808  0.00  0.00    +0.710 C 
ATOM      3  N   LIG    1        0.162   2.493   6.596  0.00  0.00    -0.740 N 
ATOM      4  H   LIG    1        0.816   2.942   6.037  0.00  0.00    +0.400 HD
ATOM      5  O   LIG    1       -0.967   2.432   8.508  0.00  0.00    -0.580 OA
ENDROOT
BRANCH   1   7
ATOM      6  C   LIG    1        0.734   5.824   6.513  0.00  0.00    +0.020 C 
ATOM      7  C   LIG    1        1.440   4.798   7.401  0.00  0.00    +0.250 C 
ENDBRANCH   1   7
BRANCH   3   8
ATOM      8  C   LIG    1       -0.490   1.270   6.121  0.00  0.00    +0.340 C 
BRANCH   8   9
ATOM      9  C   LIG    1        0.027   0.925   4.749  0.00  0.00    -0.040 A 
ATOM     10  C   LIG    1        1.140   0.108   4.594  0.00  0.00    -0.040 A 
ATOM     11  C   LIG    1        1.589  -0.189   3.323  0.00  0.00    +0.290 A 
ATOM     12  N   LIG    1        0.976   0.293   2.259  0.00  0.00    -0.510 NA
ATOM     13  C   LIG    1       -0.088   1.075   2.364  0.00  0.00    +0.310 A 
ATOM     14  C   LIG    1       -0.592   1.419   3.614  0.00  0.00    -0.030 A 
BRANCH  13  15
ATOM     15  N   LIG    1       -0.703   1.561   1.216  0.00  0.00    -0.480 N 
ATOM     16  C   LIG    1       -0.013   1.086   0.008  0.00  0.00    +0.190 C 
ATOM     17  C   LIG    1       -0.755   1.594  -1.231  0.00  0.00    +0.230 C 
ATOM     18  O   LIG    1       -0.837   3.021  -1.180  0.00  0.00    -0.380 OA
ATOM     19  C   LIG    1       -1.504   3.518  -0.017  0.00  0.00    +0.230 C 
ATOM     20  C   LIG    1       -0.769   3.029   1.235  0.00  0.00    +0.170 C 
ENDBRANCH  13  15
ENDBRANCH   8   9
ENDBRANCH   3   8
BRANCH   1  21
ATOM     21  C   LIG    1        0.117   4.665   9.562  0.00  0.00    +0.310 C 
BRANCH  21  22
ATOM     22  C   LIG    1        1.050   4.065  10.615  0.00  0.00    -0.060 C 
ATOM     23  C   LIG    1        0.709   4.609  12.030  0.00  0.00    +0.010 C 
ATOM     24  C   LIG    1        1.184   3.432  12.919  0.00  0.00    +0.200 C 
ATOM     25  O   LIG    1        0.865   2.246  12.174  0.00  0.00    -0.390 OA
ATOM     26  C   LIG    1        0.794   2.551  10.776  0.00  0.00    +0.200 C 
ENDBRANCH  21  22
ENDBRANCH   1  21
TORSDOF 6
