REMARK  Name = ZINCpe00000MJLCL.2
REMARK                            x       y       z     vdW  Elec       q    Type
REMARK                         _______ _______ _______ _____ _____    ______ ____
ROOT
ATOM      1  C   LIG    1       -2.099   2.627   1.049  0.00  0.00    +0.020 C 
ATOM      2  C   LIG    1       -0.916   3.550   0.741  0.00  0.00    +0.030 C 
ATOM      3  C   LIG    1       -0.068   2.924  -0.370  0.00  0.00    +0.040 C 
ATOM      4  C   LIG    1       -0.942   2.695  -1.605  0.00  0.00    +0.160 C 
ATOM      5  N   LIG    1       -2.058   1.806  -1.259  0.00  0.00    -0.510 NA
ATOM      6  C   LIG    1       -2.914   2.406  -0.227  0.00  0.00    +0.190 C 
ENDROOT
BRANCH   1  12
ATOM      7  C   LIG    1       -2.302   2.814   5.738  0.00  0.00    +0.340 C 
ATOM      8  N   LIG    1       -2.761   2.834   4.347  0.00  0.00    -0.580 N 
ATOM      9  C   LIG    1       -3.804   2.131   3.889  0.00  0.00    +0.700 C 
ATOM     10  N   LIG    1       -4.017   2.325   2.575  0.00  0.00    -0.720 N 
ATOM     11  H   LIG    1       -4.713   1.920   2.035  0.00  0.00    +0.440 HD
ATOM     12  C   LIG    1       -2.986   3.272   2.116  0.00  0.00    +0.130 C 
ATOM     13  C   LIG    1       -3.630   4.550   1.577  0.00  0.00    +0.090 C 
ATOM     14  O   LIG    1       -4.483   1.400   4.583  0.00  0.00    -0.540 OA
ATOM     15  C   LIG    1       -2.184   3.566   3.369  0.00  0.00    +0.530 C 
ATOM     16  O   LIG    1       -1.226   4.302   3.469  0.00  0.00    -0.450 OA
ENDBRANCH   1  12
BRANCH   5  17
ATOM     17  C   LIG    1       -2.840   1.453  -2.452  0.00  0.00    +0.180 C 
BRANCH  17  18
ATOM     18  C   LIG    1       -3.954   0.515  -2.063  0.00  0.00    -0.090 A 
ATOM     19  C   LIG    1       -3.696  -0.553  -1.224  0.00  0.00    +0.050 A 
ATOM     20  C   LIG    1       -4.718  -1.411  -0.864  0.00  0.00    +0.000 A 
ATOM     21  C   LIG    1       -5.996  -1.206  -1.350  0.00  0.00    +0.010 A 
ATOM     22  C   LIG    1       -6.252  -0.141  -2.193  0.00  0.00    +0.000 A 
ATOM     23  C   LIG    1       -5.231   0.719  -2.550  0.00  0.00    +0.010 A 
ENDBRANCH  17  18
BRANCH  17  24
ATOM     24  C   LIG    1       -1.944   0.779  -3.458  0.00  0.00    +0.530 C 
ATOM     25  O   LIG    1       -0.970   0.160  -3.084  0.00  0.00    -0.510 OA
ATOM     26  N   LIG    1       -2.224   0.865  -4.774  0.00  0.00    -0.850 N 
ATOM     27  H   LIG    1       -1.647   0.431  -5.422  0.00  0.00    +0.410 HD
ATOM     28  H   LIG    1       -3.003   1.360  -5.073  0.00  0.00    +0.400 HD
ENDBRANCH  17  24
ENDBRANCH   5  17
TORSDOF 4
