REMARK  Name = ZINCtV00000L6kCd.0
REMARK                            x       y       z     vdW  Elec       q    Type
REMARK                         _______ _______ _______ _____ _____    ______ ____
ROOT
ATOM      1  C   LIG    1       -0.646  -2.063  -0.003  0.00  0.00    -0.540 A 
ATOM      2  C   LIG    1        0.709  -2.064  -0.016  0.00  0.00    +0.050 A 
ATOM      3  O   LIG    1        1.108  -0.775  -0.018  0.00  0.00    -0.180 OA
ATOM      4  C   LIG    1        0.002  -0.004   0.002  0.00  0.00    +0.280 A 
ATOM      5  N   LIG    1       -1.055  -0.785   0.008  0.00  0.00    -0.390 NA
ENDROOT
BRANCH   4   6
ATOM      6  C   LIG    1       -0.018   1.466   0.010  0.00  0.00    -0.150 A 
ATOM      7  C   LIG    1        1.082   2.268   0.004  0.00  0.00    +0.070 A 
ATOM      8  C   LIG    1        0.803   3.618   0.014  0.00  0.00    +0.010 A 
ATOM      9  C   LIG    1       -0.496   3.930   0.028  0.00  0.00    -0.020 A 
ATOM     10  S   LIG    1       -1.466   2.463   0.022  0.00  0.00    +0.230 S 
ENDBRANCH   4   6
BRANCH   1  12
ATOM     11  O   LIG    1       -0.909  -4.550   0.531  0.00  0.00    -0.910 OA
ATOM     12  S   LIG    1       -1.686  -3.486  -0.001  0.00  0.00    +2.610 S 
ATOM     13  O   LIG    1       -2.927  -3.075   0.557  0.00  0.00    -0.910 OA
BRANCH  12  14
ATOM     14  C   LIG    1       -2.009  -3.898  -1.683  0.00  0.00    -0.650 A 
ATOM     15  C   LIG    1       -3.106  -3.358  -2.328  0.00  0.00    +0.150 A 
ATOM     16  C   LIG    1       -3.357  -3.677  -3.650  0.00  0.00    +0.040 A 
ATOM     17  C   LIG    1       -2.516  -4.546  -4.323  0.00  0.00    -0.040 A 
ATOM     18  C   LIG    1       -1.423  -5.090  -3.675  0.00  0.00    +0.040 A 
ATOM     19 BR   LIG    1       -2.864  -4.989  -6.128  0.00  0.00    -0.030 Br
ATOM     20  C   LIG    1       -1.169  -4.766  -2.355  0.00  0.00    +0.140 A 
ENDBRANCH  12  14
ENDBRANCH   1  12
BRANCH   2  21
ATOM     21  S   LIG    1        1.753  -3.483  -0.033  0.00  0.00    +0.080 S 
BRANCH  21  22
ATOM     22  C   LIG    1        3.418  -2.763  -0.045  0.00  0.00    +0.120 C 
BRANCH  22  23
ATOM     23  C   LIG    1        4.443  -3.868  -0.060  0.00  0.00    -0.100 A 
ATOM     24  C   LIG    1        4.928  -4.377   1.130  0.00  0.00    +0.070 A 
ATOM     25  C   LIG    1        5.864  -5.394   1.117  0.00  0.00    -0.010 A 
ATOM     26  C   LIG    1        6.324  -5.895  -0.088  0.00  0.00    +0.110 A 
ATOM     27  C   LIG    1        5.841  -5.381  -1.280  0.00  0.00    -0.010 A 
ATOM     28  F   LIG    1        7.243  -6.885  -0.102  0.00  0.00    -0.130 F 
ATOM     29  C   LIG    1        4.901  -4.369  -1.265  0.00  0.00    +0.070 A 
ENDBRANCH  22  23
ENDBRANCH  21  22
ENDBRANCH   2  21
TORSDOF 6
