REMARK  Name = ZINCpe000000Tg0Y.1
REMARK                            x       y       z     vdW  Elec       q    Type
REMARK                         _______ _______ _______ _____ _____    ______ ____
ROOT
ATOM      1  C   LIG    1        2.490   1.368  -0.828  0.00  0.00    +0.210 C 
ENDROOT
BRANCH   1   2
ATOM      2  C   LIG    1        1.293   2.260  -1.035  0.00  0.00    +0.510 C 
ATOM      3  N   LIG    1        0.082   1.719  -1.274  0.00  0.00    -0.720 N 
ATOM      4  H   LIG    1       -0.019   0.755  -1.313  0.00  0.00    +0.400 HD
ATOM      5  O   LIG    1        1.420   3.465  -0.986  0.00  0.00    -0.490 OA
BRANCH   3   6
ATOM      6  C   LIG    1       -1.080   2.586  -1.481  0.00  0.00    +0.200 C 
ATOM      7  C   LIG    1       -1.304   3.444  -0.234  0.00  0.00    +0.040 C 
ATOM      8  C   LIG    1       -1.554   2.536   0.972  0.00  0.00    +0.020 C 
ATOM      9  C   LIG    1       -2.793   1.676   0.714  0.00  0.00    +0.020 C 
ATOM     10  C   LIG    1       -2.568   0.818  -0.532  0.00  0.00    +0.010 C 
ATOM     11  C   LIG    1       -2.319   1.726  -1.738  0.00  0.00    +0.060 C 
BRANCH   6  12
ATOM     12  C   LIG    1       -0.834   3.481  -2.669  0.00  0.00    +0.460 C 
ATOM     13  O   LIG    1       -1.750   3.785  -3.396  0.00  0.00    -0.510 OA
BRANCH  12  14
ATOM     14  O   LIG    1        0.402   3.939  -2.919  0.00  0.00    -0.320 OA
ATOM     15  C   LIG    1        0.565   4.796  -4.080  0.00  0.00    +0.250 C 
ENDBRANCH  12  14
ENDBRANCH   6  12
ENDBRANCH   3   6
ENDBRANCH   1   2
BRANCH   1  16
ATOM     16  N   LIG    1        3.680   2.194  -0.586  0.00  0.00    -0.660 NA
ATOM     17  H   LIG    1        3.537   2.816   0.195  0.00  0.00    +0.370 HD
BRANCH  16  24
ATOM     18  C   LIG    1        5.926   2.113   0.458  0.00  0.00    -0.070 C 
ATOM     19  C   LIG    1        6.812   2.738  -0.642  0.00  0.00    +0.270 C 
ATOM     20  N   LIG    1        6.650   1.871  -1.815  0.00  0.00    -0.720 N 
ATOM     21  H   LIG    1        7.250   1.863  -2.577  0.00  0.00    +0.410 HD
ATOM     22  C   LIG    1        5.563   1.088  -1.697  0.00  0.00    +0.540 C 
ATOM     23  O   LIG    1        5.194   0.283  -2.526  0.00  0.00    -0.530 OA
ATOM     24  C   LIG    1        4.869   1.356  -0.380  0.00  0.00    +0.140 C 
BRANCH  18  26
ATOM     25  C   LIG    1        4.343   2.545   2.343  0.00  0.00    +0.010 C 
ATOM     26  C   LIG    1        5.270   3.197   1.315  0.00  0.00    +0.040 C 
ENDBRANCH  18  26
BRANCH  18  27
ATOM     27  C   LIG    1        6.732   1.145   1.326  0.00  0.00    +0.030 C 
ATOM     28  C   LIG    1        7.778   1.925   2.125  0.00  0.00    +0.020 C 
ENDBRANCH  18  27
ENDBRANCH  16  24
ENDBRANCH   1  16
TORSDOF 8
