REMARK  Name = ZINCpe000000UjYa.0
REMARK                            x       y       z     vdW  Elec       q    Type
REMARK                         _______ _______ _______ _____ _____    ______ ____
ROOT
ATOM      1  C   LIG    1        2.066   2.114  -3.383  0.00  0.00    +0.600 C 
ATOM      2  N   LIG    1        1.436   1.448  -2.394  0.00  0.00    -0.610 N 
ATOM      3  C   LIG    1        2.172   1.009  -1.201  0.00  0.00    +0.280 C 
ATOM      4  C   LIG    1        1.450   1.534   0.045  0.00  0.00    +0.030 C 
ATOM      5  C   LIG    1       -0.013   1.086   0.008  0.00  0.00    +0.180 C 
ATOM      6  C   LIG    1       -0.697   1.672  -1.229  0.00  0.00    -0.020 C 
ATOM      7  C   LIG    1        0.001   1.149  -2.489  0.00  0.00    +0.280 C 
ATOM      8  O   LIG    1        3.254   2.355  -3.292  0.00  0.00    -0.530 OA
ENDROOT
BRANCH   5   9
ATOM      9  N   LIG    1       -0.700   1.559   1.217  0.00  0.00    -0.550 NA
ATOM     10  C   LIG    1       -1.981   0.873   1.395  0.00  0.00    +0.220 C 
ATOM     11  C   LIG    1       -2.473   1.053   2.835  0.00  0.00    -0.320 C 
ATOM     12  S   LIG    1       -2.755   2.823   3.137  0.00  0.00    +2.410 S 
ATOM     13  C   LIG    1       -1.161   3.523   2.613  0.00  0.00    -0.320 C 
ATOM     14  O   LIG    1       -3.768   3.284   2.253  0.00  0.00    -0.940 OA
ATOM     15  O   LIG    1       -2.906   3.029   4.535  0.00  0.00    -0.940 OA
ATOM     16  C   LIG    1       -0.843   3.017   1.203  0.00  0.00    +0.220 C 
ENDBRANCH   5   9
BRANCH   1  20
ATOM     17  N   LIG    1        0.106   3.749  -5.959  0.00  0.00    -0.350 N 
ATOM     18  N   LIG    1        0.407   2.530  -6.578  0.00  0.00    -0.290 NA
ATOM     19  C   LIG    1        1.125   1.808  -5.763  0.00  0.00    +0.110 A 
ATOM     20  C   LIG    1        1.314   2.548  -4.574  0.00  0.00    -0.290 A 
ATOM     21  C   LIG    1        1.660   0.427  -6.041  0.00  0.00    +0.160 C 
ATOM     22  C   LIG    1        0.657   3.752  -4.735  0.00  0.00    +0.130 A 
ATOM     23  C   LIG    1        0.577   4.866  -3.723  0.00  0.00    +0.150 C 
BRANCH  17  25
ATOM     24  C   LIG    1       -2.160   4.637  -6.200  0.00  0.00    +0.040 C 
ATOM     25  C   LIG    1       -0.682   4.835  -6.545  0.00  0.00    +0.320 C 
ENDBRANCH  17  25
ENDBRANCH   1  20
TORSDOF 3
