REMARK  Name = ZINCpk00000yX5by.0
REMARK                            x       y       z     vdW  Elec       q    Type
REMARK                         _______ _______ _______ _____ _____    ______ ____
ROOT
ATOM      1  S   LIG    1        1.119   0.311   2.600  0.00  0.00    +2.680 S 
ATOM      2  O   LIG    1        1.223  -0.422   1.387  0.00  0.00    -0.930 OA
ATOM      3  O   LIG    1        1.058  -0.305   3.878  0.00  0.00    -0.930 OA
ENDROOT
BRANCH   1   4
ATOM      4  C   LIG    1        2.501   1.405   2.640  0.00  0.00    -0.680 A 
ATOM      5  C   LIG    1        3.124   1.772   1.463  0.00  0.00    +0.130 A 
ATOM      6  C   LIG    1        4.205   2.633   1.490  0.00  0.00    +0.020 A 
ATOM      7  C   LIG    1        4.674   3.121   2.700  0.00  0.00    +0.110 A 
ATOM      8  O   LIG    1        5.745   3.961   2.712  0.00  0.00    -0.300 OA
ATOM      9  C   LIG    1        5.951   4.724   3.906  0.00  0.00    +0.230 C 
ATOM     10  C   LIG    1        5.807   3.782   5.109  0.00  0.00    +0.230 C 
ATOM     11  O   LIG    1        4.490   3.220   5.083  0.00  0.00    -0.300 OA
ATOM     12  C   LIG    1        4.049   2.748   3.885  0.00  0.00    +0.030 A 
ATOM     13  C   LIG    1        2.962   1.888   3.850  0.00  0.00    +0.150 A 
ENDBRANCH   1   4
BRANCH   1  15
ATOM     14  C   LIG    1       -0.927   1.718   3.671  0.00  0.00    +0.340 C 
ATOM     15  N   LIG    1       -0.242   1.246   2.466  0.00  0.00    -0.950 N 
ATOM     16  C   LIG    1       -0.718   1.572   1.248  0.00  0.00    +0.520 C 
ATOM     17  O   LIG    1       -1.714   2.256   1.150  0.00  0.00    -0.480 OA
BRANCH  16  18
ATOM     18  C   LIG    1       -0.013   1.086   0.008  0.00  0.00    +0.090 C 
BRANCH  18  19
ATOM     19  C   LIG    1       -0.753   1.593  -1.232  0.00  0.00    +0.000 C 
ATOM     20  C   LIG    1       -2.145   0.947  -1.309  0.00  0.00    +0.210 C 
ATOM     21  O   LIG    1       -1.994  -0.421  -1.758  0.00  0.00    -0.360 OA
ATOM     22  C   LIG    1       -1.117  -0.528  -2.892  0.00  0.00    +0.180 C 
ATOM     23  C   LIG    1        0.352  -0.319  -2.477  0.00  0.00    +0.010 C 
ATOM     24  C   LIG    1       -0.977   0.819  -3.629  0.00  0.00    +0.010 C 
ATOM     25  C   LIG    1        0.017   1.185  -2.505  0.00  0.00    -0.020 C 
ENDBRANCH  18  19
ENDBRANCH  16  18
ENDBRANCH   1  15
TORSDOF 4
