REMARK  Name = ZINCpe00000MJLZo.1
REMARK                            x       y       z     vdW  Elec       q    Type
REMARK                         _______ _______ _______ _____ _____    ______ ____
ROOT
ATOM      1  C   LIG    1       -1.132   9.927  -3.368  0.00  0.00    +0.280 C 
ATOM      2  C   LIG    1       -2.088   9.367  -2.302  0.00  0.00    +0.290 C 
ATOM      3  N   LIG    1       -1.931   7.905  -2.268  0.00  0.00    -0.610 N 
ATOM      4  C   LIG    1       -2.013   7.170  -3.540  0.00  0.00    +0.240 C 
ATOM      5  C   LIG    1       -1.066   7.836  -4.545  0.00  0.00    +0.220 C 
ATOM      6  C   LIG    1       -1.723   7.257  -1.105  0.00  0.00    +0.600 C 
ATOM      7  O   LIG    1       -1.748   7.869  -0.054  0.00  0.00    -0.520 OA
ATOM      8  O   LIG    1       -1.349   9.236  -4.601  0.00  0.00    -0.360 OA
ENDROOT
BRANCH   6   9
ATOM      9  C   LIG    1       -1.466   5.808  -1.105  0.00  0.00    -0.260 A 
ATOM     10  C   LIG    1       -2.512   4.900  -1.220  0.00  0.00    +0.170 A 
ATOM     11  C   LIG    1       -2.240   3.525  -1.221  0.00  0.00    -0.190 A 
ATOM     12  C   LIG    1       -0.964   3.090  -1.115  0.00  0.00    +0.190 A 
ATOM     13  N   LIG    1        0.063   3.980  -0.997  0.00  0.00    -0.610 N 
ATOM     14  H   LIG    1        0.969   3.644  -0.915  0.00  0.00    +0.420 HD
ATOM     15  C   LIG    1       -0.601   1.626  -1.123  0.00  0.00    +0.090 C 
ATOM     16  C   LIG    1       -1.823   0.765  -0.813  0.00  0.00    +0.030 C 
ATOM     17  C   LIG    1       -2.963   1.194  -1.746  0.00  0.00    +0.030 C 
ATOM     18  C   LIG    1       -3.417   2.591  -1.332  0.00  0.00    +0.100 C 
ATOM     19  C   LIG    1       -0.144   5.306  -0.989  0.00  0.00    +0.540 A 
ATOM     20  O   LIG    1        0.798   6.073  -0.883  0.00  0.00    -0.530 OA
ENDBRANCH   6   9
BRANCH   1  24
ATOM     21  C   LIG    1       -0.580  14.899  -3.133  0.00  0.00    +0.210 C 
ATOM     22  C   LIG    1       -1.151  13.541  -3.453  0.00  0.00    +0.290 A 
ATOM     23  N   LIG    1       -0.634  12.390  -3.110  0.00  0.00    -0.530 NA
ATOM     24  C   LIG    1       -1.400  11.398  -3.561  0.00  0.00    +0.230 A 
ATOM     25  N   LIG    1       -2.424  11.906  -4.194  0.00  0.00    -0.280 NA
ATOM     26  N   LIG    1       -2.283  13.303  -4.137  0.00  0.00    -0.480 N 
ATOM     27  H   LIG    1       -2.885  13.964  -4.515  0.00  0.00    +0.440 HD
ENDBRANCH   1  24
TORSDOF 2
