REMARK  Name = ZINCpe00000MJLZo.0
REMARK                            x       y       z     vdW  Elec       q    Type
REMARK                         _______ _______ _______ _____ _____    ______ ____
ROOT
ATOM      1  C   LIG    1       -1.135   9.927  -3.368  0.00  0.00    +0.250 C 
ATOM      2  C   LIG    1       -2.085   9.368  -2.302  0.00  0.00    +0.300 C 
ATOM      3  N   LIG    1       -1.933   7.904  -2.267  0.00  0.00    -0.610 N 
ATOM      4  C   LIG    1       -2.009   7.170  -3.540  0.00  0.00    +0.260 C 
ATOM      5  C   LIG    1       -1.068   7.836  -4.545  0.00  0.00    +0.230 C 
ATOM      6  C   LIG    1       -1.725   7.256  -1.104  0.00  0.00    +0.590 C 
ATOM      7  O   LIG    1       -1.754   7.868  -0.053  0.00  0.00    -0.520 OA
ATOM      8  O   LIG    1       -1.351   9.236  -4.601  0.00  0.00    -0.360 OA
ENDROOT
BRANCH   6   9
ATOM      9  C   LIG    1       -1.461   5.809  -1.106  0.00  0.00    -0.260 A 
ATOM     10  C   LIG    1       -0.224   5.312  -1.498  0.00  0.00    +0.170 A 
ATOM     11  C   LIG    1        0.003   3.929  -1.488  0.00  0.00    -0.190 A 
ATOM     12  C   LIG    1       -0.979   3.087  -1.092  0.00  0.00    +0.200 A 
ATOM     13  N   LIG    1       -2.196   3.573  -0.713  0.00  0.00    -0.610 N 
ATOM     14  H   LIG    1       -2.887   2.950  -0.440  0.00  0.00    +0.420 HD
ATOM     15  C   LIG    1       -0.797   1.591  -1.044  0.00  0.00    +0.090 C 
ATOM     16  C   LIG    1        0.400   1.165  -1.890  0.00  0.00    +0.030 C 
ATOM     17  C   LIG    1        1.608   2.016  -1.478  0.00  0.00    +0.020 C 
ATOM     18  C   LIG    1        1.359   3.450  -1.939  0.00  0.00    +0.100 C 
ATOM     19  C   LIG    1       -2.464   4.888  -0.706  0.00  0.00    +0.540 A 
ATOM     20  O   LIG    1       -3.562   5.289  -0.359  0.00  0.00    -0.530 OA
ENDBRANCH   6   9
BRANCH   1  25
ATOM     21  C   LIG    1       -0.606  14.939  -3.716  0.00  0.00    +0.200 C 
ATOM     22  C   LIG    1       -1.178  13.545  -3.709  0.00  0.00    +0.190 A 
ATOM     23  N   LIG    1       -2.419  13.217  -3.942  0.00  0.00    -0.290 NA
ATOM     24  N   LIG    1       -2.554  11.941  -3.853  0.00  0.00    -0.260 NA
ATOM     25  C   LIG    1       -1.404  11.397  -3.560  0.00  0.00    +0.170 A 
ATOM     26  N   LIG    1       -0.499  12.400  -3.455  0.00  0.00    -0.570 N 
ATOM     27  H   LIG    1        0.444  12.315  -3.243  0.00  0.00    +0.430 HD
ENDBRANCH   1  25
TORSDOF 2
