REMARK  Name = ZINCnE000001Ft1Z.0
REMARK                            x       y       z     vdW  Elec       q    Type
REMARK                         _______ _______ _______ _____ _____    ______ ____
ROOT
ATOM      1  N   LIG    1        4.210   2.265   0.208  0.00  0.00    -0.670 N 
ATOM      2  H   LIG    1        3.659   2.997  -0.112  0.00  0.00    +0.420 HD
ATOM      3  C   LIG    1        3.636   1.102   0.577  0.00  0.00    +0.600 C 
ATOM      4  O   LIG    1        4.312   0.222   1.074  0.00  0.00    -0.520 OA
ENDROOT
BRANCH   1  11
ATOM      5  C   LIG    1        6.165   3.689   0.294  0.00  0.00    +0.100 A 
ATOM      6  C   LIG    1        7.540   3.833   0.372  0.00  0.00    -0.040 A 
ATOM      7  C   LIG    1        8.350   2.713   0.440  0.00  0.00    +0.040 A 
ATOM      8  C   LIG    1        7.790   1.448   0.430  0.00  0.00    -0.050 A 
ATOM      9  C   LIG    1        6.417   1.297   0.358  0.00  0.00    +0.080 A 
ATOM     10 CL   LIG    1        8.812   0.048   0.515  0.00  0.00    -0.070 Cl
ATOM     11  C   LIG    1        5.599   2.415   0.285  0.00  0.00    +0.150 A 
BRANCH   5  12
ATOM     12  O   LIG    1        5.367   4.789   0.229  0.00  0.00    -0.320 OA
BRANCH  12  13
ATOM     13  C   LIG    1        6.016   6.062   0.243  0.00  0.00    +0.180 C 
BRANCH  13  15
ATOM     14  C   LIG    1        5.659   8.534   0.178  0.00  0.00    +0.040 C 
ATOM     15  C   LIG    1        4.965   7.171   0.163  0.00  0.00    +0.030 C 
ENDBRANCH  13  15
ENDBRANCH  12  13
ENDBRANCH   5  12
ENDBRANCH   1  11
BRANCH   3  16
ATOM     16  C   LIG    1        2.190   0.898   0.378  0.00  0.00    -0.090 A 
ATOM     17  C   LIG    1        1.459  -0.187   0.817  0.00  0.00    +0.030 A 
ATOM     18  C   LIG    1        0.136   0.012   0.424  0.00  0.00    -0.040 A 
ATOM     19  C   LIG    1        0.082   1.217  -0.250  0.00  0.00    +0.020 A 
ATOM     20  N   LIG    1        1.343   1.750  -0.272  0.00  0.00    -0.400 N 
ATOM     21  C   LIG    1        1.722   3.023  -0.891  0.00  0.00    +0.320 C 
BRANCH  19  22
ATOM     22  C   LIG    1       -1.118   1.819  -0.845  0.00  0.00    +0.550 C 
ATOM     23  O   LIG    1       -1.042   2.896  -1.420  0.00  0.00    -0.680 OA
ATOM     24  O   LIG    1       -2.195   1.242  -0.765  0.00  0.00    -0.660 OA
ENDBRANCH  19  22
ENDBRANCH   3  16
TORSDOF 6
