REMARK  Name = ZINCtV00000L6kMh.0
REMARK                            x       y       z     vdW  Elec       q    Type
REMARK                         _______ _______ _______ _____ _____    ______ ____
ROOT
ATOM      1  C   LIG    1        1.497   4.408   2.150  0.00  0.00    +0.440 A 
ATOM      2  C   LIG    1        0.444   4.494   1.267  0.00  0.00    -0.190 A 
ATOM      3  C   LIG    1       -0.867   4.380   1.710  0.00  0.00    +0.080 A 
ATOM      4  C   LIG    1       -1.117   4.165   3.065  0.00  0.00    -0.070 A 
ATOM      5  C   LIG    1        0.022   4.078   3.986  0.00  0.00    +0.350 A 
ATOM      6  N   LIG    1        0.079   3.889   5.292  0.00  0.00    -0.500 NA
ATOM      7  C   LIG    1        1.372   3.883   5.695  0.00  0.00    +0.100 A 
ATOM      8  C   LIG    1        1.986   3.725   6.942  0.00  0.00    +0.060 A 
ATOM      9  C   LIG    1        3.358   3.768   7.039  0.00  0.00    +0.030 A 
ATOM     10  C   LIG    1        4.138   3.966   5.909  0.00  0.00    +0.010 A 
ATOM     11  C   LIG    1        3.550   4.123   4.671  0.00  0.00    +0.040 A 
ATOM     12  C   LIG    1        2.168   4.083   4.553  0.00  0.00    +0.010 A 
ATOM     13  C   LIG    1       -2.010   4.482   0.734  0.00  0.00    +0.120 C 
ATOM     14  N   LIG    1        1.295   4.204   3.485  0.00  0.00    -0.410 N 
ENDROOT
BRANCH   1  15
ATOM     15  N   LIG    1        2.781   4.530   1.676  0.00  0.00    -0.750 N 
ATOM     16  H   LIG    1        3.028   5.297   1.137  0.00  0.00    +0.420 HD
BRANCH  15  17
ATOM     17  C   LIG    1        3.777   3.501   1.986  0.00  0.00    +0.210 C 
ATOM     18  C   LIG    1        3.513   2.261   1.129  0.00  0.00    +0.030 C 
BRANCH  17  20
ATOM     19  C   LIG    1        5.489   5.203   2.629  0.00  0.00    +0.030 C 
ATOM     20  C   LIG    1        5.177   4.040   1.686  0.00  0.00    +0.040 C 
ENDBRANCH  17  20
ENDBRANCH  15  17
ENDBRANCH   1  15
BRANCH   4  21
ATOM     21  C   LIG    1       -2.459   4.039   3.549  0.00  0.00    +0.280 C 
ATOM     22  N   LIG    1       -3.523   3.939   3.933  0.00  0.00    -0.410 NA
ENDBRANCH   4  21
BRANCH   2  23
ATOM     23  C   LIG    1        0.717   4.720  -0.197  0.00  0.00    +0.170 C 
BRANCH  23  24
ATOM     24  C   LIG    1        0.593   3.414  -0.939  0.00  0.00    -0.070 A 
ATOM     25  C   LIG    1        1.634   2.506  -0.917  0.00  0.00    +0.030 A 
ATOM     26  C   LIG    1        1.520   1.307  -1.598  0.00  0.00    +0.020 A 
ATOM     27  C   LIG    1        0.365   1.017  -2.300  0.00  0.00    +0.020 A 
ATOM     28  C   LIG    1       -0.676   1.925  -2.322  0.00  0.00    +0.020 A 
ATOM     29  C   LIG    1       -0.563   3.125  -1.642  0.00  0.00    -0.040 A 
ATOM     30 CL   LIG    1       -1.869   4.269  -1.676  0.00  0.00    -0.060 Cl
ENDBRANCH  23  24
ENDBRANCH   2  23
TORSDOF 6
