REMARK  Name = ZINCnE000001IbJb.0
REMARK                            x       y       z     vdW  Elec       q    Type
REMARK                         _______ _______ _______ _____ _____    ______ ____
ROOT
ATOM      1  N   LIG    1       -0.017   1.375   0.010  0.00  0.00    -0.670 NA
ATOM      2  C   LIG    1        1.141   2.065   0.002  0.00  0.00    +0.670 C 
ATOM      3  N   LIG    1        1.123   3.413   0.010  0.00  0.00    -0.740 N 
ATOM      4  H   LIG    1        0.277   3.886   0.020  0.00  0.00    +0.390 HD
ATOM      5  O   LIG    1        2.202   1.472  -0.011  0.00  0.00    -0.640 OA
ENDROOT
BRANCH   1   9
ATOM      6  C   LIG    1       -0.545  -2.053  -0.005  0.00  0.00    +0.160 A 
ATOM      7  N   LIG    1        0.751  -1.954  -0.017  0.00  0.00    -0.450 NA
ATOM      8  O   LIG    1        1.088  -0.789  -0.018  0.00  0.00    +0.010 OA
ATOM      9  C   LIG    1        0.002  -0.004   0.002  0.00  0.00    +0.440 A 
ATOM     10  N   LIG    1       -1.046  -0.806   0.008  0.00  0.00    -0.570 NA
BRANCH   6  12
ATOM     11  C   LIG    1       -1.625  -3.757  -1.446  0.00  0.00    +0.030 C 
ATOM     12  C   LIG    1       -1.341  -3.333  -0.004  0.00  0.00    +0.130 C 
ENDBRANCH   6  12
ENDBRANCH   1   9
BRANCH   3  13
ATOM     13  C   LIG    1        2.382   4.162   0.002  0.00  0.00    +0.310 C 
BRANCH  13  14
ATOM     14  C   LIG    1        2.160   5.523   0.612  0.00  0.00    -0.080 A 
ATOM     15  C   LIG    1        1.005   6.227   0.329  0.00  0.00    +0.020 A 
ATOM     16  C   LIG    1        0.799   7.473   0.892  0.00  0.00    +0.000 A 
ATOM     17  C   LIG    1        1.754   8.018   1.730  0.00  0.00    +0.000 A 
ATOM     18  C   LIG    1        2.912   7.316   2.009  0.00  0.00    +0.000 A 
ATOM     19  C   LIG    1        3.115   6.068   1.449  0.00  0.00    +0.020 A 
ENDBRANCH  13  14
BRANCH  13  20
ATOM     20  C   LIG    1        2.870   4.323  -1.439  0.00  0.00    +0.040 C 
BRANCH  20  21
ATOM     21  C   LIG    1        3.214   2.949  -2.017  0.00  0.00    +0.460 C 
ATOM     22  F   LIG    1        4.221   2.357  -1.247  0.00  0.00    -0.170 F 
ATOM     23  F   LIG    1        3.661   3.096  -3.335  0.00  0.00    -0.200 F 
ATOM     24  F   LIG    1        2.075   2.137  -1.999  0.00  0.00    -0.160 F 
ENDBRANCH  20  21
ENDBRANCH  13  20
ENDBRANCH   3  13
TORSDOF 6
