REMARK  Name = ZINCrH00000tj0uF.0
REMARK                            x       y       z     vdW  Elec       q    Type
REMARK                         _______ _______ _______ _____ _____    ______ ____
ROOT
ATOM      1  C   LIG    1       -4.457  -0.614  -1.447  0.00  0.00    +0.110 C 
ATOM      2  C   LIG    1       -3.698  -1.077  -0.201  0.00  0.00    +0.310 C 
ENDROOT
BRANCH   2   3
ATOM      3  N   LIG    1       -3.414  -2.510  -0.307  0.00  0.00    -0.130 N 
ATOM      4  N   LIG    1       -2.725  -3.065  -1.243  0.00  0.00    -0.030 NA
ATOM      5  N   LIG    1       -2.672  -4.336  -1.025  0.00  0.00    -0.270 NA
ATOM      6  C   LIG    1       -3.369  -4.578   0.094  0.00  0.00    +0.210 A 
ATOM      7  N   LIG    1       -3.820  -3.413   0.517  0.00  0.00    -0.300 NA
BRANCH   6   8
ATOM      8  C   LIG    1       -3.589  -5.899   0.733  0.00  0.00    -0.010 A 
ATOM      9  C   LIG    1       -4.336  -5.993   1.906  0.00  0.00    +0.070 A 
ATOM     10  C   LIG    1       -4.542  -7.224   2.494  0.00  0.00    +0.030 A 
ATOM     11  C   LIG    1       -4.000  -8.364   1.926  0.00  0.00    -0.020 A 
ATOM     12  C   LIG    1       -3.253  -8.276   0.763  0.00  0.00    +0.030 A 
ATOM     13 CL   LIG    1       -4.256  -9.909   2.674  0.00  0.00    -0.060 Cl
ATOM     14  C   LIG    1       -3.046  -7.049   0.165  0.00  0.00    +0.090 A 
ENDBRANCH   6   8
ENDBRANCH   2   3
BRANCH   2  15
ATOM     15  C   LIG    1       -2.403  -0.315  -0.090  0.00  0.00    +0.510 C 
ATOM     16  N   LIG    1       -2.418   1.028   0.019  0.00  0.00    -0.660 N 
ATOM     17  H   LIG    1       -3.262   1.498   0.107  0.00  0.00    +0.410 HD
ATOM     18  O   LIG    1       -1.346  -0.911  -0.098  0.00  0.00    -0.480 OA
BRANCH  16  19
ATOM     19  C   LIG    1       -1.220   1.743   0.006  0.00  0.00    +0.160 A 
ATOM     20  C   LIG    1       -0.102   1.216  -0.605  0.00  0.00    +0.030 A 
ATOM     21  C   LIG    1        1.095   1.926  -0.626  0.00  0.00    +0.060 A 
ATOM     22  C   LIG    1        1.198   3.152  -0.043  0.00  0.00    +0.030 A 
ATOM     23  C   LIG    1        0.084   3.724   0.595  0.00  0.00    +0.140 A 
ATOM     24  N   LIG    1        0.164   4.927   1.173  0.00  0.00    -0.470 NA
ATOM     25  C   LIG    1       -0.872   5.466   1.772  0.00  0.00    +0.290 A 
ATOM     26  C   LIG    1       -2.101   4.816   1.834  0.00  0.00    -0.030 A 
ATOM     27  C   LIG    1       -2.251   3.583   1.263  0.00  0.00    +0.070 A 
ATOM     28  C   LIG    1       -1.139   3.009   0.623  0.00  0.00    -0.110 A 
ENDBRANCH  16  19
ENDBRANCH   2  15
TORSDOF 4
