REMARK  Name = ZINCqH0000037Bja.0
REMARK                            x       y       z     vdW  Elec       q    Type
REMARK                         _______ _______ _______ _____ _____    ______ ____
ROOT
ATOM      1  C   LIG    1       -3.340   1.071  -8.323  0.00  0.00    +0.120 C 
ATOM      2  C   LIG    1       -4.140   0.079  -7.519  0.00  0.00    -0.240 A 
ATOM      3  C   LIG    1       -4.190   0.004  -6.161  0.00  0.00    +0.330 A 
ATOM      4  N   LIG    1       -5.019  -1.026  -5.840  0.00  0.00    -0.320 N 
ATOM      5  N   LIG    1       -5.491  -1.584  -7.035  0.00  0.00    -0.270 NA
ATOM      6  C   LIG    1       -4.963  -0.926  -8.035  0.00  0.00    +0.110 A 
ENDROOT
BRANCH   4   7
ATOM      7  C   LIG    1       -5.345  -1.452  -4.544  0.00  0.00    +0.190 A 
ATOM      8  C   LIG    1       -4.402  -1.371  -3.528  0.00  0.00    +0.000 A 
ATOM      9  C   LIG    1       -4.728  -1.786  -2.252  0.00  0.00    +0.030 A 
ATOM     10  C   LIG    1       -5.987  -2.291  -1.988  0.00  0.00    +0.000 A 
ATOM     11  C   LIG    1       -6.927  -2.377  -2.999  0.00  0.00    +0.030 A 
ATOM     12  C   LIG    1       -6.609  -1.959  -4.276  0.00  0.00    +0.020 A 
ENDBRANCH   4   7
BRANCH   3  13
ATOM     13  N   LIG    1       -3.511   0.828  -5.263  0.00  0.00    -0.670 N 
ATOM     14  H   LIG    1       -2.589   1.076  -5.434  0.00  0.00    +0.420 HD
ATOM     15  C   LIG    1       -4.136   1.280  -4.158  0.00  0.00    +0.700 C 
ATOM     16  N   LIG    1       -3.458   2.008  -3.249  0.00  0.00    -0.730 N 
ATOM     17  H   LIG    1       -2.519   2.207  -3.391  0.00  0.00    +0.400 HD
ATOM     18  O   LIG    1       -5.313   1.030  -3.980  0.00  0.00    -0.560 OA
BRANCH  16  19
ATOM     19  C   LIG    1       -4.137   2.499  -2.048  0.00  0.00    +0.280 C 
BRANCH  19  20
ATOM     20  C   LIG    1       -3.148   3.291  -1.190  0.00  0.00    +0.160 C 
ATOM     21  C   LIG    1       -3.853   3.805   0.084  0.00  0.00    +0.020 C 
ATOM     22  C   LIG    1       -2.753   3.618   1.168  0.00  0.00    +0.010 C 
ATOM     23  C   LIG    1       -2.055   2.333   0.656  0.00  0.00    +0.200 C 
ATOM     24  O   LIG    1       -2.074   2.439  -0.777  0.00  0.00    -0.380 OA
ENDBRANCH  19  20
ENDBRANCH  16  19
ENDBRANCH   3  13
BRANCH   6  25
ATOM     25  C   LIG    1       -5.202  -1.204  -9.496  0.00  0.00    +0.010 C 
ATOM     26  C   LIG    1       -5.963  -0.033 -10.121  0.00  0.00    +0.050 C 
ATOM     27  C   LIG    1       -6.027  -2.484  -9.644  0.00  0.00    +0.040 C 
ATOM     28  C   LIG    1       -3.859  -1.378 -10.209  0.00  0.00    +0.050 C 
ENDBRANCH   6  25
TORSDOF 5
