REMARK  Name = ZINCrH000004q5pd.0
REMARK                            x       y       z     vdW  Elec       q    Type
REMARK                         _______ _______ _______ _____ _____    ______ ____
ROOT
ATOM      1  C   LIG    1        7.117  -0.756  -4.462  0.00  0.00    +0.110 C 
ATOM      2  C   LIG    1        5.777  -0.232  -4.016  0.00  0.00    -0.030 A 
ATOM      3  C   LIG    1        5.048   0.628  -4.742  0.00  0.00    -0.220 A 
ATOM      4  S   LIG    1        3.553   1.012  -3.904  0.00  0.00    +0.330 S 
ATOM      5  C   LIG    1        3.958  -0.002  -2.594  0.00  0.00    +0.030 A 
ATOM      6  C   LIG    1        5.181  -0.590  -2.804  0.00  0.00    -0.200 A 
ENDROOT
BRANCH   6   7
ATOM      7  C   LIG    1        5.802  -1.513  -1.847  0.00  0.00    +0.590 C 
ATOM      8  N   LIG    1        6.611  -1.037  -0.880  0.00  0.00    -0.610 N 
ATOM      9  C   LIG    1        6.890   0.403  -0.766  0.00  0.00    +0.250 C 
ATOM     10  C   LIG    1        6.636   0.828   0.689  0.00  0.00    +0.210 C 
ATOM     11  O   LIG    1        7.370  -0.031   1.563  0.00  0.00    -0.380 OA
ATOM     12  C   LIG    1        6.977  -1.404   1.501  0.00  0.00    +0.220 C 
ATOM     13  C   LIG    1        7.245  -1.943   0.091  0.00  0.00    +0.250 C 
ATOM     14  O   LIG    1        5.587  -2.708  -1.927  0.00  0.00    -0.530 OA
ENDBRANCH   6   7
BRANCH   3  15
ATOM     15  C   LIG    1        5.444   1.173  -6.058  0.00  0.00    -0.010 A 
ATOM     16  C   LIG    1        6.725   1.695  -6.243  0.00  0.00    +0.020 A 
ATOM     17  C   LIG    1        7.091   2.197  -7.474  0.00  0.00    +0.010 A 
ATOM     18  C   LIG    1        6.187   2.194  -8.522  0.00  0.00    +0.000 A 
ATOM     19  C   LIG    1        4.914   1.683  -8.344  0.00  0.00    +0.010 A 
ATOM     20  C   LIG    1        4.537   1.172  -7.119  0.00  0.00    +0.010 A 
ENDBRANCH   3  15
BRANCH   5  21
ATOM     21  N   LIG    1        3.168  -0.199  -1.473  0.00  0.00    -0.630 N 
ATOM     22  H   LIG    1        3.467  -0.793  -0.767  0.00  0.00    +0.420 HD
ATOM     23  C   LIG    1        1.983   0.433  -1.364  0.00  0.00    +0.540 C 
ATOM     24  O   LIG    1        1.609   1.176  -2.247  0.00  0.00    -0.500 OA
BRANCH  23  25
ATOM     25  C   LIG    1        1.123   0.218  -0.145  0.00  0.00    -0.070 C 
ATOM     26  C   LIG    1       -0.190  -0.544  -0.332  0.00  0.00    +0.070 C 
ATOM     27  C   LIG    1       -0.210   0.965  -0.081  0.00  0.00    +0.010 C 
ATOM     28  C   LIG    1       -0.685   1.446   1.292  0.00  0.00    +0.060 C 
ENDBRANCH  23  25
ENDBRANCH   5  21
TORSDOF 4
