REMARK  Name = ZINCqH0000004bys.0
REMARK                            x       y       z     vdW  Elec       q    Type
REMARK                         _______ _______ _______ _____ _____    ______ ____
ROOT
ATOM      1  C   LIG    1       -3.506   4.294  -0.331  0.00  0.00    +0.270 C 
ATOM      2  C   LIG    1       -2.223   4.087  -1.096  0.00  0.00    -0.090 A 
ATOM      3  C   LIG    1       -1.923   2.800  -1.520  0.00  0.00    +0.010 A 
ATOM      4  C   LIG    1       -0.768   2.548  -2.232  0.00  0.00    -0.010 A 
ATOM      5  C   LIG    1        0.091   3.588  -2.534  0.00  0.00    +0.000 A 
ATOM      6  C   LIG    1       -0.206   4.868  -2.113  0.00  0.00    +0.000 A 
ATOM      7  C   LIG    1       -1.365   5.123  -1.390  0.00  0.00    -0.070 A 
ATOM      8  C   LIG    1       -1.617   6.542  -0.952  0.00  0.00    +0.090 C 
ATOM      9  C   LIG    1       -3.092   6.754  -0.616  0.00  0.00    +0.260 C 
ATOM     10  N   LIG    1       -3.524   5.642   0.247  0.00  0.00    -0.590 N 
ATOM     11  C   LIG    1       -3.920   5.854   1.518  0.00  0.00    +0.590 C 
ATOM     12  O   LIG    1       -4.187   4.910   2.238  0.00  0.00    -0.530 OA
ENDROOT
BRANCH  11  13
ATOM     13  C   LIG    1       -4.028   7.224   2.034  0.00  0.00    -0.270 A 
ATOM     14  C   LIG    1       -5.111   7.592   2.841  0.00  0.00    +0.210 A 
ATOM     15  C   LIG    1       -5.186   8.889   3.319  0.00  0.00    -0.050 A 
ATOM     16  C   LIG    1       -4.199   9.808   2.986  0.00  0.00    +0.280 A 
ATOM     17  N   LIG    1       -3.146   9.444   2.191  0.00  0.00    -0.600 N 
ATOM     18  H   LIG    1       -2.465  10.098   1.969  0.00  0.00    +0.420 HD
ATOM     19  C   LIG    1       -3.041   8.189   1.716  0.00  0.00    +0.520 A 
ATOM     20  O   LIG    1       -2.096   7.882   1.010  0.00  0.00    -0.510 OA
BRANCH  16  21
ATOM     21  C   LIG    1       -4.286  11.180   3.490  0.00  0.00    -0.040 A 
ATOM     22  C   LIG    1       -5.279  11.683   4.284  0.00  0.00    +0.030 A 
ATOM     23  C   LIG    1       -4.961  13.028   4.525  0.00  0.00    -0.060 A 
ATOM     24  C   LIG    1       -3.807  13.288   3.870  0.00  0.00    +0.220 A 
ATOM     25  O   LIG    1       -3.404  12.171   3.247  0.00  0.00    -0.170 OA
ENDBRANCH  16  21
ENDBRANCH  11  13
BRANCH   1  27
ATOM     26  C   LIG    1       -2.377   3.373   1.698  0.00  0.00    +0.020 C 
ATOM     27  C   LIG    1       -3.603   3.258   0.790  0.00  0.00    +0.040 C 
ENDBRANCH   1  27
TORSDOF 3
