REMARK  Name = ZINCAx00000008Xy.0
REMARK                            x       y       z     vdW  Elec       q    Type
REMARK                         _______ _______ _______ _____ _____    ______ ____
ROOT
ATOM      1  N   LIG    1       -0.655   1.690   1.527  0.00  0.00    -0.510 N 
ATOM      2  C   LIG    1        0.115   2.363   2.405  0.00  0.00    +0.560 C 
ATOM      3  O   LIG    1        1.314   2.452   2.220  0.00  0.00    -0.520 OA
ENDROOT
BRANCH   1   4
ATOM      4  C   LIG    1       -2.056   1.673   1.686  0.00  0.00    -0.180 A 
ATOM      5  C   LIG    1       -2.629   1.101   2.804  0.00  0.00    +0.500 A 
ATOM      6  N   LIG    1       -3.999   1.105   2.933  0.00  0.00    -0.530 N 
ATOM      7  C   LIG    1       -4.771   1.649   1.976  0.00  0.00    +0.710 A 
ATOM      8  N   LIG    1       -4.231   2.206   0.877  0.00  0.00    -0.660 N 
ATOM      9  H   LIG    1       -4.810   2.592   0.202  0.00  0.00    +0.440 HD
ATOM     10  O   LIG    1       -5.980   1.638   2.107  0.00  0.00    -0.530 OA
ATOM     11  C   LIG    1       -2.895   2.234   0.705  0.00  0.00    +0.560 A 
ATOM     12  O   LIG    1       -2.416   2.742  -0.295  0.00  0.00    -0.510 OA
BRANCH   5  13
ATOM     13  N   LIG    1       -1.840   0.540   3.780  0.00  0.00    -0.820 N 
ATOM     14  H   LIG    1       -2.249   0.083   4.531  0.00  0.00    +0.410 HD
ATOM     15  H   LIG    1       -0.874   0.601   3.717  0.00  0.00    +0.420 HD
ENDBRANCH   5  13
BRANCH   6  16
ATOM     16  C   LIG    1       -4.620   0.506   4.117  0.00  0.00    +0.320 C 
BRANCH  16  17
ATOM     17  C   LIG    1       -4.897  -0.976   3.854  0.00  0.00    -0.030 C 
ATOM     18  C   LIG    1       -5.657  -1.571   5.040  0.00  0.00    +0.040 C 
ATOM     19  C   LIG    1       -3.572  -1.718   3.673  0.00  0.00    +0.030 C 
ENDBRANCH  16  17
ENDBRANCH   6  16
ENDBRANCH   1   4
BRANCH   2  20
ATOM     20  C   LIG    1       -0.497   2.992   3.592  0.00  0.00    -0.150 A 
ATOM     21  C   LIG    1       -1.840   3.376   3.567  0.00  0.00    +0.060 A 
ATOM     22  C   LIG    1       -2.409   3.958   4.678  0.00  0.00    -0.030 A 
ATOM     23  C   LIG    1       -1.645   4.173   5.821  0.00  0.00    +0.180 A 
ATOM     24  C   LIG    1       -0.306   3.796   5.847  0.00  0.00    +0.010 A 
ATOM     25  C   LIG    1        0.268   3.209   4.742  0.00  0.00    +0.100 A 
BRANCH  23  26
ATOM     26  N   LIG    1       -2.222   4.767   6.942  0.00  0.00    -0.670 N 
ATOM     27  H   LIG    1       -3.151   4.590   7.160  0.00  0.00    +0.410 HD
ATOM     28  C   LIG    1       -1.491   5.587   7.722  0.00  0.00    +0.560 C 
ATOM     29  O   LIG    1       -0.358   5.885   7.397  0.00  0.00    -0.510 OA
BRANCH  28  30
ATOM     30  C   LIG    1       -2.066   6.126   8.972  0.00  0.00    -0.140 A 
ATOM     31  C   LIG    1       -3.369   5.791   9.345  0.00  0.00    +0.030 A 
ATOM     32  C   LIG    1       -3.899   6.293  10.516  0.00  0.00    +0.000 A 
ATOM     33  C   LIG    1       -3.145   7.135  11.314  0.00  0.00    +0.040 A 
ATOM     34  C   LIG    1       -1.855   7.475  10.948  0.00  0.00    +0.000 A 
ATOM     35  C   LIG    1       -1.311   6.976   9.782  0.00  0.00    +0.080 A 
ENDBRANCH  28  30
ENDBRANCH  23  26
ENDBRANCH   2  20
BRANCH   1  36
ATOM     36  C   LIG    1       -0.036   0.976   0.408  0.00  0.00    +0.300 C 
BRANCH  36  37
ATOM     37  C   LIG    1        0.399  -0.416   0.869  0.00  0.00    +0.020 C 
BRANCH  37  38
ATOM     38  C   LIG    1        1.045  -1.162  -0.301  0.00  0.00    +0.160 C 
BRANCH  38  40
ATOM     39  C   LIG    1        2.070  -3.246  -0.892  0.00  0.00    +0.200 C 
ATOM     40  O   LIG    1        1.451  -2.463   0.130  0.00  0.00    -0.390 OA
ENDBRANCH  38  40
ENDBRANCH  37  38
ENDBRANCH  36  37
ENDBRANCH   1  36
TORSDOF 11
