REMARK  Name = ZINCrH00000No4I1.0
REMARK                            x       y       z     vdW  Elec       q    Type
REMARK                         _______ _______ _______ _____ _____    ______ ____
ROOT
ATOM      1  N   LIG    1        1.091   1.741  -0.128  0.00  0.00    -0.560 N 
ATOM      2  C   LIG    1        0.786   2.343   1.036  0.00  0.00    +0.500 C 
ATOM      3  C   LIG    1       -0.477   1.567   1.298  0.00  0.00    +0.190 C 
ATOM      4  O   LIG    1        1.343   3.218   1.665  0.00  0.00    -0.470 OA
ATOM      5  C   LIG    1       -0.103   0.902  -0.027  0.00  0.00    +0.310 C 
ENDROOT
BRANCH   1   9
ATOM      6  C   LIG    1        4.186   2.114  -2.898  0.00  0.00    +0.110 A 
ATOM      7  C   LIG    1        4.170   2.914  -1.765  0.00  0.00    +0.020 A 
ATOM      8  C   LIG    1        3.145   2.791  -0.848  0.00  0.00    +0.040 A 
ATOM      9  C   LIG    1        2.131   1.866  -1.059  0.00  0.00    +0.140 A 
ATOM     10  C   LIG    1        2.151   1.062  -2.190  0.00  0.00    +0.030 A 
ATOM     11  C   LIG    1        3.174   1.189  -3.110  0.00  0.00    -0.040 A 
BRANCH   6  13
ATOM     12  C   LIG    1        5.149   1.379  -4.945  0.00  0.00    +0.250 C 
ATOM     13  O   LIG    1        5.195   2.235  -3.801  0.00  0.00    -0.320 OA
ENDBRANCH   6  13
ENDBRANCH   1   9
BRANCH   5  14
ATOM     14  C   LIG    1       -1.105   1.167  -1.122  0.00  0.00    -0.170 A 
ATOM     15  C   LIG    1       -2.056   0.212  -1.449  0.00  0.00    +0.090 A 
ATOM     16  C   LIG    1       -2.960   0.502  -2.460  0.00  0.00    -0.030 A 
ATOM     17  C   LIG    1       -2.877   1.719  -3.110  0.00  0.00    +0.270 A 
ATOM     18  N   LIG    1       -1.956   2.600  -2.775  0.00  0.00    -0.480 NA
ATOM     19  C   LIG    1       -1.083   2.361  -1.817  0.00  0.00    +0.280 A 
ENDBRANCH   5  14
BRANCH   3  20
ATOM     20  O   LIG    1       -0.413   0.700   2.432  0.00  0.00    -0.270 OA
BRANCH  20  21
ATOM     21  C   LIG    1       -1.138   1.058   3.524  0.00  0.00    +0.090 A 
ATOM     22  C   LIG    1       -1.794   2.279   3.553  0.00  0.00    -0.030 A 
ATOM     23  C   LIG    1       -2.535   2.639   4.663  0.00  0.00    +0.050 A 
ATOM     24  C   LIG    1       -2.614   1.788   5.749  0.00  0.00    +0.020 A 
ATOM     25  C   LIG    1       -1.956   0.572   5.727  0.00  0.00    +0.030 A 
ATOM     26  C   LIG    1       -1.218   0.204   4.617  0.00  0.00    +0.080 A 
ATOM     27  F   LIG    1       -0.576  -0.985   4.595  0.00  0.00    -0.130 F 
ENDBRANCH  20  21
ENDBRANCH   3  20
TORSDOF 5
