REMARK  Name = ZINCrD000000CLi4.0
REMARK                            x       y       z     vdW  Elec       q    Type
REMARK                         _______ _______ _______ _____ _____    ______ ____
ROOT
ATOM      1  S   LIG    1       -1.019  -0.989  -0.003  0.00  0.00    +2.690 S 
ATOM      2  O   LIG    1       -1.745  -0.031   0.755  0.00  0.00    -0.950 OA
ATOM      3  O   LIG    1       -0.797  -2.322   0.438  0.00  0.00    -0.950 OA
ENDROOT
BRANCH   1   7
ATOM      4  C   LIG    1        3.070   0.807  -0.755  0.00  0.00    +0.230 A 
ATOM      5  C   LIG    1        1.960   1.632  -0.629  0.00  0.00    -0.020 A 
ATOM      6  C   LIG    1        0.714   1.081  -0.400  0.00  0.00    +0.160 A 
ATOM      7  C   LIG    1        0.572  -0.290  -0.295  0.00  0.00    -0.700 A 
ATOM      8  C   LIG    1        1.675  -1.114  -0.420  0.00  0.00    +0.150 A 
ATOM      9  C   LIG    1        2.923  -0.570  -0.650  0.00  0.00    -0.040 A 
BRANCH   4  15
ATOM     10  O   LIG    1        3.766   3.552  -0.826  0.00  0.00    -0.500 OA
ATOM     11  C   LIG    1        4.591   2.681  -1.004  0.00  0.00    +0.520 C 
ATOM     12  C   LIG    1        6.060   2.921  -1.272  0.00  0.00    +0.070 C 
ATOM     13  C   LIG    1        6.723   1.548  -1.014  0.00  0.00    +0.060 C 
ATOM     14  C   LIG    1        5.545   0.579  -1.255  0.00  0.00    +0.270 C 
ATOM     15  N   LIG    1        4.333   1.362  -0.989  0.00  0.00    -0.560 N 
ENDBRANCH   4  15
ENDBRANCH   1   7
BRANCH   1  16
ATOM     16  N   LIG    1       -1.782  -1.102  -1.468  0.00  0.00    -0.960 NA
BRANCH  16  17
ATOM     17  C   LIG    1       -2.471   0.064  -2.027  0.00  0.00    +0.210 C 
ATOM     18  C   LIG    1       -3.230  -0.127  -3.341  0.00  0.00    +0.030 C 
ATOM     19  C   LIG    1       -1.916   0.658  -3.323  0.00  0.00    +0.000 C 
ENDBRANCH  16  17
BRANCH  16  20
ATOM     20  C   LIG    1       -1.768  -2.367  -2.205  0.00  0.00    +0.360 C 
BRANCH  20  21
ATOM     21  C   LIG    1       -0.623  -2.365  -3.185  0.00  0.00    -0.120 A 
ATOM     22  C   LIG    1       -0.836  -1.977  -4.495  0.00  0.00    +0.070 A 
ATOM     23  C   LIG    1        0.215  -1.970  -5.393  0.00  0.00    -0.010 A 
ATOM     24  C   LIG    1        1.478  -2.362  -4.983  0.00  0.00    +0.100 A 
ATOM     25  C   LIG    1        1.688  -2.756  -3.673  0.00  0.00    -0.010 A 
ATOM     26  F   LIG    1        2.504  -2.361  -5.862  0.00  0.00    -0.140 F 
ATOM     27  C   LIG    1        0.637  -2.757  -2.775  0.00  0.00    +0.060 A 
ENDBRANCH  20  21
ENDBRANCH  16  20
ENDBRANCH   1  16
TORSDOF 6
