REMARK  Name = ZINCpk000000mZ9s.0
REMARK                            x       y       z     vdW  Elec       q    Type
REMARK                         _______ _______ _______ _____ _____    ______ ____
ROOT
ATOM      1  N   LIG    1        2.182   1.081  -0.020  0.00  0.00    -1.060 N 
ATOM      2  H   LIG    1        2.824   1.454   0.604  0.00  0.00    +0.430 HD
ENDROOT
BRANCH   1   3
ATOM      3  C   LIG    1        0.880   1.587  -0.068  0.00  0.00    +0.120 A 
ATOM      4  C   LIG    1       -0.202   0.718  -0.120  0.00  0.00    +0.080 A 
ATOM      5  C   LIG    1       -1.487   1.221  -0.173  0.00  0.00    +0.020 A 
ATOM      6  C   LIG    1       -1.698   2.587  -0.162  0.00  0.00    +0.010 A 
ATOM      7  C   LIG    1       -0.622   3.455  -0.110  0.00  0.00    -0.660 A 
ATOM      8  C   LIG    1       -3.102   3.132  -0.214  0.00  0.00    +0.110 C 
ATOM      9  C   LIG    1        0.666   2.959  -0.063  0.00  0.00    +0.130 A 
BRANCH   7  10
ATOM     10  S   LIG    1       -0.895   5.196  -0.105  0.00  0.00    +2.700 S 
ATOM     11  O   LIG    1        0.389   5.803  -0.082  0.00  0.00    -0.960 OA
ATOM     12  O   LIG    1       -1.890   5.443   0.880  0.00  0.00    -0.960 OA
BRANCH  10  13
ATOM     13  N   LIG    1       -1.573   5.590  -1.563  0.00  0.00    -1.250 NA
ATOM     14  H   LIG    1       -1.802   6.512  -1.758  0.00  0.00    +0.420 HD
ATOM     15  H   LIG    1       -1.742   4.899  -2.222  0.00  0.00    +0.420 HD
ENDBRANCH  10  13
ENDBRANCH   7  10
ENDBRANCH   1   3
BRANCH   1  16
ATOM     16  S   LIG    1        2.628  -0.153  -1.030  0.00  0.00    +2.690 S 
ATOM     17  O   LIG    1        1.616  -1.145  -0.923  0.00  0.00    -0.950 OA
ATOM     18  O   LIG    1        4.000  -0.412  -0.766  0.00  0.00    -0.940 OA
BRANCH  16  22
ATOM     19  C   LIG    1        2.419   1.436  -5.266  0.00  0.00    +0.210 A 
ATOM     20  C   LIG    1        3.598   1.544  -4.539  0.00  0.00    +0.010 A 
ATOM     21  C   LIG    1        3.658   1.059  -3.248  0.00  0.00    +0.160 A 
ATOM     22  C   LIG    1        2.547   0.465  -2.678  0.00  0.00    -0.700 A 
ATOM     23  C   LIG    1        1.373   0.351  -3.401  0.00  0.00    +0.140 A 
ATOM     24  C   LIG    1        1.305   0.839  -4.691  0.00  0.00    -0.030 A 
BRANCH  19  27
ATOM     25  C   LIG    1        3.412   2.513  -8.733  0.00  0.00    +0.120 C 
ATOM     26  C   LIG    1        3.445   1.879  -7.366  0.00  0.00    +0.510 C 
ATOM     27  N   LIG    1        2.355   1.926  -6.575  0.00  0.00    -0.680 N 
ATOM     28  H   LIG    1        1.526   2.300  -6.912  0.00  0.00    +0.420 HD
ATOM     29  O   LIG    1        4.452   1.325  -6.979  0.00  0.00    -0.510 OA
ENDBRANCH  19  27
ENDBRANCH  16  22
ENDBRANCH   1  16
TORSDOF 6
