REMARK  Name = ZINCpk00000j8xrY.0
REMARK                            x       y       z     vdW  Elec       q    Type
REMARK                         _______ _______ _______ _____ _____    ______ ____
ROOT
ATOM      1  C   LIG    1       -0.293   5.468  -0.935  0.00  0.00    +0.100 C 
ATOM      2  C   LIG    1       -0.868   4.100  -0.674  0.00  0.00    +0.520 C 
ATOM      3  N   LIG    1       -0.327   3.017  -1.269  0.00  0.00    -0.590 N 
ATOM      4  C   LIG    1        0.778   3.158  -2.230  0.00  0.00    +0.280 C 
ATOM      5  C   LIG    1        0.399   2.425  -3.523  0.00  0.00    +0.280 C 
ATOM      6  N   LIG    1       -0.033   1.061  -3.191  0.00  0.00    -0.600 N 
ATOM      7  C   LIG    1       -1.147   0.883  -2.245  0.00  0.00    +0.310 C 
ATOM      8  C   LIG    1        0.579  -0.006  -3.741  0.00  0.00    +0.580 C 
ATOM      9  O   LIG    1        0.154  -1.125  -3.531  0.00  0.00    -0.510 OA
ATOM     10  C   LIG    1       -0.826   1.671  -0.974  0.00  0.00    +0.130 C 
ATOM     11  C   LIG    1        0.038   0.900   0.028  0.00  0.00    +0.020 C 
ATOM     12  C   LIG    1       -0.843   1.509   1.134  0.00  0.00    +0.020 C 
ATOM     13  C   LIG    1       -1.949   1.644   0.068  0.00  0.00    +0.050 C 
ATOM     14  O   LIG    1       -1.816   3.972   0.071  0.00  0.00    -0.520 OA
ENDROOT
BRANCH   8  15
ATOM     15  C   LIG    1        1.771   0.185  -4.604  0.00  0.00    +0.240 A 
ATOM     16  N   LIG    1        1.647   0.626  -5.846  0.00  0.00    -0.540 NA
ATOM     17  C   LIG    1        2.707   0.807  -6.627  0.00  0.00    +0.570 A 
ATOM     18  N   LIG    1        3.939   0.552  -6.230  0.00  0.00    -0.560 NA
ATOM     19  C   LIG    1        4.171   0.097  -4.995  0.00  0.00    +0.220 A 
ATOM     20  C   LIG    1        5.468  -0.185  -4.538  0.00  0.00    +0.020 A 
ATOM     21  C   LIG    1        5.648  -0.647  -3.269  0.00  0.00    +0.080 A 
ATOM     22  C   LIG    1        4.565  -0.845  -2.415  0.00  0.00    +0.000 A 
ATOM     23  C   LIG    1        3.292  -0.582  -2.825  0.00  0.00    +0.070 A 
ATOM     24  C   LIG    1        3.069  -0.106  -4.123  0.00  0.00    -0.180 A 
BRANCH  17  25
ATOM     25  N   LIG    1        2.509   1.277  -7.914  0.00  0.00    -0.820 N 
ATOM     26  H   LIG    1        1.612   1.471  -8.227  0.00  0.00    +0.420 HD
ATOM     27  H   LIG    1        3.268   1.412  -8.503  0.00  0.00    +0.420 HD
ENDBRANCH  17  25
ENDBRANCH   8  15
TORSDOF 2
