REMARK  Name = ZINCpe00000c8RqI.0
REMARK                            x       y       z     vdW  Elec       q    Type
REMARK                         _______ _______ _______ _____ _____    ______ ____
ROOT
ATOM      1  O   LIG    1       -1.284  -0.113  -1.795  0.00  0.00    -0.530 OA
ATOM      2  C   LIG    1       -0.656  -0.705  -0.943  0.00  0.00    +0.520 C 
ATOM      3  N   LIG    1        0.006  -0.015   0.007  0.00  0.00    -0.620 N 
ATOM      4  C   LIG    1       -0.025   1.454   0.023  0.00  0.00    +0.290 C 
ATOM      5  C   LIG    1        1.418   1.975   0.007  0.00  0.00    +0.290 C 
ATOM      6  N   LIG    1        2.183   1.271   1.046  0.00  0.00    -0.580 N 
ATOM      7  C   LIG    1        2.213  -0.198   1.030  0.00  0.00    +0.290 C 
ATOM      8  C   LIG    1        0.771  -0.719   1.046  0.00  0.00    +0.270 C 
ENDROOT
BRANCH   6   9
ATOM      9  C   LIG    1        2.865   1.983   2.026  0.00  0.00    +0.410 A 
ATOM     10  N   LIG    1        3.452   1.337   3.009  0.00  0.00    -0.300 NA
ATOM     11  N   LIG    1        4.141   2.034   4.001  0.00  0.00    -0.170 N 
ATOM     12  N   LIG    1        4.852   1.659   5.148  0.00  0.00    -0.050 NA
ATOM     13  N   LIG    1        5.284   2.744   5.696  0.00  0.00    -0.030 NA
ATOM     14  N   LIG    1        4.921   3.775   5.017  0.00  0.00    -0.290 NA
ATOM     15  C   LIG    1        4.213   3.400   3.960  0.00  0.00    +0.180 A 
ATOM     16  C   LIG    1        3.586   4.092   2.909  0.00  0.00    +0.180 A 
ATOM     17  C   LIG    1        2.926   3.387   1.952  0.00  0.00    +0.020 A 
ENDBRANCH   6   9
BRANCH   2  18
ATOM     18  C   LIG    1       -0.615  -2.211  -0.947  0.00  0.00    +0.070 C 
BRANCH  18  19
ATOM     19  C   LIG    1       -1.442  -2.741  -2.120  0.00  0.00    +0.100 C 
BRANCH  19  20
ATOM     20  C   LIG    1       -1.401  -4.247  -2.123  0.00  0.00    -0.090 A 
ATOM     21  C   LIG    1       -0.413  -4.910  -2.827  0.00  0.00    +0.000 A 
ATOM     22  C   LIG    1       -0.373  -6.292  -2.827  0.00  0.00    +0.000 A 
ATOM     23  C   LIG    1       -1.327  -7.011  -2.131  0.00  0.00    +0.000 A 
ATOM     24  C   LIG    1       -2.318  -6.348  -1.431  0.00  0.00    +0.000 A 
ATOM     25  C   LIG    1       -2.355  -4.966  -1.428  0.00  0.00    +0.000 A 
ENDBRANCH  19  20
ENDBRANCH  18  19
ENDBRANCH   2  18
TORSDOF 4
