REMARK  Name = ZINCpe000000UyoF.0
REMARK                            x       y       z     vdW  Elec       q    Type
REMARK                         _______ _______ _______ _____ _____    ______ ____
ROOT
ATOM      1  C   LIG    1       -1.206  -1.031   1.838  0.00  0.00    +0.500 C 
ATOM      2  N   LIG    1       -1.314  -1.704   3.001  0.00  0.00    -0.620 N 
ATOM      3  C   LIG    1       -0.117  -2.171   3.717  0.00  0.00    +0.300 C 
ATOM      4  C   LIG    1       -0.214  -1.700   5.177  0.00  0.00    +0.210 C 
ATOM      5  N   LIG    1       -1.492  -2.148   5.746  0.00  0.00    -0.460 N 
ATOM      6  C   LIG    1       -2.630  -1.538   5.046  0.00  0.00    +0.220 C 
ATOM      7  C   LIG    1       -2.632  -1.998   3.584  0.00  0.00    +0.290 C 
ATOM      8  O   LIG    1       -2.204  -0.658   1.259  0.00  0.00    -0.520 OA
ENDROOT
BRANCH   5   9
ATOM      9  C   LIG    1       -1.548  -1.888   7.104  0.00  0.00    +0.490 A 
ATOM     10  N   LIG    1       -2.549  -1.164   7.583  0.00  0.00    -0.550 NA
ATOM     11  C   LIG    1       -2.635  -0.902   8.877  0.00  0.00    +0.340 A 
ATOM     12  C   LIG    1       -1.657  -1.385   9.731  0.00  0.00    -0.110 A 
ATOM     13  C   LIG    1       -0.620  -2.133   9.196  0.00  0.00    +0.350 A 
ATOM     14  N   LIG    1       -0.596  -2.364   7.894  0.00  0.00    -0.530 NA
ENDBRANCH   5   9
BRANCH   1  15
ATOM     15  C   LIG    1        0.155  -0.742   1.259  0.00  0.00    +0.330 C 
BRANCH  15  17
ATOM     16  C   LIG    1       -0.033   1.460   0.012  0.00  0.00    +0.290 C 
ATOM     17  N   LIG    1        0.004  -0.004   0.002  0.00  0.00    -0.600 N 
ATOM     18  C   LIG    1       -0.102  -0.673  -1.163  0.00  0.00    +0.570 C 
ATOM     19  O   LIG    1       -0.178  -1.886  -1.163  0.00  0.00    -0.530 OA
BRANCH  18  20
ATOM     20  C   LIG    1       -0.124   0.069  -2.442  0.00  0.00    -0.130 A 
ATOM     21  C   LIG    1       -0.899  -0.393  -3.507  0.00  0.00    +0.070 A 
ATOM     22  C   LIG    1       -0.919   0.306  -4.696  0.00  0.00    +0.000 A 
ATOM     23  C   LIG    1       -0.165   1.458  -4.838  0.00  0.00    +0.040 A 
ATOM     24  C   LIG    1        0.610   1.918  -3.788  0.00  0.00    +0.000 A 
ATOM     25  C   LIG    1        0.634   1.231  -2.592  0.00  0.00    +0.040 A 
ENDBRANCH  18  20
ENDBRANCH  15  17
ENDBRANCH   1  15
TORSDOF 4
