REMARK  Name = ZINCrD0000073U64.0
REMARK                            x       y       z     vdW  Elec       q    Type
REMARK                         _______ _______ _______ _____ _____    ______ ____
ROOT
ATOM      1  C   LIG    1        5.802  -0.105   3.690  0.00  0.00    +0.520 C 
ATOM      2  N   LIG    1        4.849   0.726   3.223  0.00  0.00    -0.720 N 
ATOM      3  H   LIG    1        4.693   1.578   3.659  0.00  0.00    +0.410 HD
ATOM      4  O   LIG    1        5.998  -1.171   3.144  0.00  0.00    -0.530 OA
ENDROOT
BRANCH   1   6
ATOM      5  C   LIG    1        5.702   0.506   6.091  0.00  0.00    +0.060 C 
ATOM      6  C   LIG    1        6.624   0.289   4.890  0.00  0.00    +0.270 C 
BRANCH   6   7
ATOM      7  N   LIG    1        7.583  -0.775   5.196  0.00  0.00    -0.730 N 
ATOM      8  H   LIG    1        7.398  -1.688   4.924  0.00  0.00    +0.410 HD
ATOM      9  C   LIG    1        8.723  -0.486   5.855  0.00  0.00    +0.710 C 
ATOM     10  N   LIG    1        9.605  -1.466   6.137  0.00  0.00    -0.680 N 
ATOM     11  H   LIG    1        9.452  -2.366   5.808  0.00  0.00    +0.410 HD
ATOM     12  O   LIG    1        8.955   0.657   6.195  0.00  0.00    -0.570 OA
BRANCH  10  13
ATOM     13  C   LIG    1       10.742  -1.184   6.903  0.00  0.00    +0.160 A 
ATOM     14  C   LIG    1       11.385   0.039   6.770  0.00  0.00    +0.020 A 
ATOM     15  C   LIG    1       12.504   0.316   7.531  0.00  0.00    +0.030 A 
ATOM     16  C   LIG    1       12.989  -0.628   8.418  0.00  0.00    -0.020 A 
ATOM     17  C   LIG    1       12.354  -1.849   8.549  0.00  0.00    +0.030 A 
ATOM     18  C   LIG    1       11.232  -2.130   7.794  0.00  0.00    -0.030 A 
ENDBRANCH  10  13
ENDBRANCH   6   7
ENDBRANCH   1   6
BRANCH   2  19
ATOM     19  C   LIG    1        4.050   0.342   2.057  0.00  0.00    +0.330 C 
BRANCH  19  20
ATOM     20  C   LIG    1        3.049   1.454   1.737  0.00  0.00    -0.020 C 
ATOM     21  C   LIG    1        2.038   1.193   0.619  0.00  0.00    +0.050 C 
ATOM     22  C   LIG    1        3.193   2.170   0.392  0.00  0.00    +0.210 C 
ATOM     23  F   LIG    1        2.888   3.534   0.351  0.00  0.00    -0.150 F 
ATOM     24  F   LIG    1        4.231   1.758  -0.450  0.00  0.00    -0.150 F 
BRANCH  21  25
ATOM     25  C   LIG    1        0.657   1.775   0.780  0.00  0.00    -0.070 A 
ATOM     26  C   LIG    1       -0.316   1.519  -0.169  0.00  0.00    +0.030 A 
ATOM     27  C   LIG    1       -1.581   2.057  -0.023  0.00  0.00    +0.010 A 
ATOM     28  C   LIG    1       -1.876   2.843   1.075  0.00  0.00    +0.020 A 
ATOM     29  C   LIG    1       -0.904   3.098   2.023  0.00  0.00    +0.010 A 
ATOM     30  C   LIG    1        0.363   2.564   1.876  0.00  0.00    +0.010 A 
ENDBRANCH  21  25
ENDBRANCH  19  20
ENDBRANCH   2  19
TORSDOF 6
