REMARK  Name = ZINCfA000000Jmg7.1
REMARK                            x       y       z     vdW  Elec       q    Type
REMARK                         _______ _______ _______ _____ _____    ______ ____
ROOT
ATOM      1  N   LIG    1        1.385   1.593   2.434  0.00  0.00    -0.640 N 
ATOM      2  H   LIG    1        1.601   1.418   1.505  0.00  0.00    +0.430 HD
ENDROOT
BRANCH   1   8
ATOM      3  C   LIG    1       -1.337   0.678   6.424  0.00  0.00    +0.110 C 
ATOM      4  C   LIG    1       -1.094   0.554   4.942  0.00  0.00    -0.050 A 
ATOM      5  C   LIG    1       -1.995  -0.134   4.150  0.00  0.00    +0.030 A 
ATOM      6  C   LIG    1       -1.778  -0.245   2.788  0.00  0.00    +0.060 A 
ATOM      7  C   LIG    1       -0.656   0.321   2.217  0.00  0.00    -0.100 A 
ATOM      8  C   LIG    1        0.251   1.013   3.010  0.00  0.00    +0.120 A 
ATOM      9  C   LIG    1       -0.419   0.195   0.735  0.00  0.00    +0.110 C 
ATOM     10  C   LIG    1        0.028   1.128   4.376  0.00  0.00    -0.030 A 
ENDBRANCH   1   8
BRANCH   1  11
ATOM     11  C   LIG    1        2.197   2.413   3.186  0.00  0.00    +0.460 C 
ATOM     12  N   LIG    1        3.463   2.246   3.103  0.00  0.00    -0.580 NA
ATOM     13  C   LIG    1        4.514   2.950   3.806  0.00  0.00    +0.320 C 
ATOM     14  C   LIG    1        4.053   4.292   4.361  0.00  0.00    +0.080 C 
ATOM     15  C   LIG    1        2.832   4.067   5.264  0.00  0.00    +0.120 C 
ATOM     16  H   LIG    1        3.756   1.556   2.488  0.00  0.00    +0.430 HD
ATOM     17  S   LIG    1        1.430   3.632   4.197  0.00  0.00    +0.120 S 
ENDBRANCH   1  11
TORSDOF 2
