REMARK  Name = ZINCvU0000000AVz.0
REMARK                            x       y       z     vdW  Elec       q    Type
REMARK                         _______ _______ _______ _____ _____    ______ ____
ROOT
ATOM      1  C   LIG    1        3.150   0.009  -0.027  0.00  0.00    +0.110 C 
ENDROOT
BRANCH   1   2
ATOM      2  C   LIG    1        2.600   1.412  -0.015  0.00  0.00    -0.160 A 
ATOM      3  C   LIG    1        3.312   2.549  -0.015  0.00  0.00    +0.230 A 
ATOM      4  N   LIG    1        2.470   3.628  -0.002  0.00  0.00    -0.590 N 
ATOM      5  H   LIG    1        2.753   4.556   0.001  0.00  0.00    +0.420 HD
ATOM      6  C   LIG    1        1.161   3.199   0.008  0.00  0.00    +0.100 A 
ATOM      7  C   LIG    1       -0.062   3.860   0.024  0.00  0.00    -0.010 A 
ATOM      8  C   LIG    1       -1.233   3.133   0.031  0.00  0.00    +0.030 A 
ATOM      9  C   LIG    1       -1.204   1.745   0.017  0.00  0.00    -0.020 A 
ATOM     10  C   LIG    1       -0.013   1.076   0.008  0.00  0.00    +0.050 A 
ATOM     11  C   LIG    1        1.185   1.793   0.000  0.00  0.00    -0.090 A 
ENDBRANCH   1   2
BRANCH   1  12
ATOM     12  C   LIG    1        4.007  -0.205   1.194  0.00  0.00    -0.060 A 
ATOM     13  C   LIG    1        5.118   0.588   1.407  0.00  0.00    +0.030 A 
ATOM     14  C   LIG    1        5.904   0.391   2.527  0.00  0.00    +0.020 A 
ATOM     15  C   LIG    1        5.578  -0.598   3.436  0.00  0.00    +0.020 A 
ATOM     16  C   LIG    1        4.467  -1.393   3.224  0.00  0.00    +0.020 A 
ATOM     17  C   LIG    1        3.677  -1.192   2.106  0.00  0.00    -0.040 A 
ATOM     18 CL   LIG    1        2.276  -2.184   1.844  0.00  0.00    -0.060 Cl
ENDBRANCH   1  12
BRANCH   1  19
ATOM     19  C   LIG    1        3.996  -0.196  -1.285  0.00  0.00    +0.280 C 
BRANCH  19  21
ATOM     20  C   LIG    1        5.195  -2.007  -2.389  0.00  0.00    +0.560 C 
ATOM     21  N   LIG    1        4.433  -1.592  -1.358  0.00  0.00    -0.730 N 
ATOM     22  H   LIG    1        4.173  -2.219  -0.664  0.00  0.00    +0.400 HD
ATOM     23  O   LIG    1        5.521  -1.222  -3.259  0.00  0.00    -0.510 OA
BRANCH  20  28
ATOM     24  C   LIG    1        6.835  -5.178  -3.591  0.00  0.00    +0.100 A 
ATOM     25  C   LIG    1        6.458  -6.062  -2.595  0.00  0.00    -0.030 A 
ATOM     26  C   LIG    1        5.675  -5.631  -1.536  0.00  0.00    +0.050 A 
ATOM     27  C   LIG    1        5.263  -4.319  -1.464  0.00  0.00    +0.020 A 
ATOM     28  C   LIG    1        5.635  -3.413  -2.462  0.00  0.00    -0.120 A 
ATOM     29  C   LIG    1        6.422  -3.849  -3.535  0.00  0.00    +0.130 A 
BRANCH  24  31
ATOM     30  C   LIG    1        7.987  -6.984  -4.623  0.00  0.00    +0.240 C 
ATOM     31  O   LIG    1        7.604  -5.607  -4.627  0.00  0.00    -0.300 OA
ENDBRANCH  24  31
BRANCH  29  32
ATOM     32  O   LIG    1        6.785  -2.980  -4.512  0.00  0.00    -0.310 OA
ATOM     33  C   LIG    1        8.011  -2.270  -4.327  0.00  0.00    +0.230 C 
ENDBRANCH  29  32
ENDBRANCH  20  28
ENDBRANCH  19  21
ENDBRANCH   1  19
TORSDOF 7
