REMARK  Name = ZINCtV00000tRSxs.0
REMARK                            x       y       z     vdW  Elec       q    Type
REMARK                         _______ _______ _______ _____ _____    ______ ____
ROOT
ATOM      1  C   LIG    1        3.572   2.074  -0.021  0.00  0.00    +0.060 C 
ATOM      2  C   LIG    1        4.963   1.452  -0.156  0.00  0.00    +0.060 C 
ATOM      3  C   LIG    1        4.512   2.033   1.186  0.00  0.00    +0.000 C 
ATOM      4 CL   LIG    1        4.120   0.870   2.506  0.00  0.00    -0.070 Cl
ATOM      5 CL   LIG    1        5.258   3.587   1.714  0.00  0.00    -0.070 Cl
ENDROOT
BRANCH   1   6
ATOM      6  C   LIG    1        2.371   1.126  -0.015  0.00  0.00    +0.260 C 
BRANCH   6   7
ATOM      7  O   LIG    1        1.143   1.900   0.001  0.00  0.00    -0.350 OA
BRANCH   7   9
ATOM      8  O   LIG    1        0.002  -0.004   0.002  0.00  0.00    -0.470 OA
ATOM      9  C   LIG    1       -0.014   1.211   0.009  0.00  0.00    +0.510 C 
BRANCH   9  10
ATOM     10  C   LIG    1       -1.302   1.931   0.019  0.00  0.00    -0.120 A 
ATOM     11  C   LIG    1       -1.325   3.328   0.026  0.00  0.00    +0.120 A 
ATOM     12  C   LIG    1       -2.531   3.995   0.036  0.00  0.00    +0.030 A 
ATOM     13  C   LIG    1       -3.720   3.284   0.038  0.00  0.00    +0.010 A 
ATOM     14  C   LIG    1       -3.706   1.899   0.030  0.00  0.00    +0.040 A 
ATOM     15 CL   LIG    1       -5.235   4.133   0.051  0.00  0.00    -0.040 Cl
ATOM     16  C   LIG    1       -2.506   1.219   0.015  0.00  0.00    +0.030 A 
ATOM     17 CL   LIG    1       -2.489  -0.517  -0.003  0.00  0.00    -0.010 Cl
ENDBRANCH   9  10
ENDBRANCH   7   9
ENDBRANCH   6   7
ENDBRANCH   1   6
BRANCH   2  18
ATOM     18  C   LIG    1        5.047  -0.071  -0.274  0.00  0.00    +0.260 C 
BRANCH  18  19
ATOM     19  O   LIG    1        6.425  -0.463  -0.511  0.00  0.00    -0.350 OA
BRANCH  19  20
ATOM     20  C   LIG    1        6.673  -1.781  -0.640  0.00  0.00    +0.510 C 
ATOM     21  O   LIG    1        5.763  -2.581  -0.557  0.00  0.00    -0.470 OA
BRANCH  20  22
ATOM     22  C   LIG    1        8.050  -2.252  -0.882  0.00  0.00    -0.120 A 
ATOM     23  C   LIG    1        9.098  -1.335  -0.984  0.00  0.00    +0.120 A 
ATOM     24  C   LIG    1       10.384  -1.782  -1.204  0.00  0.00    +0.030 A 
ATOM     25  C   LIG    1       10.636  -3.138  -1.337  0.00  0.00    +0.010 A 
ATOM     26  C   LIG    1        9.602  -4.053  -1.243  0.00  0.00    +0.040 A 
ATOM     27 CL   LIG    1       12.257  -3.691  -1.622  0.00  0.00    -0.040 Cl
ATOM     28  C   LIG    1        8.311  -3.620  -1.016  0.00  0.00    +0.030 A 
ATOM     29 CL   LIG    1        7.014  -4.768  -0.899  0.00  0.00    -0.010 Cl
ENDBRANCH  20  22
ENDBRANCH  19  20
ENDBRANCH  18  19
ENDBRANCH   2  18
TORSDOF 8
