REMARK  Name = ZINCpk00000e917q.0
REMARK                            x       y       z     vdW  Elec       q    Type
REMARK                         _______ _______ _______ _____ _____    ______ ____
ROOT
ATOM      1  C   LIG    1       -3.608   2.083   0.030  0.00  0.00    +0.510 C 
ATOM      2  N   LIG    1       -4.872   1.616   0.034  0.00  0.00    -0.720 N 
ATOM      3  H   LIG    1       -5.037   0.660   0.029  0.00  0.00    +0.410 HD
ATOM      4  O   LIG    1       -3.402   3.278   0.036  0.00  0.00    -0.520 OA
ENDROOT
BRANCH   2   5
ATOM      5  C   LIG    1       -5.999   2.553   0.044  0.00  0.00    +0.260 C 
ATOM      6  C   LIG    1       -6.423   2.925  -1.395  0.00  0.00    +0.050 C 
ATOM      7  C   LIG    1       -7.931   3.027  -1.323  0.00  0.00    +0.520 C 
ATOM      8  N   LIG    1       -8.381   2.436  -0.202  0.00  0.00    -0.610 N 
ATOM      9  O   LIG    1       -8.632   3.564  -2.154  0.00  0.00    -0.520 OA
ATOM     10  C   LIG    1       -7.277   1.875   0.585  0.00  0.00    +0.270 C 
BRANCH   8  11
ATOM     11  C   LIG    1       -9.792   2.363   0.184  0.00  0.00    +0.350 C 
BRANCH  11  12
ATOM     12  C   LIG    1      -10.149   3.568   1.015  0.00  0.00    -0.120 A 
ATOM     13  C   LIG    1      -10.015   3.524   2.391  0.00  0.00    +0.010 A 
ATOM     14  C   LIG    1      -10.338   4.631   3.153  0.00  0.00    +0.000 A 
ATOM     15  C   LIG    1      -10.803   5.780   2.541  0.00  0.00    +0.010 A 
ATOM     16  C   LIG    1      -10.942   5.823   1.166  0.00  0.00    +0.000 A 
ATOM     17  C   LIG    1      -10.615   4.717   0.403  0.00  0.00    +0.030 A 
ENDBRANCH  11  12
ENDBRANCH   8  11
ENDBRANCH   2   5
BRANCH   1  18
ATOM     18  C   LIG    1       -2.449   1.119   0.020  0.00  0.00    +0.340 C 
BRANCH  18  20
ATOM     19  C   LIG    1       -0.014   1.211   0.009  0.00  0.00    +0.660 C 
ATOM     20  N   LIG    1       -1.191   1.869   0.018  0.00  0.00    -0.700 N 
ATOM     21  H   LIG    1       -1.204   2.839   0.023  0.00  0.00    +0.420 HD
ATOM     22  O   LIG    1        0.002  -0.004   0.002  0.00  0.00    -0.570 OA
BRANCH  19  23
ATOM     23  O   LIG    1        1.142   1.900   0.001  0.00  0.00    -0.360 OA
BRANCH  23  25
ATOM     24  C   LIG    1        2.405   0.250  -1.269  0.00  0.00    +0.040 C 
ATOM     25  C   LIG    1        2.371   1.126  -0.015  0.00  0.00    +0.140 C 
ATOM     26  C   LIG    1        2.429   0.237   1.229  0.00  0.00    +0.040 C 
ATOM     27  C   LIG    1        3.571   2.074  -0.021  0.00  0.00    +0.080 C 
ENDBRANCH  23  25
ENDBRANCH  19  23
ENDBRANCH  18  20
ENDBRANCH   1  18
TORSDOF 7
