REMARK  Name = ZINC5n0000002m3j.0
REMARK                            x       y       z     vdW  Elec       q    Type
REMARK                         _______ _______ _______ _____ _____    ______ ____
ROOT
ATOM      1  C   LIG    1       -2.436   0.972   0.019  0.00  0.00    -0.110 C 
ATOM      2  C   LIG    1       -2.416  -0.535   0.011  0.00  0.00    +0.090 C 
ATOM      3  C   LIG    1       -3.596   1.620   0.028  0.00  0.00    +0.020 C 
ENDROOT
BRANCH   1   5
ATOM      4  C   LIG    1       -0.013   1.076   0.008  0.00  0.00    +0.020 C 
ATOM      5  C   LIG    1       -1.172   1.724   0.017  0.00  0.00    -0.020 C 
ENDBRANCH   1   5
TORSDOF 1
