REMARK  Name = ZINCvU00000007K7.0
REMARK                            x       y       z     vdW  Elec       q    Type
REMARK                         _______ _______ _______ _____ _____    ______ ____
ROOT
ATOM      1  C   LIG    1        3.574   0.891   0.019  0.00  0.00    +0.000 A 
ATOM      2  C   LIG    1        2.219   0.814   0.414  0.00  0.00    -0.190 A 
ATOM      3  C   LIG    1        1.381  -0.245   0.824  0.00  0.00    +0.290 A 
ATOM      4  N   LIG    1        0.198   0.236   1.079  0.00  0.00    -0.220 NA
ATOM      5  N   LIG    1        0.190   1.618   0.855  0.00  0.00    -0.390 N 
ATOM      6  C   LIG    1        1.444   1.991   0.440  0.00  0.00    +0.330 A 
ATOM      7  N   LIG    1        1.980   3.152   0.100  0.00  0.00    -0.480 NA
ATOM      8  C   LIG    1        3.244   3.256  -0.274  0.00  0.00    +0.240 A 
ATOM      9  C   LIG    1        4.082   2.138  -0.326  0.00  0.00    -0.030 A 
ENDROOT
BRANCH   8  10
ATOM     10  C   LIG    1        3.785   4.586  -0.643  0.00  0.00    -0.060 A 
ATOM     11  C   LIG    1        5.117   4.716  -1.033  0.00  0.00    +0.040 A 
ATOM     12  C   LIG    1        5.614   5.956  -1.381  0.00  0.00    +0.010 A 
ATOM     13  C   LIG    1        4.795   7.070  -1.333  0.00  0.00    +0.030 A 
ATOM     14  C   LIG    1        3.474   6.948  -0.941  0.00  0.00    +0.000 A 
ATOM     15  C   LIG    1        2.965   5.713  -0.597  0.00  0.00    +0.060 A 
ENDBRANCH   8  10
BRANCH   1  18
ATOM     16  C   LIG    1        5.243   0.402  -2.203  0.00  0.00    +0.300 C 
ATOM     17  N   LIG    1        5.186  -0.569  -1.107  0.00  0.00    -0.600 N 
ATOM     18  C   LIG    1        4.426  -0.317  -0.023  0.00  0.00    +0.560 C 
ATOM     19  O   LIG    1        4.441  -1.083   0.921  0.00  0.00    -0.510 OA
BRANCH  17  20
ATOM     20  C   LIG    1        5.954  -1.814  -1.191  0.00  0.00    +0.390 C 
BRANCH  20  21
ATOM     21  C   LIG    1        5.113  -2.880  -1.844  0.00  0.00    -0.210 A 
ATOM     22  C   LIG    1        5.063  -3.124  -3.155  0.00  0.00    +0.020 A 
ATOM     23  C   LIG    1        4.218  -4.157  -3.524  0.00  0.00    +0.000 A 
ATOM     24  C   LIG    1        3.581  -4.750  -2.513  0.00  0.00    -0.050 A 
ATOM     25  S   LIG    1        4.053  -3.997  -0.995  0.00  0.00    +0.130 S 
ENDBRANCH  20  21
ENDBRANCH  17  20
ENDBRANCH   1  18
BRANCH   5  26
ATOM     26  C   LIG    1       -0.959   2.511   1.027  0.00  0.00    +0.470 C 
BRANCH  26  27
ATOM     27  C   LIG    1       -0.978   3.038   2.438  0.00  0.00    -0.050 A 
ATOM     28  C   LIG    1       -0.375   4.162   2.866  0.00  0.00    -0.020 A 
ATOM     29  C   LIG    1       -0.650   4.274   4.248  0.00  0.00    -0.070 A 
ATOM     30  C   LIG    1       -1.404   3.211   4.583  0.00  0.00    +0.190 A 
ATOM     31  O   LIG    1       -1.604   2.470   3.481  0.00  0.00    -0.170 OA
ENDBRANCH  26  27
ENDBRANCH   5  26
TORSDOF 6
