REMARK  Name = ZINCpe00000WALod.2
REMARK                            x       y       z     vdW  Elec       q    Type
REMARK                         _______ _______ _______ _____ _____    ______ ____
ROOT
ATOM      1  C   LIG    1       -3.239   1.333   1.745  0.00  0.00    +0.670 C 
ATOM      2  N   LIG    1       -2.204   1.478   0.894  0.00  0.00    -0.600 N 
ATOM      3  C   LIG    1       -2.307   1.602  -0.567  0.00  0.00    +0.240 C 
ATOM      4  C   LIG    1       -0.871   1.718  -1.119  0.00  0.00    +0.190 C 
ATOM      5  C   LIG    1       -0.013   1.086   0.008  0.00  0.00    +0.150 C 
ATOM      6  C   LIG    1       -0.780   1.538   1.275  0.00  0.00    +0.310 C 
ATOM      7  O   LIG    1       -3.036   1.239   2.939  0.00  0.00    -0.570 OA
ENDROOT
BRANCH   5   8
ATOM      8  N   LIG    1        1.353   1.628  -0.002  0.00  0.00    -0.520 NA
ATOM      9  C   LIG    1        2.070   1.228  -1.223  0.00  0.00    +0.190 C 
ATOM     10  C   LIG    1        3.318   2.100  -1.360  0.00  0.00    +0.080 C 
ATOM     11  C   LIG    1        4.093   2.095  -0.067  0.00  0.00    -0.070 A 
ATOM     12  C   LIG    1        5.412   2.523  -0.086  0.00  0.00    +0.000 A 
ATOM     13  C   LIG    1        6.157   2.538   1.077  0.00  0.00    +0.000 A 
ATOM     14  C   LIG    1        5.584   2.125   2.265  0.00  0.00    +0.000 A 
ATOM     15  C   LIG    1        4.272   1.696   2.284  0.00  0.00    +0.010 A 
ATOM     16  C   LIG    1        3.523   1.679   1.117  0.00  0.00    -0.080 A 
ATOM     17  C   LIG    1        2.096   1.201   1.187  0.00  0.00    +0.230 C 
ENDBRANCH   5   8
BRANCH   4  18
ATOM     18  O   LIG    1       -0.735   0.979  -2.334  0.00  0.00    -0.550 OA
ATOM     19  H   LIG    1       -1.251   1.333  -3.071  0.00  0.00    +0.390 HD
ENDBRANCH   4  18
BRANCH   1  20
ATOM     20  O   LIG    1       -4.499   1.292   1.272  0.00  0.00    -0.360 OA
BRANCH  20  21
ATOM     21  C   LIG    1       -5.564   1.134   2.246  0.00  0.00    +0.260 C 
BRANCH  21  22
ATOM     22  C   LIG    1       -6.914   1.109   1.526  0.00  0.00    +0.210 C 
BRANCH  22  23
ATOM     23  O   LIG    1       -6.989  -0.050   0.693  0.00  0.00    -0.380 OA
BRANCH  23  24
ATOM     24  C   LIG    1       -8.216  -0.169  -0.029  0.00  0.00    +0.330 C 
BRANCH  24  26
ATOM     25  C   LIG    1       -8.162  -2.365  -1.505  0.00  0.00    +0.050 C 
ATOM     26  C   LIG    1       -8.186  -1.391  -0.850  0.00  0.00    -0.200 C 
ENDBRANCH  24  26
ENDBRANCH  23  24
ENDBRANCH  22  23
ENDBRANCH  21  22
ENDBRANCH  20  21
ENDBRANCH   1  20
TORSDOF 8
