REMARK  Name = ZINCnE000004Y7FP.1
REMARK                            x       y       z     vdW  Elec       q    Type
REMARK                         _______ _______ _______ _____ _____    ______ ____
ROOT
ATOM      1  N   LIG    1       -2.661   1.082  -1.471  0.00  0.00    -0.620 N 
ATOM      2  C   LIG    1       -3.713   1.848  -1.819  0.00  0.00    +0.580 C 
ATOM      3  O   LIG    1       -4.260   2.544  -0.986  0.00  0.00    -0.520 OA
ATOM      4  C   LIG    1       -1.964   0.289  -2.487  0.00  0.00    +0.280 C 
ENDROOT
BRANCH   2   5
ATOM      5  C   LIG    1       -4.202   1.842  -3.211  0.00  0.00    -0.290 A 
ATOM      6  C   LIG    1       -3.993   0.726  -4.024  0.00  0.00    +0.110 A 
ATOM      7  C   LIG    1       -4.458   0.725  -5.323  0.00  0.00    -0.230 A 
ATOM      8  C   LIG    1       -5.120   1.832  -5.829  0.00  0.00    +0.070 A 
ATOM      9  C   LIG    1       -5.328   2.944  -5.037  0.00  0.00    -0.150 A 
ATOM     10 BR   LIG    1       -4.182  -0.790  -6.420  0.00  0.00    -0.110 Br
ATOM     11  C   LIG    1       -4.873   2.960  -3.727  0.00  0.00    +0.320 A 
ATOM     12  O   LIG    1       -5.076   4.052  -2.949  0.00  0.00    -0.670 OA
ENDBRANCH   2   5
BRANCH   1  13
ATOM     13  C   LIG    1       -2.214   1.041  -0.077  0.00  0.00    +0.340 C 
BRANCH  13  18
ATOM     14  C   LIG    1        0.903   3.185   0.057  0.00  0.00    +0.100 A 
ATOM     15  C   LIG    1        0.421   4.325   0.681  0.00  0.00    -0.070 A 
ATOM     16  C   LIG    1       -0.908   4.400   1.052  0.00  0.00    +0.040 A 
ATOM     17  C   LIG    1       -1.760   3.340   0.803  0.00  0.00    +0.030 A 
ATOM     18  C   LIG    1       -1.284   2.197   0.187  0.00  0.00    -0.080 A 
ATOM     19  C   LIG    1        0.046   2.118  -0.194  0.00  0.00    +0.080 A 
BRANCH  14  21
ATOM     20  C   LIG    1        3.032   4.243  -0.021  0.00  0.00    +0.230 C 
ATOM     21  O   LIG    1        2.211   3.110  -0.309  0.00  0.00    -0.310 OA
ENDBRANCH  14  21
BRANCH  19  22
ATOM     22  O   LIG    1        0.514   0.997  -0.805  0.00  0.00    -0.320 OA
ATOM     23  C   LIG    1        1.129   0.013   0.028  0.00  0.00    +0.200 C 
ENDBRANCH  19  22
ENDBRANCH  13  18
ENDBRANCH   1  13
TORSDOF 5
