REMARK  Name = ZINCvU0000000Css.0
REMARK                            x       y       z     vdW  Elec       q    Type
REMARK                         _______ _______ _______ _____ _____    ______ ____
ROOT
ATOM      1  C   LIG    1       -5.998   1.915   0.333  0.00  0.00    +0.060 A 
ATOM      2  N   LIG    1       -6.659   2.392  -0.664  0.00  0.00    -0.450 NA
ATOM      3  C   LIG    1       -7.667   3.206  -0.387  0.00  0.00    +0.120 A 
ATOM      4  C   LIG    1       -7.848   3.428   0.930  0.00  0.00    -0.070 A 
ATOM      5  S   LIG    1       -6.629   2.507   1.807  0.00  0.00    +0.150 S 
ENDROOT
BRANCH   3   6
ATOM      6  C   LIG    1       -8.518   3.823  -1.434  0.00  0.00    -0.040 A 
ATOM      7  C   LIG    1       -9.563   4.673  -1.073  0.00  0.00    +0.050 A 
ATOM      8  C   LIG    1      -10.349   5.249  -2.048  0.00  0.00    -0.010 A 
ATOM      9  C   LIG    1      -10.107   4.976  -3.389  0.00  0.00    +0.150 A 
ATOM     10  C   LIG    1       -9.069   4.126  -3.751  0.00  0.00    +0.020 A 
ATOM     11  C   LIG    1       -8.277   3.551  -2.780  0.00  0.00    +0.080 A 
BRANCH   9  12
ATOM     12  N   LIG    1      -10.909   5.558  -4.376  0.00  0.00    -0.670 N 
ATOM     13  H   LIG    1      -11.242   6.461  -4.260  0.00  0.00    +0.410 HD
ATOM     14  C   LIG    1      -11.218   4.863  -5.489  0.00  0.00    +0.560 C 
ATOM     15  O   LIG    1      -10.733   3.764  -5.674  0.00  0.00    -0.510 OA
BRANCH  14  16
ATOM     16  C   LIG    1      -12.148   5.438  -6.484  0.00  0.00    -0.140 A 
ATOM     17  C   LIG    1      -12.711   6.697  -6.272  0.00  0.00    +0.040 A 
ATOM     18  C   LIG    1      -13.575   7.230  -7.207  0.00  0.00    +0.000 A 
ATOM     19  C   LIG    1      -13.890   6.514  -8.348  0.00  0.00    +0.040 A 
ATOM     20  C   LIG    1      -13.339   5.263  -8.562  0.00  0.00    +0.000 A 
ATOM     21  C   LIG    1      -12.470   4.721  -7.638  0.00  0.00    +0.080 A 
ENDBRANCH  14  16
ENDBRANCH   9  12
ENDBRANCH   3   6
BRANCH   1  22
ATOM     22  C   LIG    1       -4.827   0.974   0.216  0.00  0.00    +0.180 C 
BRANCH  22  25
ATOM     23  N   LIG    1       -2.368   1.133  -0.002  0.00  0.00    -0.670 N 
ATOM     24  H   LIG    1       -2.343   0.167  -0.092  0.00  0.00    +0.410 HD
ATOM     25  C   LIG    1       -3.551   1.769   0.112  0.00  0.00    +0.520 C 
ATOM     26  O   LIG    1       -3.589   2.981   0.131  0.00  0.00    -0.500 OA
BRANCH  23  31
ATOM     27  C   LIG    1        2.469   4.097   0.051  0.00  0.00    +0.100 C 
ATOM     28  C   LIG    1        1.183   3.311   0.034  0.00  0.00    -0.100 A 
ATOM     29  C   LIG    1        0.104   3.738   0.787  0.00  0.00    +0.030 A 
ATOM     30  C   LIG    1       -1.075   3.020   0.774  0.00  0.00    +0.010 A 
ATOM     31  C   LIG    1       -1.176   1.866   0.008  0.00  0.00    +0.140 A 
ATOM     32  C   LIG    1       -0.093   1.443  -0.751  0.00  0.00    -0.010 A 
ATOM     33  C   LIG    1        1.084   2.166  -0.734  0.00  0.00    +0.030 A 
ENDBRANCH  23  31
ENDBRANCH  22  25
ENDBRANCH   1  22
TORSDOF 6
