REMARK  Name = ZINCpk00000xI9MY.0
REMARK                            x       y       z     vdW  Elec       q    Type
REMARK                         _______ _______ _______ _____ _____    ______ ____
ROOT
ATOM      1  C   LIG    1       -2.233   2.344   2.442  0.00  0.00    -0.100 A 
ATOM      2  C   LIG    1       -1.917   2.530   1.137  0.00  0.00    +0.200 A 
ATOM      3  N   LIG    1       -0.559   2.467   1.003  0.00  0.00    -0.390 N 
ATOM      4  N   LIG    1        0.018   2.244   2.258  0.00  0.00    -0.360 N 
ATOM      5  C   LIG    1        0.177   2.616  -0.254  0.00  0.00    +0.380 C 
ATOM      6  C   LIG    1       -2.900   2.763   0.018  0.00  0.00    +0.200 C 
ATOM      7  C   LIG    1       -0.974   2.162   3.169  0.00  0.00    +0.550 A 
ATOM      8  O   LIG    1       -0.847   1.973   4.365  0.00  0.00    -0.520 OA
ENDROOT
BRANCH   4   9
ATOM      9  C   LIG    1        1.386   2.125   2.522  0.00  0.00    +0.140 A 
ATOM     10  C   LIG    1        2.174   1.281   1.750  0.00  0.00    +0.010 A 
ATOM     11  C   LIG    1        3.526   1.171   2.010  0.00  0.00    +0.030 A 
ATOM     12  C   LIG    1        4.093   1.892   3.045  0.00  0.00    +0.020 A 
ATOM     13  C   LIG    1        3.311   2.729   3.819  0.00  0.00    +0.040 A 
ATOM     14  C   LIG    1        1.960   2.848   3.561  0.00  0.00    +0.030 A 
ENDBRANCH   4   9
BRANCH   1  15
ATOM     15  N   LIG    1       -3.518   2.334   2.993  0.00  0.00    -0.430 N 
ATOM     16  H   LIG    1       -3.637   2.197   3.945  0.00  0.00    +0.400 HD
BRANCH  15  18
ATOM     17  C   LIG    1       -5.755   2.605   2.766  0.00  0.00    -0.130 C 
ATOM     18  N   LIG    1       -4.546   2.509   2.233  0.00  0.00    -0.090 NA
BRANCH  17  19
ATOM     19  C   LIG    1       -5.932   2.411   4.159  0.00  0.00    +0.390 C 
ATOM     20  O   LIG    1       -6.250   1.319   4.584  0.00  0.00    -0.420 OA
ATOM     21  C   LIG    1       -5.727   3.560   5.112  0.00  0.00    +0.090 C 
ENDBRANCH  17  19
BRANCH  17  22
ATOM     22  C   LIG    1       -6.911   2.913   1.914  0.00  0.00    +0.550 C 
ATOM     23  O   LIG    1       -8.020   3.002   2.404  0.00  0.00    -0.510 OA
BRANCH  22  24
ATOM     24  O   LIG    1       -6.742   3.098   0.589  0.00  0.00    -0.340 OA
BRANCH  24  26
ATOM     25  C   LIG    1       -7.542   3.575  -1.661  0.00  0.00    +0.070 C 
ATOM     26  C   LIG    1       -7.929   3.399  -0.191  0.00  0.00    +0.200 C 
ENDBRANCH  24  26
ENDBRANCH  22  24
ENDBRANCH  17  22
ENDBRANCH  15  18
ENDBRANCH   1  15
TORSDOF 7
