REMARK  Name = ZINCpk00000KfLar.0
REMARK                            x       y       z     vdW  Elec       q    Type
REMARK                         _______ _______ _______ _____ _____    ______ ____
ROOT
ATOM      1  C   LIG    1        4.478   4.609  -0.015  0.00  0.00    +0.230 C 
ATOM      2  C   LIG    1        3.868   6.025   0.025  0.00  0.00    +0.040 C 
ATOM      3  C   LIG    1        2.456   5.779   0.621  0.00  0.00    +0.040 C 
ATOM      4  C   LIG    1        2.094   4.405  -0.001  0.00  0.00    +0.270 C 
ATOM      5  N   LIG    1        3.362   3.652  -0.010  0.00  0.00    -0.600 N 
ATOM      6  C   LIG    1        3.478   2.309  -0.018  0.00  0.00    +0.580 C 
ATOM      7  O   LIG    1        4.579   1.795  -0.031  0.00  0.00    -0.480 OA
ENDROOT
BRANCH   6   8
ATOM      8  C   LIG    1        2.265   1.462  -0.012  0.00  0.00    +0.020 A 
ATOM      9  C   LIG    1        2.383   0.068  -0.020  0.00  0.00    +0.150 A 
ATOM     10  C   LIG    1        1.219  -0.683  -0.013  0.00  0.00    +0.040 A 
ATOM     11  C   LIG    1        0.002  -0.004   0.002  0.00  0.00    +0.310 A 
ATOM     12  N   LIG    1       -0.016   1.323   0.009  0.00  0.00    -0.250 NA
ATOM     13  N   LIG    1        1.061   2.022   0.003  0.00  0.00    -0.170 NA
BRANCH  11  14
ATOM     14  N   LIG    1       -1.196  -0.719   0.010  0.00  0.00    -0.410 N 
ATOM     15  C   LIG    1       -2.461  -0.192  -0.065  0.00  0.00    +0.160 A 
ATOM     16  C   LIG    1       -3.318  -1.229  -0.027  0.00  0.00    +0.160 A 
ATOM     17  N   LIG    1       -2.603  -2.360   0.077  0.00  0.00    -0.470 NA
ATOM     18  C   LIG    1       -1.332  -2.069   0.100  0.00  0.00    +0.420 A 
ENDBRANCH  11  14
ENDBRANCH   6   8
BRANCH   1  19
ATOM     19  C   LIG    1        5.309   4.432  -1.288  0.00  0.00    +0.310 C 
BRANCH  19  23
ATOM     20  C   LIG    1        6.819  -0.170  -2.579  0.00  0.00    +0.090 C 
ATOM     21  C   LIG    1        6.627   1.118  -1.821  0.00  0.00    -0.230 A 
ATOM     22  C   LIG    1        5.873   2.170  -2.215  0.00  0.00    +0.210 A 
ATOM     23  N   LIG    1        5.966   3.123  -1.264  0.00  0.00    -0.360 N 
ATOM     24  N   LIG    1        6.798   2.637  -0.246  0.00  0.00    -0.270 NA
ATOM     25  C   LIG    1        7.193   1.435  -0.581  0.00  0.00    +0.230 A 
ENDBRANCH  19  23
ENDBRANCH   1  19
TORSDOF 4
