REMARK  Name = ZINCqH0000037DN8.0
REMARK                            x       y       z     vdW  Elec       q    Type
REMARK                         _______ _______ _______ _____ _____    ______ ____
ROOT
ATOM      1  C   LIG    1       -1.232   3.878   1.415  0.00  0.00    +0.170 C 
ATOM      2  C   LIG    1       -1.541   2.463   1.832  0.00  0.00    +0.210 A 
ATOM      3  C   LIG    1       -2.725   2.019   2.304  0.00  0.00    -0.090 A 
ATOM      4  C   LIG    1       -2.595   0.634   2.584  0.00  0.00    +0.550 A 
ATOM      5  N   LIG    1       -1.337   0.268   2.269  0.00  0.00    -0.370 N 
ATOM      6  O   LIG    1       -3.465  -0.093   3.028  0.00  0.00    -0.510 OA
ATOM      7  N   LIG    1       -0.667   1.404   1.794  0.00  0.00    -0.390 N 
ATOM      8  C   LIG    1        0.725   1.454   1.341  0.00  0.00    +0.370 C 
ENDROOT
BRANCH   5   9
ATOM      9  C   LIG    1       -0.796  -1.015   2.395  0.00  0.00    +0.150 A 
ATOM     10  C   LIG    1       -0.092  -1.580   1.339  0.00  0.00    +0.000 A 
ATOM     11  C   LIG    1        0.445  -2.846   1.468  0.00  0.00    +0.030 A 
ATOM     12  C   LIG    1        0.274  -3.555   2.643  0.00  0.00    +0.010 A 
ATOM     13  C   LIG    1       -0.431  -2.997   3.694  0.00  0.00    +0.030 A 
ATOM     14  C   LIG    1       -0.966  -1.730   3.574  0.00  0.00    +0.030 A 
ENDBRANCH   5   9
BRANCH   3  15
ATOM     15  N   LIG    1       -3.887   2.798   2.492  0.00  0.00    -1.000 N 
ATOM     16  H   LIG    1       -4.360   3.156   1.725  0.00  0.00    +0.420 HD
BRANCH  15  17
ATOM     17  S   LIG    1       -4.442   3.100   4.023  0.00  0.00    +2.680 S 
ATOM     18  O   LIG    1       -3.914   2.073   4.851  0.00  0.00    -0.910 OA
ATOM     19  O   LIG    1       -5.834   3.361   3.901  0.00  0.00    -0.950 OA
BRANCH  17  20
ATOM     20  C   LIG    1       -3.699   4.604   4.560  0.00  0.00    -0.670 A 
ATOM     21  C   LIG    1       -4.479   5.728   4.757  0.00  0.00    +0.160 A 
ATOM     22  C   LIG    1       -3.897   6.907   5.184  0.00  0.00    +0.040 A 
ATOM     23  C   LIG    1       -2.533   6.966   5.404  0.00  0.00    -0.030 A 
ATOM     24  C   LIG    1       -1.751   5.843   5.201  0.00  0.00    +0.050 A 
ATOM     25 BR   LIG    1       -1.736   8.581   5.981  0.00  0.00    -0.020 Br
ATOM     26  C   LIG    1       -2.334   4.662   4.779  0.00  0.00    +0.050 A 
ATOM     27 CL   LIG    1       -1.353   3.252   4.525  0.00  0.00    -0.020 Cl
ENDBRANCH  17  20
ENDBRANCH  15  17
ENDBRANCH   3  15
TORSDOF 4
