REMARK  Name = ZINCvU00000006Jt.0
REMARK                            x       y       z     vdW  Elec       q    Type
REMARK                         _______ _______ _______ _____ _____    ______ ____
ROOT
ATOM      1  C   LIG    1        5.656   5.102  -0.457  0.00  0.00    +0.290 A 
ATOM      2  N   LIG    1        5.822   5.102  -1.747  0.00  0.00    -0.480 NA
ATOM      3  C   LIG    1        6.338   6.295  -2.140  0.00  0.00    +0.050 A 
ATOM      4  C   LIG    1        6.704   6.825  -3.380  0.00  0.00    +0.070 A 
ATOM      5  C   LIG    1        7.209   8.092  -3.457  0.00  0.00    +0.000 A 
ATOM      6  C   LIG    1        7.361   8.864  -2.314  0.00  0.00    +0.030 A 
ATOM      7  C   LIG    1        7.007   8.362  -1.080  0.00  0.00    +0.010 A 
ATOM      8  C   LIG    1        6.493   7.076  -0.982  0.00  0.00    +0.060 A 
ATOM      9  N   LIG    1        6.048   6.295   0.066  0.00  0.00    -0.480 N 
ENDROOT
BRANCH   1  12
ATOM     10  N   LIG    1        3.583   2.131  -0.021  0.00  0.00    -0.560 N 
ATOM     11  C   LIG    1        3.673   3.593  -0.119  0.00  0.00    +0.300 C 
ATOM     12  C   LIG    1        5.103   3.950   0.342  0.00  0.00    +0.090 C 
ATOM     13  C   LIG    1        5.870   2.643   0.033  0.00  0.00    +0.100 C 
ATOM     14  C   LIG    1        4.803   1.572   0.066  0.00  0.00    +0.520 C 
ATOM     15  O   LIG    1        5.016   0.381   0.155  0.00  0.00    -0.500 OA
BRANCH  10  20
ATOM     16  C   LIG    1        1.212  -0.683  -0.029  0.00  0.00    +0.160 A 
ATOM     17  C   LIG    1        0.002  -0.004   0.002  0.00  0.00    -0.100 A 
ATOM     18  C   LIG    1       -0.017   1.378   0.025  0.00  0.00    +0.080 A 
ATOM     19  C   LIG    1        1.169   2.087   0.018  0.00  0.00    -0.070 A 
ATOM     20  C   LIG    1        2.383   1.413  -0.013  0.00  0.00    +0.200 A 
ATOM     21  C   LIG    1        2.403   0.025  -0.037  0.00  0.00    -0.030 A 
BRANCH  16  23
ATOM     22  C   LIG    1       -0.036  -2.706  -0.043  0.00  0.00    +0.250 C 
ATOM     23  O   LIG    1        1.229  -2.042  -0.052  0.00  0.00    -0.310 OA
ENDBRANCH  16  23
ENDBRANCH  10  20
ENDBRANCH   1  12
BRANCH   9  24
ATOM     24  C   LIG    1        6.008   6.680   1.479  0.00  0.00    +0.370 C 
BRANCH  24  25
ATOM     25  C   LIG    1        7.309   6.303   2.139  0.00  0.00    -0.120 A 
ATOM     26  C   LIG    1        7.452   5.059   2.726  0.00  0.00    +0.040 A 
ATOM     27  C   LIG    1        8.647   4.711   3.326  0.00  0.00    +0.030 A 
ATOM     28  C   LIG    1        9.697   5.611   3.350  0.00  0.00    -0.020 A 
ATOM     29  C   LIG    1        9.552   6.858   2.768  0.00  0.00    +0.030 A 
ATOM     30 CL   LIG    1       11.196   5.177   4.110  0.00  0.00    -0.060 Cl
ATOM     31  C   LIG    1        8.358   7.203   2.162  0.00  0.00    +0.050 A 
ENDBRANCH  24  25
ENDBRANCH   9  24
TORSDOF 5
