REMARK  Name = ZINCkj00000dDgQ8.0
REMARK                            x       y       z     vdW  Elec       q    Type
REMARK                         _______ _______ _______ _____ _____    ______ ____
ROOT
ATOM      1  C   LIG    1       -3.338  -1.155   0.768  0.00  0.00    +0.200 C 
ATOM      2  C   LIG    1       -1.968  -0.565   1.188  0.00  0.00    +0.230 C 
ATOM      3  N   LIG    1       -1.106  -0.835   0.008  0.00  0.00    -0.400 N 
ATOM      4  C   LIG    1       -1.957  -0.593  -1.177  0.00  0.00    +0.210 C 
ATOM      5  C   LIG    1       -3.417  -0.809  -0.736  0.00  0.00    +0.200 C 
ENDROOT
BRANCH   3   6
ATOM      6  C   LIG    1        0.002  -0.004   0.002  0.00  0.00    +0.160 A 
ATOM      7  N   LIG    1        1.249  -0.386  -0.012  0.00  0.00    -0.200 NA
ATOM      8  N   LIG    1        2.136   0.510  -0.016  0.00  0.00    -0.250 NA
ATOM      9  C   LIG    1        1.743   1.752  -0.005  0.00  0.00    +0.130 A 
ATOM     10  S   LIG    1       -0.022   1.760   0.012  0.00  0.00    +0.010 S 
BRANCH   9  11
ATOM     11  C   LIG    1        2.619   2.943  -0.008  0.00  0.00    -0.060 A 
ATOM     12  C   LIG    1        2.062   4.223  -0.002  0.00  0.00    +0.030 A 
ATOM     13  C   LIG    1        2.886   5.330   0.001  0.00  0.00    +0.020 A 
ATOM     14  C   LIG    1        4.261   5.173  -0.013  0.00  0.00    +0.060 A 
ATOM     15  C   LIG    1        4.819   3.907  -0.024  0.00  0.00    +0.020 A 
ATOM     16  C   LIG    1        4.006   2.792  -0.022  0.00  0.00    +0.080 A 
ENDBRANCH   9  11
ENDBRANCH   3   6
BRANCH   1  18
ATOM     17  C   LIG    1       -5.720  -0.974   0.982  0.00  0.00    +0.330 C 
ATOM     18  N   LIG    1       -4.430  -0.509   1.509  0.00  0.00    -0.370 N 
ATOM     19  C   LIG    1       -4.328  -0.856   2.933  0.00  0.00    +0.330 C 
ATOM     20  H   LIG    1       -4.364   0.492   1.401  0.00  0.00    +0.430 HD
ENDBRANCH   1  18
BRANCH   5  21
ATOM     21  O   LIG    1       -4.176   0.387  -0.931  0.00  0.00    -0.570 OA
ATOM     22  H   LIG    1       -4.223   0.677  -1.852  0.00  0.00    +0.420 HD
ENDBRANCH   5  21
TORSDOF 4
