REMARK  Name = ZINCvU0000000HSh.0
REMARK                            x       y       z     vdW  Elec       q    Type
REMARK                         _______ _______ _______ _____ _____    ______ ____
ROOT
ATOM      1  C   LIG    1        2.340   4.108   0.106  0.00  0.00    +0.160 A 
ATOM      2  C   LIG    1        3.531   3.391   0.095  0.00  0.00    -0.070 A 
ATOM      3  C   LIG    1        4.735   4.052   0.188  0.00  0.00    +0.130 A 
ATOM      4  C   LIG    1        4.759   5.445   0.304  0.00  0.00    -0.160 A 
ATOM      5  C   LIG    1        3.559   6.162   0.321  0.00  0.00    +0.140 A 
ATOM      6  C   LIG    1        2.359   5.494   0.221  0.00  0.00    +0.000 A 
ENDROOT
BRANCH   4   7
ATOM      7  C   LIG    1        6.046   6.156   0.411  0.00  0.00    +0.510 C 
ATOM      8  O   LIG    1        6.065   7.367   0.513  0.00  0.00    -0.500 OA
BRANCH   7   9
ATOM      9  O   LIG    1        7.202   5.464   0.395  0.00  0.00    -0.330 OA
BRANCH   9  10
ATOM     10  C   LIG    1        8.431   6.229   0.504  0.00  0.00    +0.240 C 
BRANCH  10  11
ATOM     11  C   LIG    1        9.611   5.293   0.469  0.00  0.00    +0.400 C 
ATOM     12  O   LIG    1        9.434   4.098   0.362  0.00  0.00    -0.410 OA
BRANCH  11  13
ATOM     13  C   LIG    1       10.978   5.828   0.564  0.00  0.00    -0.150 A 
ATOM     14  C   LIG    1       12.076   4.962   0.531  0.00  0.00    +0.110 A 
ATOM     15  C   LIG    1       13.354   5.470   0.620  0.00  0.00    +0.040 A 
ATOM     16  C   LIG    1       13.554   6.835   0.741  0.00  0.00    -0.000 A 
ATOM     17  C   LIG    1       12.470   7.701   0.774  0.00  0.00    -0.040 A 
ATOM     18 CL   LIG    1       12.732   9.410   0.926  0.00  0.00    -0.030 Cl
ATOM     19 CL   LIG    1       15.167   7.466   0.853  0.00  0.00    -0.030 Cl
ATOM     20  C   LIG    1       11.186   7.207   0.681  0.00  0.00    +0.090 A 
ENDBRANCH  11  13
ENDBRANCH  10  11
ENDBRANCH   9  10
ENDBRANCH   7   9
ENDBRANCH   4   7
BRANCH   1  21
ATOM     21  O   LIG    1        1.155   3.454   0.009  0.00  0.00    -0.240 OA
BRANCH  21  25
ATOM     22  C   LIG    1        1.206  -0.684   0.042  0.00  0.00    +0.020 A 
ATOM     23  C   LIG    1        0.834   0.007  -1.111  0.00  0.00    +0.110 A 
ATOM     24  C   LIG    1        0.819   1.386  -1.115  0.00  0.00    +0.070 A 
ATOM     25  C   LIG    1        1.174   2.096   0.026  0.00  0.00    +0.110 A 
ATOM     26  C   LIG    1        1.547   1.425   1.181  0.00  0.00    +0.070 A 
ATOM     27  C   LIG    1        1.566   0.034   1.201  0.00  0.00    +0.040 A 
BRANCH  22  29
ATOM     28  N   LIG    1        1.233  -3.252   0.054  0.00  0.00    -0.380 NA
ATOM     29  C   LIG    1        1.221  -2.116   0.049  0.00  0.00    +0.230 C 
ENDBRANCH  22  29
BRANCH  27  30
ATOM     30  C   LIG    1        1.950  -0.665   2.390  0.00  0.00    +0.230 C 
ATOM     31  N   LIG    1        2.255  -1.219   3.334  0.00  0.00    -0.370 NA
ENDBRANCH  27  30
ENDBRANCH  21  25
ENDBRANCH   1  21
TORSDOF 9
