REMARK  Name = ZINCvU0000000AT2.0
REMARK                            x       y       z     vdW  Elec       q    Type
REMARK                         _______ _______ _______ _____ _____    ______ ____
ROOT
ATOM      1  C   LIG    1        5.894   0.962   1.461  0.00  0.00    +0.210 A 
ATOM      2  N   LIG    1        6.528   1.001   0.314  0.00  0.00    -0.300 NA
ATOM      3  N   LIG    1        7.901   1.085   0.580  0.00  0.00    -0.330 NA
ATOM      4  C   LIG    1        8.064   1.087   1.880  0.00  0.00    +0.420 A 
ATOM      5  N   LIG    1        6.827   1.011   2.461  0.00  0.00    -0.440 N 
ENDROOT
BRANCH   5   6
ATOM      6  C   LIG    1        6.563   0.987   3.839  0.00  0.00    +0.110 A 
ATOM      7  C   LIG    1        6.502  -0.224   4.514  0.00  0.00    +0.050 A 
ATOM      8  C   LIG    1        6.241  -0.246   5.870  0.00  0.00    +0.030 A 
ATOM      9  C   LIG    1        6.040   0.938   6.556  0.00  0.00    +0.060 A 
ATOM     10  C   LIG    1        6.100   2.147   5.887  0.00  0.00    +0.050 A 
ATOM     11  C   LIG    1        6.367   2.175   4.531  0.00  0.00    -0.010 A 
ATOM     12 CL   LIG    1        6.449   3.693   3.693  0.00  0.00    -0.040 Cl
ENDBRANCH   5   6
BRANCH   4  13
ATOM     13  N   LIG    1        9.278   1.154   2.551  0.00  0.00    -0.440 N 
ATOM     14  C   LIG    1        9.508  -0.070   3.359  0.00  0.00    +0.190 C 
ATOM     15  C   LIG    1       11.042  -0.066   3.580  0.00  0.00    +0.040 C 
ATOM     16  C   LIG    1       11.584   0.463   2.233  0.00  0.00    +0.030 C 
ATOM     17  C   LIG    1       10.407   1.226   1.598  0.00  0.00    +0.210 C 
ENDBRANCH   4  13
BRANCH   1  18
ATOM     18  S   LIG    1        4.148   0.858   1.676  0.00  0.00    +0.050 S 
BRANCH  18  19
ATOM     19  C   LIG    1        3.528   0.833  -0.028  0.00  0.00    +0.260 C 
BRANCH  19  23
ATOM     20  C   LIG    1        0.002  -0.004   0.002  0.00  0.00    +0.220 A 
ATOM     21  N   LIG    1       -0.016   1.308   0.009  0.00  0.00    -0.260 NA
ATOM     22  N   LIG    1        1.193   1.749   0.000  0.00  0.00    -0.250 NA
ATOM     23  C   LIG    1        2.023   0.744  -0.013  0.00  0.00    +0.170 A 
ATOM     24  O   LIG    1        1.295  -0.386  -0.012  0.00  0.00    -0.190 OA
BRANCH  20  31
ATOM     25 CL   LIG    1        0.591  -2.964  -0.034  0.00  0.00    -0.040 Cl
ATOM     26  C   LIG    1       -1.006  -2.283  -0.007  0.00  0.00    -0.010 A 
ATOM     27  C   LIG    1       -2.111  -3.111   0.005  0.00  0.00    +0.040 A 
ATOM     28  C   LIG    1       -3.384  -2.570   0.020  0.00  0.00    +0.060 A 
ATOM     29  C   LIG    1       -3.559  -1.198   0.029  0.00  0.00    +0.030 A 
ATOM     30  C   LIG    1       -2.463  -0.359   0.023  0.00  0.00    +0.100 A 
ATOM     31  C   LIG    1       -1.176  -0.897   0.008  0.00  0.00    -0.020 A 
ENDBRANCH  20  31
ENDBRANCH  19  23
ENDBRANCH  18  19
ENDBRANCH   1  18
TORSDOF 6
