REMARK  Name = ZINCrD000000fQRX.0
REMARK                            x       y       z     vdW  Elec       q    Type
REMARK                         _______ _______ _______ _____ _____    ______ ____
ROOT
ATOM      1  C   LIG    1       -1.297  -0.091  -0.693  0.00  0.00    -0.170 A 
ATOM      2  C   LIG    1        0.014  -0.575  -0.637  0.00  0.00    +0.060 A 
ATOM      3  C   LIG    1        0.241  -1.930  -0.527  0.00  0.00    +0.000 A 
ATOM      4  C   LIG    1       -0.829  -2.810  -0.471  0.00  0.00    -0.050 A 
ATOM      5  C   LIG    1       -0.561  -4.294  -0.351  0.00  0.00    +0.070 C 
ATOM      6  C   LIG    1       -0.963  -4.754   1.054  0.00  0.00    +0.270 C 
ATOM      7  N   LIG    1       -2.407  -4.960   1.111  0.00  0.00    -0.600 N 
ATOM      8  C   LIG    1       -3.375  -3.879   0.953  0.00  0.00    +0.290 C 
ATOM      9  C   LIG    1       -3.284  -3.306  -0.466  0.00  0.00    +0.070 C 
ATOM     10  C   LIG    1       -2.869  -6.209   1.320  0.00  0.00    +0.570 C 
ATOM     11  O   LIG    1       -4.060  -6.400   1.468  0.00  0.00    -0.500 OA
ATOM     12  C   LIG    1       -2.121  -2.342  -0.525  0.00  0.00    -0.090 A 
ATOM     13  C   LIG    1       -2.369  -0.988  -0.630  0.00  0.00    +0.080 A 
ENDROOT
BRANCH  10  14
ATOM     14  C   LIG    1       -1.928  -7.345   1.368  0.00  0.00    -0.140 A 
ATOM     15  C   LIG    1       -1.105  -7.622   0.275  0.00  0.00    +0.070 A 
ATOM     16  C   LIG    1       -0.224  -8.681   0.329  0.00  0.00    +0.010 A 
ATOM     17  C   LIG    1       -0.159  -9.480   1.458  0.00  0.00    +0.070 A 
ATOM     18  C   LIG    1       -0.972  -9.221   2.545  0.00  0.00    -0.010 A 
ATOM     19  C   LIG    1       -1.860  -8.156   2.510  0.00  0.00    +0.210 A 
BRANCH  19  20
ATOM     20  N   LIG    1       -2.682  -7.893   3.608  0.00  0.00    -0.330 N 
ATOM     21  C   LIG    1       -2.811  -8.668   4.716  0.00  0.00    +0.230 A 
ATOM     22  C   LIG    1       -3.697  -8.062   5.539  0.00  0.00    -0.090 A 
ATOM     23  C   LIG    1       -4.132  -6.887   4.915  0.00  0.00    +0.240 A 
ATOM     24  N   LIG    1       -3.526  -6.785   3.761  0.00  0.00    -0.250 NA
ENDBRANCH  19  20
ENDBRANCH  10  14
BRANCH   1  26
ATOM     25  C   LIG    1       -0.391   2.317  -0.873  0.00  0.00    +0.070 C 
ATOM     26  C   LIG    1       -1.548   1.354  -0.812  0.00  0.00    +0.390 C 
ATOM     27  O   LIG    1       -2.686   1.770  -0.865  0.00  0.00    -0.460 OA
ENDBRANCH   1  26
TORSDOF 3
