REMARK  Name = ZINCqH0000050rqF.0
REMARK                            x       y       z     vdW  Elec       q    Type
REMARK                         _______ _______ _______ _____ _____    ______ ____
ROOT
ATOM      1  O   LIG    1       -2.614  -3.977   0.791  0.00  0.00    -0.330 OA
ENDROOT
BRANCH   1   2
ATOM      2  C   LIG    1       -2.500  -2.656   0.584  0.00  0.00    +0.470 C 
ATOM      3  O   LIG    1       -3.359  -2.064  -0.025  0.00  0.00    -0.510 OA
BRANCH   2   4
ATOM      4  C   LIG    1       -1.301  -1.911   1.112  0.00  0.00    +0.130 C 
BRANCH   4   5
ATOM      5  C   LIG    1       -1.416  -0.431   0.741  0.00  0.00    +0.210 C 
BRANCH   5   6
ATOM      6  O   LIG    1       -0.279   0.275   1.242  0.00  0.00    -0.310 OA
BRANCH   6  11
ATOM      7  C   LIG    1       -0.057   5.811   0.227  0.00  0.00    +0.100 C 
ATOM      8  C   LIG    1       -0.117   4.330   0.498  0.00  0.00    -0.120 A 
ATOM      9  C   LIG    1        0.902   3.716   1.203  0.00  0.00    +0.050 A 
ATOM     10  C   LIG    1        0.850   2.358   1.454  0.00  0.00    -0.020 A 
ATOM     11  C   LIG    1       -0.226   1.611   0.997  0.00  0.00    +0.120 A 
ATOM     12  C   LIG    1       -1.244   2.228   0.285  0.00  0.00    -0.070 A 
ATOM     13  C   LIG    1       -1.190   3.587   0.042  0.00  0.00    +0.050 A 
ENDBRANCH   6  11
ENDBRANCH   5   6
ENDBRANCH   4   5
ENDBRANCH   2   4
ENDBRANCH   1   2
BRANCH   1  14
ATOM     14  C   LIG    1       -3.796  -4.629   0.255  0.00  0.00    +0.270 C 
BRANCH  14  15
ATOM     15  C   LIG    1       -3.751  -6.099   0.583  0.00  0.00    +0.520 C 
ATOM     16  N   LIG    1       -4.750  -6.910   0.183  0.00  0.00    -0.570 N 
ATOM     17  O   LIG    1       -2.815  -6.553   1.208  0.00  0.00    -0.500 OA
BRANCH  16  18
ATOM     18  C   LIG    1       -4.658  -8.291   0.392  0.00  0.00    +0.140 A 
ATOM     19  C   LIG    1       -3.939  -9.082  -0.495  0.00  0.00    +0.010 A 
ATOM     20  C   LIG    1       -3.846 -10.444  -0.283  0.00  0.00    +0.020 A 
ATOM     21  C   LIG    1       -4.476 -11.021   0.804  0.00  0.00    +0.020 A 
ATOM     22  C   LIG    1       -5.197 -10.236   1.686  0.00  0.00    +0.020 A 
ATOM     23  C   LIG    1       -5.289  -8.873   1.482  0.00  0.00    +0.010 A 
ENDBRANCH  16  18
BRANCH  16  24
ATOM     24  C   LIG    1       -5.933  -6.346  -0.472  0.00  0.00    +0.230 C 
ATOM     25  C   LIG    1       -7.172  -6.633   0.379  0.00  0.00    +0.030 C 
ATOM     26  C   LIG    1       -6.104  -6.982  -1.853  0.00  0.00    +0.030 C 
ENDBRANCH  16  24
ENDBRANCH  14  15
ENDBRANCH   1  14
TORSDOF 9
