REMARK  Name = ZINCpk00000y6tUn.0
REMARK                            x       y       z     vdW  Elec       q    Type
REMARK                         _______ _______ _______ _____ _____    ______ ____
ROOT
ATOM      1  C   LIG    1       -2.512   0.980   0.019  0.00  0.00    +0.270 C 
ATOM      2  C   LIG    1       -3.090   0.926   1.450  0.00  0.00    +0.070 C 
ATOM      3  C   LIG    1       -4.616   1.079   1.214  0.00  0.00    +0.170 C 
ATOM      4  C   LIG    1       -4.649   2.057   0.013  0.00  0.00    +0.220 C 
ATOM      5  N   LIG    1       -3.501   1.661  -0.829  0.00  0.00    -0.610 N 
ATOM      6  C   LIG    1       -3.379   1.887  -2.152  0.00  0.00    +0.520 C 
ATOM      7  O   LIG    1       -2.386   1.516  -2.741  0.00  0.00    -0.510 OA
ENDROOT
BRANCH   1  12
ATOM      8  C   LIG    1        1.179   1.786   0.000  0.00  0.00    +0.130 A 
ATOM      9  C   LIG    1        1.157   3.173   0.008  0.00  0.00    -0.080 A 
ATOM     10  C   LIG    1       -0.051   3.844   0.023  0.00  0.00    +0.040 A 
ATOM     11  C   LIG    1       -1.237   3.133   0.030  0.00  0.00    -0.020 A 
ATOM     12  C   LIG    1       -1.218   1.751   0.017  0.00  0.00    -0.050 A 
ATOM     13  C   LIG    1       -0.013   1.076   0.008  0.00  0.00    -0.010 A 
BRANCH   8  15
ATOM     14  C   LIG    1        3.553   1.921  -0.021  0.00  0.00    +0.250 C 
ATOM     15  O   LIG    1        2.366   1.125  -0.014  0.00  0.00    -0.320 OA
ENDBRANCH   8  15
ENDBRANCH   1  12
BRANCH   3  16
ATOM     16  O   LIG    1       -5.256   1.649   2.358  0.00  0.00    -0.550 OA
ATOM     17  H   LIG    1       -6.211   1.764   2.258  0.00  0.00    +0.380 HD
ENDBRANCH   3  16
BRANCH   6  18
ATOM     18  C   LIG    1       -4.476   2.600  -2.899  0.00  0.00    +0.330 C 
BRANCH  18  19
ATOM     19  N   LIG    1       -4.106   2.721  -4.312  0.00  0.00    -0.480 N 
ATOM     20  C   LIG    1       -4.456   1.741  -5.184  0.00  0.00    +0.290 A 
ATOM     21  C   LIG    1       -4.125   1.831  -6.493  0.00  0.00    -0.070 A 
ATOM     22  C   LIG    1       -3.413   2.944  -6.961  0.00  0.00    +0.120 A 
ATOM     23  C   LIG    1       -3.062   3.928  -6.083  0.00  0.00    -0.200 A 
ATOM     24  C   LIG    1       -2.297   5.135  -6.559  0.00  0.00    +0.120 C 
ATOM     25  C   LIG    1       -3.426   3.805  -4.731  0.00  0.00    +0.520 A 
ATOM     26  O   LIG    1       -3.123   4.681  -3.936  0.00  0.00    -0.550 OA
ENDBRANCH  18  19
ENDBRANCH   6  18
TORSDOF 5
