REMARK  Name = ZINCrD00000hQ4Kk.0
REMARK                            x       y       z     vdW  Elec       q    Type
REMARK                         _______ _______ _______ _____ _____    ______ ____
ROOT
ATOM      1  C   LIG    1        1.620  -1.590   0.671  0.00  0.00    +0.280 A 
ATOM      2  N   LIG    1        0.604  -2.167   1.277  0.00  0.00    -0.460 NA
ATOM      3  C   LIG    1        0.796  -3.303   1.965  0.00  0.00    +0.080 A 
ATOM      4  C   LIG    1       -0.273  -3.939   2.616  0.00  0.00    +0.060 A 
ATOM      5  C   LIG    1       -0.051  -5.089   3.314  0.00  0.00    +0.030 A 
ATOM      6  C   LIG    1        1.223  -5.644   3.391  0.00  0.00    +0.030 A 
ATOM      7  C   LIG    1        2.283  -5.052   2.772  0.00  0.00    +0.050 A 
ATOM      8  C   LIG    1        2.091  -3.867   2.044  0.00  0.00    +0.090 A 
ATOM      9  N   LIG    1        3.119  -3.266   1.426  0.00  0.00    -0.460 NA
ATOM     10  C   LIG    1        2.916  -2.155   0.750  0.00  0.00    +0.300 A 
ENDROOT
BRANCH  10  11
ATOM     11  N   LIG    1        3.979  -1.533   0.111  0.00  0.00    -0.460 N 
ATOM     12  C   LIG    1        3.700  -1.352  -1.319  0.00  0.00    +0.200 C 
ATOM     13  C   LIG    1        4.825  -0.537  -1.961  0.00  0.00    +0.040 C 
ATOM     14  C   LIG    1        6.154  -1.273  -1.771  0.00  0.00    +0.000 C 
ATOM     15  C   LIG    1        6.397  -1.492  -0.275  0.00  0.00    +0.020 C 
ATOM     16  C   LIG    1        5.227  -2.279   0.318  0.00  0.00    +0.200 C 
ENDBRANCH  10  11
BRANCH   1  20
ATOM     17  C   LIG    1       -0.019   1.536   0.011  0.00  0.00    +0.120 C 
ATOM     18  C   LIG    1        1.468   1.960  -0.001  0.00  0.00    +0.070 C 
ATOM     19  C   LIG    1        2.191   0.705   0.550  0.00  0.00    +0.220 C 
ATOM     20  N   LIG    1        1.421  -0.418  -0.044  0.00  0.00    -0.450 N 
ATOM     21  C   LIG    1        0.002  -0.004   0.002  0.00  0.00    +0.230 C 
BRANCH  17  26
ATOM     22  C   LIG    1       -3.199   3.830  -3.104  0.00  0.00    +0.210 C 
ATOM     23  C   LIG    1       -2.057   3.020  -2.545  0.00  0.00    +0.170 A 
ATOM     24  N   LIG    1       -1.145   2.400  -3.232  0.00  0.00    -0.380 NA
ATOM     25  O   LIG    1       -0.367   1.840  -2.488  0.00  0.00    +0.090 OA
ATOM     26  C   LIG    1       -0.721   2.056  -1.217  0.00  0.00    +0.190 A 
ATOM     27  N   LIG    1       -1.799   2.802  -1.243  0.00  0.00    -0.480 NA
ENDBRANCH  17  26
ENDBRANCH   1  20
TORSDOF 3
