REMARK  Name = ZINCrH00000No4JN.0
REMARK                            x       y       z     vdW  Elec       q    Type
REMARK                         _______ _______ _______ _____ _____    ______ ____
ROOT
ATOM      1  C   LIG    1        0.092   3.808   0.046  0.00  0.00    -0.180 A 
ATOM      2  C   LIG    1        1.249   3.022   0.008  0.00  0.00    +0.240 A 
ATOM      3  C   LIG    1        1.108   1.645  -0.021  0.00  0.00    -0.130 A 
ATOM      4  C   LIG    1       -0.159   1.086  -0.013  0.00  0.00    +0.410 A 
ATOM      5  N   LIG    1       -1.239   1.839   0.018  0.00  0.00    -0.480 NA
ATOM      6  C   LIG    1       -1.165   3.166   0.052  0.00  0.00    +0.280 A 
ENDROOT
BRANCH   3   7
ATOM      7  N   LIG    1        2.305   0.775  -0.062  0.00  0.00    +0.030 N 
ATOM      8  O   LIG    1        3.418   1.271  -0.069  0.00  0.00    -0.150 OA
ATOM      9  O   LIG    1        2.178  -0.435  -0.087  0.00  0.00    -0.150 OA
ENDBRANCH   3   7
BRANCH   1  10
ATOM     10  C   LIG    1        0.184   5.278   0.077  0.00  0.00    +0.530 C 
ATOM     11  O   LIG    1       -0.824   5.952   0.003  0.00  0.00    -0.490 OA
BRANCH  10  12
ATOM     12  O   LIG    1        1.387   5.876   0.189  0.00  0.00    -0.350 OA
BRANCH  12  14
ATOM     13  C   LIG    1        2.845   7.820   0.345  0.00  0.00    +0.060 C 
ATOM     14  C   LIG    1        1.402   7.327   0.214  0.00  0.00    +0.220 C 
ENDBRANCH  12  14
ENDBRANCH  10  12
ENDBRANCH   1  10
BRANCH   6  15
ATOM     15  C   LIG    1       -2.396   3.967   0.092  0.00  0.00    -0.010 C 
ATOM     16  C   LIG    1       -3.591   3.359   0.212  0.00  0.00    +0.140 C 
BRANCH  16  17
ATOM     17  C   LIG    1       -4.824   4.161   0.252  0.00  0.00    -0.090 A 
ATOM     18  C   LIG    1       -4.757   5.555   0.165  0.00  0.00    +0.060 A 
ATOM     19  C   LIG    1       -5.913   6.304   0.202  0.00  0.00    -0.040 A 
ATOM     20  C   LIG    1       -7.146   5.678   0.325  0.00  0.00    +0.120 A 
ATOM     21  C   LIG    1       -7.221   4.289   0.412  0.00  0.00    +0.090 A 
ATOM     22  C   LIG    1       -6.067   3.531   0.371  0.00  0.00    +0.000 A 
BRANCH  21  23
ATOM     23  O   LIG    1       -8.431   3.680   0.533  0.00  0.00    -0.300 OA
ATOM     24  C   LIG    1       -8.434   2.253   0.617  0.00  0.00    +0.240 C 
ENDBRANCH  21  23
BRANCH  20  25
ATOM     25  O   LIG    1       -8.283   6.422   0.360  0.00  0.00    -0.300 OA
BRANCH  25  26
ATOM     26  C   LIG    1       -8.133   7.840   0.266  0.00  0.00    +0.170 C 
ATOM     27  C   LIG    1       -9.511   8.503   0.323  0.00  0.00    +0.070 C 
ENDBRANCH  25  26
ENDBRANCH  20  25
ENDBRANCH  16  17
ENDBRANCH   6  15
TORSDOF 9
