REMARK  Name = ZINCrH00000tj18P.1
REMARK                            x       y       z     vdW  Elec       q    Type
REMARK                         _______ _______ _______ _____ _____    ______ ____
ROOT
ATOM      1  C   LIG    1       -3.330  -5.147   0.062  0.00  0.00    -0.670 A 
ATOM      2  C   LIG    1       -4.539  -4.475   0.076  0.00  0.00    +0.140 A 
ATOM      3  C   LIG    1       -4.563  -3.095   0.093  0.00  0.00    +0.050 A 
ATOM      4  C   LIG    1       -3.372  -2.380   0.095  0.00  0.00    +0.190 A 
ATOM      5  C   LIG    1       -2.160  -3.058   0.076  0.00  0.00    -0.010 A 
ATOM      6  C   LIG    1       -2.142  -4.439   0.065  0.00  0.00    +0.190 A 
ENDROOT
BRANCH   1   8
ATOM      7  O   LIG    1       -2.045  -7.297   0.575  0.00  0.00    -0.930 OA
ATOM      8  S   LIG    1       -3.304  -6.909   0.041  0.00  0.00    +2.700 S 
ATOM      9  O   LIG    1       -4.544  -7.335   0.587  0.00  0.00    -0.940 OA
BRANCH   8  10
ATOM     10  N   LIG    1       -3.304  -7.380  -1.546  0.00  0.00    -1.020 N 
ATOM     11  H   LIG    1       -4.060  -7.870  -1.906  0.00  0.00    +0.440 HD
BRANCH  10  12
ATOM     12  C   LIG    1       -2.226  -7.075  -2.359  0.00  0.00    +0.560 A 
ATOM     13  N   LIG    1       -1.354  -6.161  -1.960  0.00  0.00    -0.560 NA
ATOM     14  C   LIG    1       -0.310  -5.850  -2.711  0.00  0.00    +0.370 A 
ATOM     15  C   LIG    1       -0.142  -6.485  -3.931  0.00  0.00    -0.110 A 
ATOM     16  C   LIG    1       -1.076  -7.432  -4.320  0.00  0.00    +0.370 A 
ATOM     17  N   LIG    1       -2.095  -7.700  -3.520  0.00  0.00    -0.540 NA
ENDBRANCH  10  12
ENDBRANCH   8  10
ENDBRANCH   1   8
BRANCH   4  18
ATOM     18  N   LIG    1       -3.393  -0.982   0.111  0.00  0.00    -0.630 N 
ATOM     19  H   LIG    1       -2.783  -0.481  -0.452  0.00  0.00    +0.410 HD
BRANCH  18  20
ATOM     20  C   LIG    1       -4.262  -0.330   0.909  0.00  0.00    +0.550 C 
ATOM     21  S   LIG    1       -5.224  -1.206   2.022  0.00  0.00    -0.570 S 
BRANCH  20  22
ATOM     22  N   LIG    1       -4.373   1.011   0.832  0.00  0.00    -0.620 N 
ATOM     23  H   LIG    1       -3.868   1.501   0.164  0.00  0.00    +0.410 HD
BRANCH  22  24
ATOM     24  C   LIG    1       -5.216   1.695   1.714  0.00  0.00    +0.130 A 
ATOM     25  C   LIG    1       -5.254   1.342   3.056  0.00  0.00    +0.090 A 
ATOM     26  C   LIG    1       -6.083   2.024   3.925  0.00  0.00    +0.030 A 
ATOM     27  C   LIG    1       -6.880   3.053   3.460  0.00  0.00    +0.040 A 
ATOM     28  C   LIG    1       -6.850   3.404   2.122  0.00  0.00    +0.030 A 
ATOM     29  C   LIG    1       -6.023   2.727   1.247  0.00  0.00    -0.040 A 
ATOM     30 CL   LIG    1       -5.985   3.169  -0.431  0.00  0.00    -0.060 Cl
ENDBRANCH  22  24
ENDBRANCH  20  22
ENDBRANCH  18  20
ENDBRANCH   4  18
TORSDOF 7
