REMARK  Name = ZINCrH000004jxZY.0
REMARK                            x       y       z     vdW  Elec       q    Type
REMARK                         _______ _______ _______ _____ _____    ______ ____
ROOT
ATOM      1  C   LIG    1        2.084   0.222   2.293  0.00  0.00    +0.280 C 
ATOM      2  N   LIG    1        2.342  -0.104   0.888  0.00  0.00    -0.600 N 
ATOM      3  C   LIG    1        2.450  -1.392   0.504  0.00  0.00    +0.530 C 
ATOM      4  O   LIG    1        2.574  -1.665  -0.671  0.00  0.00    -0.530 OA
ENDROOT
BRANCH   2   5
ATOM      5  C   LIG    1        2.482   0.969  -0.099  0.00  0.00    +0.290 C 
ATOM      6  C   LIG    1        3.670   1.851   0.281  0.00  0.00    +0.010 C 
ATOM      7  C   LIG    1        3.670   3.083  -0.632  0.00  0.00    +0.030 C 
ATOM      8  C   LIG    1        2.482   3.964  -0.251  0.00  0.00    +0.080 C 
ATOM      9  C   LIG    1        1.212   3.153  -0.213  0.00  0.00    -0.070 A 
ATOM     10  C   LIG    1        0.006   3.840  -0.254  0.00  0.00    +0.000 A 
ATOM     11  C   LIG    1       -1.192   3.155  -0.215  0.00  0.00    +0.010 A 
ATOM     12  C   LIG    1       -1.191   1.775  -0.141  0.00  0.00    +0.000 A 
ATOM     13  C   LIG    1        0.006   1.092  -0.098  0.00  0.00    +0.020 A 
ATOM     14  C   LIG    1        1.213   1.778  -0.137  0.00  0.00    -0.090 A 
ENDBRANCH   2   5
BRANCH   3  15
ATOM     15  C   LIG    1        2.417  -2.491   1.534  0.00  0.00    -0.010 C 
ATOM     16  C   LIG    1        3.845  -2.859   1.997  0.00  0.00    +0.100 C 
ATOM     17  C   LIG    1        3.799  -4.359   2.187  0.00  0.00    +0.530 C 
ATOM     18  N   LIG    1        2.717  -4.870   1.573  0.00  0.00    -0.580 N 
ATOM     19  O   LIG    1        4.618  -5.008   2.803  0.00  0.00    -0.510 OA
ATOM     20  C   LIG    1        1.935  -3.819   0.910  0.00  0.00    +0.310 C 
BRANCH  18  21
ATOM     21  C   LIG    1        2.379  -6.229   1.567  0.00  0.00    +0.110 A 
ATOM     22  C   LIG    1        2.849  -7.058   0.559  0.00  0.00    +0.060 A 
ATOM     23  C   LIG    1        2.519  -8.400   0.559  0.00  0.00    +0.020 A 
ATOM     24  C   LIG    1        1.712  -8.915   1.556  0.00  0.00    +0.060 A 
ATOM     25  C   LIG    1        1.236  -8.092   2.560  0.00  0.00    -0.010 A 
ATOM     26  C   LIG    1        1.567  -6.750   2.570  0.00  0.00    +0.110 A 
ATOM     27  F   LIG    1        1.103  -5.945   3.551  0.00  0.00    -0.130 F 
ENDBRANCH  18  21
ENDBRANCH   3  15
TORSDOF 3
