REMARK  Name = ZINCvU0000000Boy.0
REMARK                            x       y       z     vdW  Elec       q    Type
REMARK                         _______ _______ _______ _____ _____    ______ ____
ROOT
ATOM      1  C   LIG    1       -0.064   1.031   2.417  0.00  0.00    +0.190 C 
ENDROOT
BRANCH   1   2
ATOM      2  N   LIG    1       -0.778   0.787   1.157  0.00  0.00    -0.510 NA
ATOM      3  C   LIG    1       -2.163   0.363   1.410  0.00  0.00    +0.200 C 
ATOM      4  C   LIG    1       -2.895   0.197   0.076  0.00  0.00    +0.200 C 
ATOM      5  N   LIG    1       -2.186  -0.792  -0.748  0.00  0.00    -0.490 N 
ATOM      6  C   LIG    1       -0.802  -0.368  -1.002  0.00  0.00    +0.220 C 
ATOM      7  C   LIG    1       -0.070  -0.202   0.332  0.00  0.00    +0.190 C 
BRANCH   5   8
ATOM      8  C   LIG    1       -2.866  -1.024  -1.946  0.00  0.00    +0.130 A 
ATOM      9  C   LIG    1       -2.360  -1.930  -2.869  0.00  0.00    -0.010 A 
ATOM     10  C   LIG    1       -3.034  -2.157  -4.053  0.00  0.00    +0.050 A 
ATOM     11  C   LIG    1       -4.212  -1.485  -4.320  0.00  0.00    -0.010 A 
ATOM     12  C   LIG    1       -4.720  -0.582  -3.402  0.00  0.00    -0.010 A 
ATOM     13 CL   LIG    1       -6.200   0.260  -3.742  0.00  0.00    -0.070 Cl
ATOM     14  C   LIG    1       -4.053  -0.354  -2.214  0.00  0.00    -0.020 A 
ENDBRANCH   5   8
ENDBRANCH   1   2
BRANCH   1  15
ATOM     15  C   LIG    1       -0.727   2.161   3.160  0.00  0.00    -0.090 A 
ATOM     16  C   LIG    1       -1.065   3.323   2.492  0.00  0.00    +0.050 A 
ATOM     17  C   LIG    1       -1.678   4.359   3.173  0.00  0.00    +0.000 A 
ATOM     18  C   LIG    1       -1.944   4.236   4.524  0.00  0.00    +0.010 A 
ATOM     19  C   LIG    1       -1.601   3.076   5.194  0.00  0.00    +0.000 A 
ATOM     20  C   LIG    1       -0.992   2.039   4.512  0.00  0.00    +0.010 A 
ENDBRANCH   1  15
BRANCH   1  23
ATOM     21  N   LIG    1        2.334   1.121   3.018  0.00  0.00    -0.670 N 
ATOM     22  H   LIG    1        2.100   0.752   3.885  0.00  0.00    +0.410 HD
ATOM     23  C   LIG    1        1.368   1.396   2.120  0.00  0.00    +0.520 C 
ATOM     24  O   LIG    1        1.650   1.939   1.073  0.00  0.00    -0.490 OA
BRANCH  21  30
ATOM     25  C   LIG    1        7.066  -0.171   3.352  0.00  0.00    +0.100 C 
ATOM     26  C   LIG    1        5.989   0.756   2.850  0.00  0.00    -0.060 A 
ATOM     27  C   LIG    1        6.326   1.850   2.074  0.00  0.00    -0.010 A 
ATOM     28  C   LIG    1        5.340   2.703   1.611  0.00  0.00    -0.060 A 
ATOM     29  C   LIG    1        4.016   2.464   1.923  0.00  0.00    +0.020 A 
ATOM     30  C   LIG    1        3.675   1.366   2.701  0.00  0.00    +0.150 A 
ATOM     31  C   LIG    1        5.712   3.894   0.766  0.00  0.00    +0.090 C 
ATOM     32  C   LIG    1        4.667   0.514   3.169  0.00  0.00    -0.030 A 
ENDBRANCH  21  30
ENDBRANCH   1  23
TORSDOF 5
