REMARK  Name = ZINCvU0000000AhU.0
REMARK                            x       y       z     vdW  Elec       q    Type
REMARK                         _______ _______ _______ _____ _____    ______ ____
ROOT
ATOM      1  O   LIG    1       -4.841   0.940   5.013  0.00  0.00    -0.490 OA
ATOM      2  C   LIG    1       -4.364   0.969   3.899  0.00  0.00    +0.520 C 
ATOM      3  C   LIG    1       -4.968   1.859   2.842  0.00  0.00    +0.090 C 
ATOM      4  C   LIG    1       -3.857   2.385   1.932  0.00  0.00    +0.300 C 
ATOM      5  N   LIG    1       -2.978   1.279   1.544  0.00  0.00    -0.610 N 
ATOM      6  C   LIG    1       -2.702   0.284   2.402  0.00  0.00    +0.710 C 
ATOM      7  O   LIG    1       -1.892  -0.565   2.085  0.00  0.00    -0.550 OA
ATOM      8  N   LIG    1       -3.296   0.205   3.604  0.00  0.00    -0.570 N 
ENDROOT
BRANCH   5   9
ATOM      9  C   LIG    1       -2.396   1.256   0.200  0.00  0.00    +0.370 C 
BRANCH   9  10
ATOM     10  C   LIG    1       -1.072   1.976   0.213  0.00  0.00    -0.150 A 
ATOM     11  C   LIG    1        0.106   1.256   0.166  0.00  0.00    +0.080 A 
ATOM     12  C   LIG    1        1.321   1.917   0.172  0.00  0.00    +0.000 A 
ATOM     13  C   LIG    1        1.358   3.297   0.231  0.00  0.00    +0.050 A 
ATOM     14  C   LIG    1        0.180   4.019   0.284  0.00  0.00    -0.020 A 
ATOM     15  C   LIG    1       -1.036   3.359   0.278  0.00  0.00    +0.110 A 
ATOM     16  F   LIG    1       -2.188   4.064   0.330  0.00  0.00    -0.140 F 
ENDBRANCH   9  10
ENDBRANCH   5   9
BRANCH   8  17
ATOM     17  C   LIG    1       -2.777  -0.728   4.607  0.00  0.00    +0.320 C 
BRANCH  17  18
ATOM     18  C   LIG    1       -3.471  -2.083   4.451  0.00  0.00    +0.080 C 
BRANCH  18  19
ATOM     19  C   LIG    1       -2.938  -3.043   5.482  0.00  0.00    -0.070 A 
ATOM     20  C   LIG    1       -1.844  -3.836   5.188  0.00  0.00    +0.020 A 
ATOM     21  C   LIG    1       -1.349  -4.714   6.134  0.00  0.00    +0.030 A 
ATOM     22  C   LIG    1       -1.952  -4.809   7.373  0.00  0.00    +0.010 A 
ATOM     23  C   LIG    1       -3.054  -4.018   7.669  0.00  0.00    +0.090 A 
ATOM     24  C   LIG    1       -3.545  -3.134   6.720  0.00  0.00    +0.000 A 
BRANCH  23  25
ATOM     25  O   LIG    1       -3.649  -4.110   8.887  0.00  0.00    -0.260 OA
BRANCH  25  26
ATOM     26  C   LIG    1       -4.906  -4.622   8.946  0.00  0.00    +0.120 A 
ATOM     27  C   LIG    1       -5.497  -5.145   7.804  0.00  0.00    -0.060 A 
ATOM     28  C   LIG    1       -6.774  -5.670   7.868  0.00  0.00    +0.050 A 
ATOM     29  C   LIG    1       -7.466  -5.665   9.065  0.00  0.00    -0.020 A 
ATOM     30  C   LIG    1       -6.881  -5.139  10.202  0.00  0.00    +0.050 A 
ATOM     31  C   LIG    1       -5.603  -4.618  10.146  0.00  0.00    -0.020 A 
ENDBRANCH  25  26
ENDBRANCH  23  25
ENDBRANCH  18  19
ENDBRANCH  17  18
ENDBRANCH   8  17
TORSDOF 7
