REMARK  Name = ZINCqH0000007l4r.0
REMARK                            x       y       z     vdW  Elec       q    Type
REMARK                         _______ _______ _______ _____ _____    ______ ____
ROOT
ATOM      1  N   LIG    1        0.928   4.097   1.337  0.00  0.00    -0.720 N 
ATOM      2  H   LIG    1        0.811   3.457   2.056  0.00  0.00    +0.400 HD
ATOM      3  C   LIG    1        0.870   5.418   1.594  0.00  0.00    +0.510 C 
ATOM      4  O   LIG    1        1.016   6.219   0.695  0.00  0.00    -0.520 OA
ENDROOT
BRANCH   1   5
ATOM      5  C   LIG    1        1.167   3.627  -0.030  0.00  0.00    +0.340 C 
BRANCH   5  10
ATOM      6  C   LIG    1        2.408   0.058  -0.077  0.00  0.00    +0.090 A 
ATOM      7  C   LIG    1        1.216  -0.651  -0.080  0.00  0.00    -0.030 A 
ATOM      8  C   LIG    1        0.011   0.025  -0.066  0.00  0.00    -0.040 A 
ATOM      9  C   LIG    1       -0.006   1.411  -0.049  0.00  0.00    +0.110 A 
ATOM     10  C   LIG    1        1.186   2.120  -0.047  0.00  0.00    -0.100 A 
ATOM     11  C   LIG    1        2.391   1.445  -0.062  0.00  0.00    +0.050 A 
BRANCH   6  13
ATOM     12  C   LIG    1        3.537  -2.035  -0.107  0.00  0.00    +0.250 C 
ATOM     13  O   LIG    1        3.594  -0.607  -0.091  0.00  0.00    -0.320 OA
ENDBRANCH   6  13
BRANCH   9  14
ATOM     14  O   LIG    1       -1.192   2.076  -0.041  0.00  0.00    -0.310 OA
ATOM     15  C   LIG    1       -2.381   1.283  -0.050  0.00  0.00    +0.250 C 
ENDBRANCH   9  14
ENDBRANCH   5  10
ENDBRANCH   1   5
BRANCH   3  16
ATOM     16  C   LIG    1        0.624   5.902   3.000  0.00  0.00    +0.200 C 
BRANCH  16  17
ATOM     17  O   LIG    1        0.606   7.331   3.016  0.00  0.00    -0.350 OA
BRANCH  17  18
ATOM     18  C   LIG    1        0.378   7.894   4.309  0.00  0.00    +0.150 C 
ATOM     19  C   LIG    1       -1.125   8.081   4.527  0.00  0.00    -0.010 C 
ATOM     20  C   LIG    1       -1.368   8.684   5.912  0.00  0.00    -0.020 C 
ATOM     21  C   LIG    1       -0.667  10.041   6.008  0.00  0.00    +0.000 C 
ATOM     22  C   LIG    1        0.836   9.855   5.790  0.00  0.00    +0.020 C 
ATOM     23  C   LIG    1       -2.871   8.870   6.130  0.00  0.00    +0.020 C 
ATOM     24  C   LIG    1        1.079   9.251   4.405  0.00  0.00    +0.000 C 
BRANCH  24  25
ATOM     25  C   LIG    1        2.582   9.065   4.187  0.00  0.00    -0.010 C 
ATOM     26  C   LIG    1        3.165   8.238   5.335  0.00  0.00    +0.010 C 
ATOM     27  C   LIG    1        3.265  10.434   4.147  0.00  0.00    +0.000 C 
ENDBRANCH  24  25
ENDBRANCH  17  18
ENDBRANCH  16  17
ENDBRANCH   3  16
TORSDOF 8
