REMARK  Name = ZINCpk000000dZvu.0
REMARK                            x       y       z     vdW  Elec       q    Type
REMARK                         _______ _______ _______ _____ _____    ______ ____
ROOT
ATOM      1  N   LIG    1        8.164   7.389   2.884  0.00  0.00    -0.570 N 
ATOM      2  C   LIG    1        6.926   7.643   3.631  0.00  0.00    +0.310 C 
ATOM      3  C   LIG    1        6.129   6.322   3.570  0.00  0.00    +0.000 C 
ATOM      4  C   LIG    1        7.256   5.282   3.367  0.00  0.00    +0.090 C 
ATOM      5  C   LIG    1        8.377   6.071   2.726  0.00  0.00    +0.520 C 
ATOM      6  O   LIG    1        9.329   5.585   2.153  0.00  0.00    -0.510 OA
ENDROOT
BRANCH   1  12
ATOM      7  C   LIG    1        9.975   8.949   3.230  0.00  0.00    -0.070 A 
ATOM      8  C   LIG    1       10.815   9.933   2.747  0.00  0.00    +0.020 A 
ATOM      9  C   LIG    1       10.692  10.368   1.440  0.00  0.00    +0.020 A 
ATOM     10  C   LIG    1        9.732   9.817   0.611  0.00  0.00    +0.010 A 
ATOM     11  C   LIG    1        8.893   8.829   1.087  0.00  0.00    +0.020 A 
ATOM     12  C   LIG    1        9.013   8.389   2.399  0.00  0.00    +0.140 A 
BRANCH   7  14
ATOM     13  C   LIG    1       11.020   7.255   4.709  0.00  0.00    +0.030 C 
ATOM     14  C   LIG    1       10.105   8.480   4.656  0.00  0.00    +0.060 C 
ENDBRANCH   7  14
ENDBRANCH   1  12
BRANCH   3  15
ATOM     15  C   LIG    1        5.177   6.319   2.402  0.00  0.00    +0.520 C 
ATOM     16  N   LIG    1        4.389   5.250   2.177  0.00  0.00    -0.730 N 
ATOM     17  H   LIG    1        4.434   4.481   2.767  0.00  0.00    +0.400 HD
ATOM     18  O   LIG    1        5.120   7.280   1.664  0.00  0.00    -0.520 OA
BRANCH  16  19
ATOM     19  C   LIG    1        3.463   5.247   1.041  0.00  0.00    +0.260 C 
BRANCH  19  20
ATOM     20  C   LIG    1        2.693   3.926   1.014  0.00  0.00    +0.030 C 
BRANCH  20  21
ATOM     21  C   LIG    1        1.726   3.923  -0.172  0.00  0.00    +0.330 C 
BRANCH  21  22
ATOM     22  N   LIG    1        0.989   2.658  -0.199  0.00  0.00    -0.380 N 
ATOM     23  C   LIG    1       -0.347   2.504  -0.207  0.00  0.00    +0.480 A 
ATOM     24  N   LIG    1       -0.607   1.222  -0.236  0.00  0.00    -0.550 NA
ATOM     25  C   LIG    1        0.531   0.529  -0.239  0.00  0.00    +0.420 A 
ATOM     26  N   LIG    1        1.536   1.365  -0.220  0.00  0.00    -0.320 NA
ENDBRANCH  21  22
ENDBRANCH  20  21
ENDBRANCH  19  20
ENDBRANCH  16  19
ENDBRANCH   3  15
TORSDOF 7
