REMARK  Name = ZINCkj000018RBhl.2
REMARK                            x       y       z     vdW  Elec       q    Type
REMARK                         _______ _______ _______ _____ _____    ______ ____
ROOT
ATOM      1  C   LIG    1       -3.623  -0.863  -1.843  0.00  0.00    +0.140 A 
ATOM      2  C   LIG    1       -4.668  -0.243  -1.173  0.00  0.00    +0.060 A 
ATOM      3  C   LIG    1       -4.447   0.942  -0.497  0.00  0.00    +0.060 A 
ATOM      4  C   LIG    1       -3.186   1.509  -0.488  0.00  0.00    +0.050 A 
ATOM      5  C   LIG    1       -2.143   0.893  -1.155  0.00  0.00    -0.140 A 
ATOM      6  C   LIG    1       -2.359  -0.288  -1.837  0.00  0.00    +0.070 A 
ENDROOT
BRANCH   1   9
ATOM      7  C   LIG    1       -4.798  -3.802  -3.414  0.00  0.00    -0.010 A 
ATOM      8  C   LIG    1       -5.046  -2.683  -2.693  0.00  0.00    +0.180 A 
ATOM      9  N   LIG    1       -3.844  -2.066  -2.529  0.00  0.00    -0.260 N 
ATOM     10  N   LIG    1       -2.944  -2.782  -3.108  0.00  0.00    -0.080 NA
ATOM     11  N   LIG    1       -3.480  -3.821  -3.644  0.00  0.00    -0.240 NA
BRANCH   7  12
ATOM     12  C   LIG    1       -5.806  -4.827  -3.863  0.00  0.00    +0.320 C 
BRANCH  12  13
ATOM     13  O   LIG    1       -7.108  -4.442  -3.416  0.00  0.00    -0.570 OA
ATOM     14  H   LIG    1       -7.809  -5.058  -3.670  0.00  0.00    +0.400 HD
ENDBRANCH  12  13
ENDBRANCH   7  12
ENDBRANCH   1   9
BRANCH   5  15
ATOM     15  C   LIG    1       -0.770   1.515  -1.143  0.00  0.00    +0.330 C 
BRANCH  15  16
ATOM     16  N   LIG    1       -0.012   1.005   0.008  0.00  0.00    -0.400 N 
ATOM     17  C   LIG    1        1.373   1.543  -0.003  0.00  0.00    +0.280 C 
ATOM     18  C   LIG    1        1.851   1.415   1.460  0.00  0.00    +0.080 C 
ATOM     19  C   LIG    1        0.560   1.393   2.303  0.00  0.00    +0.210 C 
ATOM     20  F   LIG    1        0.462   0.190   3.011  0.00  0.00    -0.190 F 
ATOM     21  C   LIG    1       -0.590   1.510   1.279  0.00  0.00    +0.270 C 
ATOM     22  H   LIG    1        0.002  -0.004   0.002  0.00  0.00    +0.430 HD
ENDBRANCH  15  16
ENDBRANCH   5  15
TORSDOF 5
