REMARK  Name = ZINCkj000018RBhl.1
REMARK                            x       y       z     vdW  Elec       q    Type
REMARK                         _______ _______ _______ _____ _____    ______ ____
ROOT
ATOM      1  C   LIG    1       -1.236   3.137   0.030  0.00  0.00    +0.140 A 
ATOM      2  C   LIG    1       -1.219   1.750   0.017  0.00  0.00    +0.060 A 
ATOM      3  C   LIG    1       -0.013   1.076   0.008  0.00  0.00    +0.060 A 
ATOM      4  C   LIG    1        1.176   1.783   0.000  0.00  0.00    +0.050 A 
ATOM      5  C   LIG    1        1.161   3.166   0.008  0.00  0.00    -0.140 A 
ATOM      6  C   LIG    1       -0.042   3.845   0.023  0.00  0.00    +0.070 A 
ENDROOT
BRANCH   1   9
ATOM      7  C   LIG    1       -4.580   4.279   0.066  0.00  0.00    -0.010 A 
ATOM      8  C   LIG    1       -3.696   3.255   0.048  0.00  0.00    +0.180 A 
ATOM      9  N   LIG    1       -2.459   3.824   0.045  0.00  0.00    -0.260 N 
ATOM     10  N   LIG    1       -2.608   5.103   0.053  0.00  0.00    -0.080 NA
ATOM     11  N   LIG    1       -3.858   5.405   0.065  0.00  0.00    -0.240 NA
BRANCH   7  12
ATOM     12  C   LIG    1       -6.083   4.173   0.079  0.00  0.00    +0.320 C 
BRANCH  12  13
ATOM     13  O   LIG    1       -6.463   2.795   0.075  0.00  0.00    -0.570 OA
ATOM     14  H   LIG    1       -7.419   2.651   0.083  0.00  0.00    +0.400 HD
ENDBRANCH  12  13
ENDBRANCH   7  12
ENDBRANCH   1   9
BRANCH   5  15
ATOM     15  C   LIG    1        2.458   3.932   0.001  0.00  0.00    +0.340 C 
BRANCH  15  16
ATOM     16  N   LIG    1        2.868   4.189  -1.387  0.00  0.00    -0.390 N 
ATOM     17  C   LIG    1        4.198   4.835  -1.415  0.00  0.00    +0.270 C 
ATOM     18  C   LIG    1        4.191   5.833  -2.587  0.00  0.00    +0.070 C 
ATOM     19  C   LIG    1        2.772   5.733  -3.194  0.00  0.00    +0.200 C 
ATOM     20  F   LIG    1        2.302   6.998  -3.563  0.00  0.00    -0.170 F 
ATOM     21  C   LIG    1        1.936   5.153  -2.026  0.00  0.00    +0.260 C 
ATOM     22  H   LIG    1        2.889   3.326  -1.909  0.00  0.00    +0.430 HD
ENDBRANCH  15  16
ENDBRANCH   5  15
TORSDOF 5
