REMARK  Name = ZINCrD00000l8ddw.0
REMARK                            x       y       z     vdW  Elec       q    Type
REMARK                         _______ _______ _______ _____ _____    ______ ____
ROOT
ATOM      1  N   LIG    1        4.880   1.156  -0.122  0.00  0.00    -0.650 N 
ATOM      2  H   LIG    1        4.115   1.591  -0.531  0.00  0.00    +0.420 HD
ATOM      3  C   LIG    1        4.720  -0.008   0.538  0.00  0.00    +0.560 C 
ATOM      4  O   LIG    1        5.657  -0.503   1.133  0.00  0.00    -0.470 OA
ENDROOT
BRANCH   3   5
ATOM      5  C   LIG    1        3.403  -0.684   0.538  0.00  0.00    +0.190 A 
ATOM      6  C   LIG    1        3.243  -1.950   1.120  0.00  0.00    -0.140 A 
ATOM      7  C   LIG    1        4.118  -2.894   1.805  0.00  0.00    -0.150 A 
ATOM      8  C   LIG    1        3.363  -3.958   2.137  0.00  0.00    +0.310 A 
ATOM      9  N   LIG    1        2.073  -3.763   1.721  0.00  0.00    -0.560 N 
ATOM     10  H   LIG    1        1.345  -4.391   1.851  0.00  0.00    +0.430 HD
ATOM     11 BR   LIG    1        5.962  -2.667   2.160  0.00  0.00    +0.040 Br
ATOM     12  C   LIG    1        1.961  -2.552   1.091  0.00  0.00    +0.330 A 
ATOM     13  N   LIG    1        0.966  -1.893   0.516  0.00  0.00    -0.510 NA
ATOM     14  C   LIG    1        1.164  -0.704  -0.018  0.00  0.00    +0.530 A 
ATOM     15  N   LIG    1        2.337  -0.106  -0.015  0.00  0.00    -0.510 NA
ENDBRANCH   3   5
BRANCH   1  20
ATOM     16  C   LIG    1        8.527   1.508  -0.422  0.00  0.00    -0.060 A 
ATOM     17  C   LIG    1        8.659   2.885  -0.408  0.00  0.00    +0.020 A 
ATOM     18  C   LIG    1        7.538   3.689  -0.300  0.00  0.00    +0.030 A 
ATOM     19  C   LIG    1        6.284   3.119  -0.210  0.00  0.00    -0.010 A 
ATOM     20  C   LIG    1        6.149   1.736  -0.218  0.00  0.00    +0.150 A 
ATOM     21  C   LIG    1        7.275   0.932  -0.327  0.00  0.00    +0.020 A 
BRANCH  16  23
ATOM     22  C   LIG    1       10.428   0.521   0.828  0.00  0.00    +0.050 C 
ATOM     23  C   LIG    1        9.751   0.636  -0.539  0.00  0.00    +0.170 C 
BRANCH  23  24
ATOM     24  N   LIG    1       10.687   1.234  -1.501  0.00  0.00    -0.530 NA
ATOM     25  C   LIG    1       10.042   1.440  -2.806  0.00  0.00    +0.150 C 
ATOM     26  C   LIG    1       11.032   2.116  -3.757  0.00  0.00    +0.220 C 
ATOM     27  O   LIG    1       12.213   1.315  -3.857  0.00  0.00    -0.390 OA
ATOM     28  C   LIG    1       12.867   1.095  -2.605  0.00  0.00    +0.220 C 
ATOM     29  C   LIG    1       11.895   0.408  -1.641  0.00  0.00    +0.140 C 
ENDBRANCH  23  24
ENDBRANCH  16  23
ENDBRANCH   1  20
TORSDOF 4
