REMARK  Name = ZINCrH000004ta7s.0
REMARK                            x       y       z     vdW  Elec       q    Type
REMARK                         _______ _______ _______ _____ _____    ______ ____
ROOT
ATOM      1  N   LIG    1       -3.584   3.188  -0.807  0.00  0.00    -0.650 N 
ATOM      2  H   LIG    1       -2.893   3.741  -1.203  0.00  0.00    +0.410 HD
ATOM      3  C   LIG    1       -3.435   1.849  -0.766  0.00  0.00    +0.710 C 
ATOM      4  N   LIG    1       -2.325   1.279  -1.276  0.00  0.00    -0.720 N 
ATOM      5  H   LIG    1       -1.634   1.832  -1.672  0.00  0.00    +0.410 HD
ATOM      6  O   LIG    1       -4.302   1.156  -0.270  0.00  0.00    -0.570 OA
ENDROOT
BRANCH   1  11
ATOM      7  C   LIG    1       -6.946   6.538   0.596  0.00  0.00    +0.360 C 
ATOM      8  N   LIG    1       -6.245   5.275   0.353  0.00  0.00    -0.360 N 
ATOM      9  N   LIG    1       -6.704   3.997   0.695  0.00  0.00    -0.280 NA
ATOM     10  C   LIG    1       -5.814   3.113   0.324  0.00  0.00    +0.260 A 
ATOM     11  C   LIG    1       -4.741   3.783  -0.276  0.00  0.00    +0.040 A 
ATOM     12  C   LIG    1       -5.023   5.134  -0.244  0.00  0.00    +0.080 A 
BRANCH  12  13
ATOM     13  C   LIG    1       -4.167   6.223  -0.761  0.00  0.00    -0.020 A 
ATOM     14  C   LIG    1       -2.799   6.230  -0.485  0.00  0.00    +0.030 A 
ATOM     15  C   LIG    1       -2.005   7.247  -0.974  0.00  0.00    +0.020 A 
ATOM     16  C   LIG    1       -2.564   8.263  -1.728  0.00  0.00    +0.020 A 
ATOM     17  C   LIG    1       -3.920   8.264  -2.002  0.00  0.00    +0.020 A 
ATOM     18  C   LIG    1       -4.724   7.251  -1.522  0.00  0.00    +0.020 A 
ENDBRANCH  12  13
ENDBRANCH   1  11
BRANCH   4  19
ATOM     19  C   LIG    1       -2.164  -0.177  -1.232  0.00  0.00    +0.270 C 
BRANCH  19  20
ATOM     20  C   LIG    1       -2.863  -0.805  -2.439  0.00  0.00    +0.430 C 
ATOM     21  F   LIG    1       -2.296  -0.308  -3.617  0.00  0.00    -0.180 F 
ATOM     22  F   LIG    1       -4.225  -0.486  -2.406  0.00  0.00    -0.170 F 
ATOM     23  F   LIG    1       -2.709  -2.194  -2.397  0.00  0.00    -0.180 F 
ENDBRANCH  19  20
BRANCH  19  24
ATOM     24  C   LIG    1       -0.674  -0.525  -1.268  0.00  0.00    +0.050 C 
BRANCH  24  25
ATOM     25  C   LIG    1        0.002  -0.004   0.002  0.00  0.00    +0.180 C 
ATOM     26  C   LIG    1        1.480  -0.451   0.029  0.00  0.00    +0.020 C 
ATOM     27  C   LIG    1        2.192   0.804   0.604  0.00  0.00    +0.000 C 
ATOM     28  C   LIG    1        1.326   1.937  -0.000  0.00  0.00    +0.200 C 
ATOM     29  O   LIG    1       -0.017   1.428   0.010  0.00  0.00    -0.370 OA
ENDBRANCH  24  25
ENDBRANCH  19  24
ENDBRANCH   4  19
TORSDOF 6
