REMARK  Name = ZINCkj000005hxvz.0
REMARK                            x       y       z     vdW  Elec       q    Type
REMARK                         _______ _______ _______ _____ _____    ______ ____
ROOT
ATOM      1  C   LIG    1       -0.024   1.186   0.021  0.00  0.00    +0.520 C 
ATOM      2  N   LIG    1       -1.269   1.702   0.043  0.00  0.00    -0.610 N 
ATOM      3  C   LIG    1       -1.486   3.154  -0.040  0.00  0.00    +0.270 C 
ATOM      4  C   LIG    1       -2.510   3.425  -1.154  0.00  0.00    +0.200 C 
ATOM      5  N   LIG    1       -3.720   2.630  -0.904  0.00  0.00    -0.480 N 
ATOM      6  C   LIG    1       -3.432   1.190  -0.959  0.00  0.00    +0.190 C 
ATOM      7  C   LIG    1       -2.446   0.827   0.157  0.00  0.00    +0.310 C 
ATOM      8  O   LIG    1        0.134  -0.016  -0.003  0.00  0.00    -0.510 OA
ENDROOT
BRANCH   5   9
ATOM      9  C   LIG    1       -4.738   2.972  -1.800  0.00  0.00    +0.080 A 
ATOM     10  C   LIG    1       -5.994   2.394  -1.679  0.00  0.00    +0.030 A 
ATOM     11  C   LIG    1       -7.000   2.738  -2.562  0.00  0.00    +0.040 A 
ATOM     12  C   LIG    1       -6.754   3.649  -3.572  0.00  0.00    +0.030 A 
ATOM     13  C   LIG    1       -5.502   4.223  -3.700  0.00  0.00    +0.010 A 
ATOM     14  C   LIG    1       -4.493   3.888  -2.817  0.00  0.00    +0.050 A 
ATOM     15  F   LIG    1       -3.271   4.450  -2.942  0.00  0.00    -0.140 F 
ENDBRANCH   5   9
BRANCH   1  16
ATOM     16  C   LIG    1        1.171   2.104   0.020  0.00  0.00    -0.020 C 
ATOM     17  C   LIG    1        2.310   1.459   0.814  0.00  0.00    +0.080 C 
BRANCH  16  18
ATOM     18  C   LIG    1        1.627   2.345  -1.421  0.00  0.00    +0.270 C 
BRANCH  18  20
ATOM     19  C   LIG    1        3.153   3.564  -2.814  0.00  0.00    +0.340 C 
ATOM     20  N   LIG    1        2.715   3.332  -1.431  0.00  0.00    -0.510 N 
ATOM     21  H   LIG    1        3.490   2.984  -0.887  0.00  0.00    +0.430 HD
ATOM     22  H   LIG    1        2.387   4.199  -1.032  0.00  0.00    +0.430 HD
ENDBRANCH  18  20
ENDBRANCH  16  18
ENDBRANCH   1  16
TORSDOF 4
