REMARK  Name = ZINCvU00000007b0.0
REMARK                            x       y       z     vdW  Elec       q    Type
REMARK                         _______ _______ _______ _____ _____    ______ ____
ROOT
ATOM      1  O   LIG    1        0.816   1.045   0.703  0.00  0.00    -0.510 OA
ATOM      2  C   LIG    1        1.321  -0.058   0.682  0.00  0.00    +0.540 C 
ATOM      3  N   LIG    1        0.557  -1.152   0.871  0.00  0.00    -0.710 N 
ATOM      4  H   LIG    1        0.961  -2.034   0.855  0.00  0.00    +0.400 HD
ENDROOT
BRANCH   3   5
ATOM      5  C   LIG    1       -0.883  -1.010   1.097  0.00  0.00    +0.360 C 
BRANCH   5   6
ATOM      6  C   LIG    1       -1.592  -0.915  -0.230  0.00  0.00    +0.110 A 
ATOM      7  C   LIG    1       -2.249   0.252  -0.571  0.00  0.00    -0.010 A 
ATOM      8  C   LIG    1       -2.898   0.329  -1.794  0.00  0.00    +0.060 A 
ATOM      9  C   LIG    1       -2.862  -0.776  -2.631  0.00  0.00    -0.030 A 
ATOM     10  C   LIG    1       -2.185  -1.909  -2.222  0.00  0.00    +0.260 A 
ATOM     11  N   LIG    1       -1.574  -1.945  -1.054  0.00  0.00    -0.470 NA
ENDBRANCH   5   6
BRANCH   5  12
ATOM     12  C   LIG    1       -1.393  -2.209   1.854  0.00  0.00    -0.090 A 
ATOM     13  C   LIG    1       -0.924  -3.472   1.546  0.00  0.00    +0.030 A 
ATOM     14  C   LIG    1       -1.390  -4.571   2.244  0.00  0.00    +0.000 A 
ATOM     15  C   LIG    1       -2.330  -4.408   3.244  0.00  0.00    +0.010 A 
ATOM     16  C   LIG    1       -2.803  -3.145   3.549  0.00  0.00    +0.000 A 
ATOM     17  C   LIG    1       -2.335  -2.046   2.853  0.00  0.00    +0.020 A 
ENDBRANCH   5  12
ENDBRANCH   3   5
BRANCH   2  18
ATOM     18  C   LIG    1        2.802  -0.204   0.444  0.00  0.00    +0.080 C 
BRANCH  18  19
ATOM     19  S   LIG    1        3.544   1.437   0.227  0.00  0.00    -0.140 S 
BRANCH  19  20
ATOM     20  C   LIG    1        5.298   1.059  -0.043  0.00  0.00    +0.110 C 
BRANCH  20  21
ATOM     21  C   LIG    1        6.082   2.343  -0.121  0.00  0.00    -0.060 A 
ATOM     22  C   LIG    1        5.683   3.346  -0.985  0.00  0.00    +0.030 A 
ATOM     23  C   LIG    1        6.400   4.526  -1.053  0.00  0.00    +0.000 A 
ATOM     24  C   LIG    1        7.522   4.699  -0.265  0.00  0.00    +0.010 A 
ATOM     25  C   LIG    1        7.925   3.695   0.596  0.00  0.00    +0.000 A 
ATOM     26  C   LIG    1        7.205   2.517   0.667  0.00  0.00    +0.020 A 
ENDBRANCH  20  21
BRANCH  20  27
ATOM     27  C   LIG    1        5.454   0.296  -1.333  0.00  0.00    -0.090 A 
ATOM     28  C   LIG    1        4.889   0.782  -2.497  0.00  0.00    +0.030 A 
ATOM     29  C   LIG    1        5.037   0.084  -3.681  0.00  0.00    +0.000 A 
ATOM     30  C   LIG    1        5.741  -1.105  -3.699  0.00  0.00    +0.000 A 
ATOM     31  C   LIG    1        6.301  -1.594  -2.534  0.00  0.00    +0.000 A 
ATOM     32  C   LIG    1        6.158  -0.894  -1.351  0.00  0.00    +0.010 A 
ENDBRANCH  20  27
ENDBRANCH  19  20
ENDBRANCH  18  19
ENDBRANCH   2  18
TORSDOF 8
