REMARK  Name = ZINCrg00000SjSzS.1
REMARK                            x       y       z     vdW  Elec       q    Type
REMARK                         _______ _______ _______ _____ _____    ______ ____
ROOT
ATOM      1  N   LIG    1       -3.213   5.013   5.782  0.00  0.00    -0.660 N 
ATOM      2  H   LIG    1       -2.905   4.767   6.668  0.00  0.00    +0.420 HD
ATOM      3  C   LIG    1       -4.213   5.904   5.639  0.00  0.00    +0.510 C 
ATOM      4  O   LIG    1       -4.660   6.143   4.537  0.00  0.00    -0.450 OA
ENDROOT
BRANCH   1   8
ATOM      5  C   LIG    1       -1.482   3.347   2.433  0.00  0.00    +0.040 A 
ATOM      6  C   LIG    1       -0.933   3.054   3.680  0.00  0.00    +0.070 A 
ATOM      7  C   LIG    1       -1.514   3.613   4.804  0.00  0.00    -0.030 A 
ATOM      8  C   LIG    1       -2.619   4.443   4.653  0.00  0.00    +0.330 A 
ATOM      9  N   LIG    1       -3.114   4.701   3.454  0.00  0.00    -0.450 NA
ATOM     10  C   LIG    1       -2.582   4.189   2.360  0.00  0.00    +0.250 A 
BRANCH   5  15
ATOM     11  C   LIG    1       -0.353   0.660  -2.326  0.00  0.00    +0.190 C 
ATOM     12  N   LIG    1       -0.936   1.230  -1.103  0.00  0.00    -0.550 NA
ATOM     13  C   LIG    1       -0.199   0.787   0.088  0.00  0.00    +0.190 C 
ATOM     14  C   LIG    1       -0.882   1.337   1.342  0.00  0.00    +0.200 C 
ATOM     15  N   LIG    1       -0.927   2.804   1.269  0.00  0.00    -0.480 N 
ATOM     16  C   LIG    1       -1.665   3.247   0.077  0.00  0.00    +0.200 C 
ATOM     17  C   LIG    1       -0.981   2.697  -1.176  0.00  0.00    +0.190 C 
ENDBRANCH   5  15
ENDBRANCH   1   8
BRANCH   3  18
ATOM     18  C   LIG    1       -4.777   6.604   6.849  0.00  0.00    +0.120 C 
ATOM     19  C   LIG    1       -3.669   7.401   7.541  0.00  0.00    +0.260 C 
ATOM     20  O   LIG    1       -4.225   8.122   8.644  0.00  0.00    -0.370 OA
ATOM     21  C   LIG    1       -5.269   9.027   8.273  0.00  0.00    +0.240 C 
ATOM     22  C   LIG    1       -6.393   8.246   7.587  0.00  0.00    +0.160 C 
ATOM     23  N   LIG    1       -5.846   7.523   6.430  0.00  0.00    -0.510 NA
BRANCH  23  24
ATOM     24  C   LIG    1       -6.906   6.804   5.710  0.00  0.00    +0.220 C 
BRANCH  24  25
ATOM     25  C   LIG    1       -8.060   7.763   5.412  0.00  0.00    +0.460 C 
ATOM     26  F   LIG    1       -8.680   8.133   6.611  0.00  0.00    -0.180 F 
ATOM     27  F   LIG    1       -8.992   7.128   4.583  0.00  0.00    -0.180 F 
ATOM     28  F   LIG    1       -7.566   8.904   4.771  0.00  0.00    -0.170 F 
ENDBRANCH  24  25
ENDBRANCH  23  24
ENDBRANCH   3  18
TORSDOF 5
