REMARK  Name = ZINCrD00000s7Cnr.0
REMARK                            x       y       z     vdW  Elec       q    Type
REMARK                         _______ _______ _______ _____ _____    ______ ____
ROOT
ATOM      1  C   LIG    1       -0.100  -4.758   4.474  0.00  0.00    +0.080 A 
ATOM      2  C   LIG    1       -0.403  -4.126   3.302  0.00  0.00    -0.030 A 
ATOM      3  C   LIG    1       -0.082  -2.786   3.105  0.00  0.00    -0.050 A 
ATOM      4  C   LIG    1        0.551  -2.060   4.090  0.00  0.00    +0.200 A 
ATOM      5  C   LIG    1        0.883  -2.686   5.310  0.00  0.00    -0.060 A 
ATOM      6  C   LIG    1        1.524  -1.980   6.340  0.00  0.00    +0.010 A 
ATOM      7  C   LIG    1        1.825  -2.614   7.506  0.00  0.00    +0.010 A 
ATOM      8  C   LIG    1        1.500  -3.955   7.697  0.00  0.00    +0.000 A 
ATOM      9  C   LIG    1        0.874  -4.670   6.722  0.00  0.00    +0.040 A 
ATOM     10  C   LIG    1        0.549  -4.049   5.505  0.00  0.00    -0.020 A 
ENDROOT
BRANCH   4  11
ATOM     11  N   LIG    1        0.867  -0.716   3.879  0.00  0.00    -0.730 N 
ATOM     12  H   LIG    1        1.313  -0.208   4.575  0.00  0.00    +0.400 HD
BRANCH  11  13
ATOM     13  C   LIG    1        0.525  -0.073   2.608  0.00  0.00    +0.250 C 
ATOM     14  C   LIG    1        1.620  -0.362   1.579  0.00  0.00    +0.030 C 
BRANCH  13  15
ATOM     15  C   LIG    1        0.407   1.438   2.817  0.00  0.00    +0.130 C 
ATOM     16  O   LIG    1        0.214   2.083   1.554  0.00  0.00    -0.370 OA
ATOM     17  C   LIG    1        0.044   3.500   1.654  0.00  0.00    +0.200 C 
ATOM     18  C   LIG    1       -1.154   3.800   2.560  0.00  0.00    +0.190 C 
ATOM     19  O   LIG    1       -0.961   3.155   3.822  0.00  0.00    -0.370 OA
ATOM     20  C   LIG    1       -0.791   1.738   3.722  0.00  0.00    +0.090 C 
ATOM     21  C   LIG    1       -0.540   1.152   5.113  0.00  0.00    +0.080 C 
ATOM     22  C   LIG    1       -2.053   1.113   3.124  0.00  0.00    +0.030 C 
ENDBRANCH  13  15
ENDBRANCH  11  13
ENDBRANCH   4  11
BRANCH   1  23
ATOM     23  O   LIG    1       -0.421  -6.067   4.645  0.00  0.00    -0.290 OA
BRANCH  23  24
ATOM     24  C   LIG    1       -1.077  -6.723   3.558  0.00  0.00    +0.290 C 
BRANCH  24  25
ATOM     25  C   LIG    1       -1.353  -8.157   3.928  0.00  0.00    +0.460 C 
ATOM     26  O   LIG    1       -1.022  -8.576   5.011  0.00  0.00    -0.480 OA
BRANCH  25  28
ATOM     27  C   LIG    1       -2.199 -10.339   3.477  0.00  0.00    +0.290 C 
ATOM     28  O   LIG    1       -1.966  -8.970   3.053  0.00  0.00    -0.360 OA
ENDBRANCH  25  28
ENDBRANCH  24  25
ENDBRANCH  23  24
ENDBRANCH   1  23
TORSDOF 7
