REMARK  Name = ZINCkj000005keRW.0
REMARK                            x       y       z     vdW  Elec       q    Type
REMARK                         _______ _______ _______ _____ _____    ______ ____
ROOT
ATOM      1  C   LIG    1        0.215   4.875   1.597  0.00  0.00    +0.110 C 
ATOM      2  C   LIG    1        0.085   3.616   0.779  0.00  0.00    -0.050 A 
ATOM      3  C   LIG    1        1.155   3.168   0.026  0.00  0.00    +0.030 A 
ATOM      4  C   LIG    1        1.039   2.013  -0.726  0.00  0.00    -0.150 A 
ATOM      5  C   LIG    1       -0.145   1.303  -0.727  0.00  0.00    +0.010 A 
ATOM      6  C   LIG    1       -1.224   1.754   0.023  0.00  0.00    +0.160 A 
ATOM      7  C   LIG    1       -1.104   2.912   0.781  0.00  0.00    +0.060 A 
ENDROOT
BRANCH   6   8
ATOM      8  N   LIG    1       -2.428   1.041   0.019  0.00  0.00    -0.670 N 
ATOM      9  H   LIG    1       -2.419   0.074  -0.063  0.00  0.00    +0.420 HD
ATOM     10  C   LIG    1       -3.600   1.696   0.130  0.00  0.00    +0.550 C 
ATOM     11  O   LIG    1       -3.618   2.909   0.137  0.00  0.00    -0.490 OA
BRANCH  10  12
ATOM     12  C   LIG    1       -4.888   0.923   0.245  0.00  0.00    -0.460 C 
ATOM     13  C   LIG    1       -5.335   0.462  -1.144  0.00  0.00    +0.080 C 
ATOM     14  C   LIG    1       -6.591  -0.396  -1.029  0.00  0.00    +0.040 C 
ATOM     15  C   LIG    1       -7.790   0.457  -0.624  0.00  0.00    +0.070 C 
ATOM     16  C   LIG    1       -7.637   0.917   0.827  0.00  0.00    -0.320 C 
ATOM     17  S   LIG    1       -6.176   1.989   0.957  0.00  0.00    +2.440 S 
ATOM     18  O   LIG    1       -6.358   3.112   0.105  0.00  0.00    -0.900 OA
ATOM     19  O   LIG    1       -5.885   2.197   2.332  0.00  0.00    -0.920 OA
ENDBRANCH  10  12
ENDBRANCH   6   8
BRANCH   4  20
ATOM     20  C   LIG    1        2.208   1.528  -1.544  0.00  0.00    +0.330 C 
BRANCH  20  21
ATOM     21  N   LIG    1        2.143   2.116  -2.888  0.00  0.00    -0.640 N 
ATOM     22  H   LIG    1        2.925   1.791  -3.436  0.00  0.00    +0.440 HD
ATOM     23  H   LIG    1        2.176   3.122  -2.817  0.00  0.00    +0.440 HD
ATOM     24  H   LIG    1        1.281   1.839  -3.335  0.00  0.00    +0.430 HD
ENDBRANCH  20  21
ENDBRANCH   4  20
TORSDOF 4
