REMARK  Name = ZINCtV000002Eorz.0
REMARK                            x       y       z     vdW  Elec       q    Type
REMARK                         _______ _______ _______ _____ _____    ______ ____
ROOT
ATOM      1  C   LIG    1        4.212   7.930   1.816  0.00  0.00    +0.030 C 
ATOM      2  C   LIG    1        2.795   8.110   1.268  0.00  0.00    +0.280 C 
ENDROOT
BRANCH   2   3
ATOM      3  C   LIG    1        2.506   9.579   1.097  0.00  0.00    -0.090 A 
ATOM      4  C   LIG    1        2.989  10.253  -0.010  0.00  0.00    +0.030 A 
ATOM      5  C   LIG    1        2.720  11.598  -0.172  0.00  0.00    +0.000 A 
ATOM      6  C   LIG    1        1.976  12.276   0.783  0.00  0.00    +0.090 A 
ATOM      7  C   LIG    1        1.497  11.598   1.895  0.00  0.00    +0.020 A 
ATOM      8  C   LIG    1        1.763  10.251   2.049  0.00  0.00    +0.050 A 
BRANCH   6   9
ATOM      9  O   LIG    1        1.715  13.601   0.629  0.00  0.00    -0.260 OA
BRANCH   9  10
ATOM     10  C   LIG    1        0.898  13.976  -0.390  0.00  0.00    +0.120 A 
ATOM     11  C   LIG    1        0.261  13.013  -1.160  0.00  0.00    -0.060 A 
ATOM     12  C   LIG    1       -0.573  13.397  -2.193  0.00  0.00    +0.050 A 
ATOM     13  C   LIG    1       -0.765  14.739  -2.466  0.00  0.00    -0.020 A 
ATOM     14  C   LIG    1       -0.127  15.700  -1.703  0.00  0.00    +0.050 A 
ATOM     15  C   LIG    1        0.704  15.322  -0.666  0.00  0.00    -0.010 A 
ENDBRANCH   9  10
ENDBRANCH   6   9
ENDBRANCH   2   3
BRANCH   2  16
ATOM     16  N   LIG    1        2.683   7.436  -0.028  0.00  0.00    -0.740 N 
ATOM     17  H   LIG    1        2.815   7.937  -0.848  0.00  0.00    +0.400 HD
BRANCH  16  18
ATOM     18  C   LIG    1        2.387   6.070  -0.083  0.00  0.00    +0.240 A 
ATOM     19  C   LIG    1        2.199   5.353   1.091  0.00  0.00    -0.060 A 
ATOM     20  C   LIG    1        1.900   4.005   1.038  0.00  0.00    +0.080 A 
ATOM     21  C   LIG    1        1.799   3.365  -0.189  0.00  0.00    +0.090 A 
ATOM     22  C   LIG    1        1.988   4.082  -1.365  0.00  0.00    +0.020 A 
ATOM     23 CL   LIG    1        1.856   3.282  -2.900  0.00  0.00    -0.060 Cl
ATOM     24  C   LIG    1        2.281   5.431  -1.311  0.00  0.00    -0.040 A 
BRANCH  21  25
ATOM     25  N   LIG    1        1.502   1.996  -0.243  0.00  0.00    -0.570 N 
ATOM     26  C   LIG    1        2.509   0.929  -0.243  0.00  0.00    +0.250 C 
ATOM     27  C   LIG    1        1.743  -0.361   0.126  0.00  0.00    +0.040 C 
ATOM     28  C   LIG    1        0.308  -0.019  -0.339  0.00  0.00    +0.060 C 
ATOM     29  C   LIG    1        0.257   1.492  -0.302  0.00  0.00    +0.520 C 
ATOM     30  O   LIG    1       -0.760   2.154  -0.328  0.00  0.00    -0.520 OA
ENDBRANCH  21  25
ENDBRANCH  16  18
ENDBRANCH   2  16
TORSDOF 6
