REMARK  Name = ZINCqH0000006Mwi.0
REMARK                            x       y       z     vdW  Elec       q    Type
REMARK                         _______ _______ _______ _____ _____    ______ ____
ROOT
ATOM      1  N   LIG    1        3.134   0.631  -1.834  0.00  0.00    -0.510 NA
ATOM      2  C   LIG    1        3.639   1.863  -2.455  0.00  0.00    +0.200 C 
ENDROOT
BRANCH   1   3
ATOM      3  C   LIG    1        4.238  -0.276  -1.493  0.00  0.00    +0.180 C 
ATOM      4  C   LIG    1        4.945   0.231  -0.235  0.00  0.00    +0.030 C 
BRANCH   3   5
ATOM      5  C   LIG    1        3.691  -1.658  -1.239  0.00  0.00    +0.520 C 
ATOM      6  N   LIG    1        4.530  -2.710  -1.162  0.00  0.00    -0.680 N 
ATOM      7  H   LIG    1        5.477  -2.589  -1.332  0.00  0.00    +0.410 HD
ATOM      8  O   LIG    1        2.497  -1.823  -1.104  0.00  0.00    -0.500 OA
BRANCH   6   9
ATOM      9  C   LIG    1        4.034  -3.978  -0.838  0.00  0.00    +0.140 A 
ATOM     10  C   LIG    1        4.797  -4.848  -0.070  0.00  0.00    -0.030 A 
ATOM     11  C   LIG    1        4.302  -6.096   0.253  0.00  0.00    +0.030 A 
ATOM     12  C   LIG    1        3.053  -6.484  -0.195  0.00  0.00    -0.010 A 
ATOM     13  C   LIG    1        2.293  -5.622  -0.965  0.00  0.00    +0.030 A 
ATOM     14  C   LIG    1        2.780  -4.370  -1.287  0.00  0.00    +0.020 A 
ENDBRANCH   6   9
ENDBRANCH   3   5
ENDBRANCH   1   3
BRANCH   1  15
ATOM     15  C   LIG    1        2.317   0.935  -0.651  0.00  0.00    +0.230 C 
BRANCH  15  18
ATOM     16  C   LIG    1       -0.088   3.709  -1.541  0.00  0.00    +0.110 A 
ATOM     17  C   LIG    1        1.061   3.041  -1.150  0.00  0.00    -0.040 A 
ATOM     18  C   LIG    1        1.067   1.660  -1.076  0.00  0.00    -0.060 A 
ATOM     19  C   LIG    1       -0.072   0.943  -1.393  0.00  0.00    +0.050 A 
ATOM     20  C   LIG    1       -1.220   1.604  -1.790  0.00  0.00    -0.010 A 
ATOM     21  C   LIG    1       -1.235   2.987  -1.859  0.00  0.00    +0.080 A 
BRANCH  16  23
ATOM     22  C   LIG    1        1.117   5.741  -1.271  0.00  0.00    +0.230 C 
ATOM     23  O   LIG    1       -0.095   5.067  -1.613  0.00  0.00    -0.310 OA
ENDBRANCH  16  23
BRANCH  21  24
ATOM     24  O   LIG    1       -2.365   3.638  -2.244  0.00  0.00    -0.310 OA
BRANCH  24  25
ATOM     25  C   LIG    1       -3.503   2.833  -2.555  0.00  0.00    +0.590 C 
ATOM     26  F   LIG    1       -3.866   2.083  -1.431  0.00  0.00    -0.200 F 
ATOM     27  F   LIG    1       -3.189   1.970  -3.611  0.00  0.00    -0.200 F 
ENDBRANCH  24  25
ENDBRANCH  21  24
ENDBRANCH  15  18
ENDBRANCH   1  15
TORSDOF 8
