REMARK  Name = ZINCrH000004kXOO.0
REMARK                            x       y       z     vdW  Elec       q    Type
REMARK                         _______ _______ _______ _____ _____    ______ ____
ROOT
ATOM      1  C   LIG    1       -0.009   0.008   0.170  0.00  0.00    +0.320 C 
ENDROOT
BRANCH   1   4
ATOM      2  N   LIG    1        1.139   2.192   0.003  0.00  0.00    -0.670 N 
ATOM      3  H   LIG    1        1.980   1.712  -0.061  0.00  0.00    +0.420 HD
ATOM      4  C   LIG    1       -0.011   1.515   0.186  0.00  0.00    +0.510 C 
ATOM      5  O   LIG    1       -1.049   2.119   0.358  0.00  0.00    -0.510 OA
BRANCH   2   9
ATOM      6  C   LIG    1        1.087   6.347  -0.289  0.00  0.00    -0.140 A 
ATOM      7  C   LIG    1        0.018   5.596  -0.787  0.00  0.00    +0.110 A 
ATOM      8  C   LIG    1        0.039   4.223  -0.689  0.00  0.00    +0.010 A 
ATOM      9  C   LIG    1        1.122   3.583  -0.095  0.00  0.00    +0.180 A 
ATOM     10  C   LIG    1        2.185   4.328   0.407  0.00  0.00    -0.020 A 
ATOM     11  C   LIG    1        2.174   5.700   0.308  0.00  0.00    +0.110 A 
BRANCH   6  12
ATOM     12  C   LIG    1        1.068   7.818  -0.391  0.00  0.00    +0.510 C 
ATOM     13  O   LIG    1        0.123   8.379  -0.909  0.00  0.00    -0.500 OA
BRANCH  12  15
ATOM     14  C   LIG    1        2.013   9.983  -0.046  0.00  0.00    +0.260 C 
ATOM     15  O   LIG    1        2.099   8.540   0.089  0.00  0.00    -0.360 OA
ENDBRANCH  12  15
ENDBRANCH   6  12
ENDBRANCH   2   9
ENDBRANCH   1   4
BRANCH   1  16
ATOM     16  N   LIG    1       -1.371  -0.484   0.390  0.00  0.00    -0.720 N 
ATOM     17  H   LIG    1       -2.100   0.144   0.516  0.00  0.00    +0.410 HD
ATOM     18  C   LIG    1       -1.613  -1.810   0.416  0.00  0.00    +0.590 C 
ATOM     19  O   LIG    1       -0.699  -2.598   0.258  0.00  0.00    -0.500 OA
BRANCH  18  20
ATOM     20  C   LIG    1       -2.978  -2.303   0.637  0.00  0.00    -0.240 A 
ATOM     21  C   LIG    1       -3.322  -3.596   0.680  0.00  0.00    +0.040 A 
ATOM     22  C   LIG    1       -4.686  -3.852   0.903  0.00  0.00    -0.090 A 
ATOM     23  C   LIG    1       -5.351  -5.097   1.000  0.00  0.00    +0.070 A 
ATOM     24  C   LIG    1       -6.692  -5.148   1.221  0.00  0.00    +0.020 A 
ATOM     25  C   LIG    1       -7.433  -3.981   1.354  0.00  0.00    +0.060 A 
ATOM     26  C   LIG    1       -6.816  -2.756   1.265  0.00  0.00    +0.050 A 
ATOM     27  C   LIG    1       -5.438  -2.678   1.038  0.00  0.00    -0.120 A 
ATOM     28 CL   LIG    1       -2.162  -4.871   0.476  0.00  0.00    -0.010 Cl
ATOM     29  S   LIG    1       -4.381  -1.279   0.886  0.00  0.00    +0.160 S 
ENDBRANCH  18  20
ENDBRANCH   1  16
TORSDOF 6
