REMARK  Name = ZINCpe000000Xx96.0
REMARK                            x       y       z     vdW  Elec       q    Type
REMARK                         _______ _______ _______ _____ _____    ______ ____
ROOT
ATOM      1  C   LIG    1        4.245   5.766  -1.023  0.00  0.00    -0.010 C 
ATOM      2  C   LIG    1        3.326   6.123   0.149  0.00  0.00    +0.060 C 
ATOM      3  C   LIG    1        2.010   5.355   0.011  0.00  0.00    +0.220 C 
ATOM      4  N   LIG    1        2.282   3.912   0.001  0.00  0.00    -0.480 N 
ATOM      5  C   LIG    1        3.124   3.538  -1.143  0.00  0.00    +0.210 C 
ATOM      6  C   LIG    1        4.474   4.252  -1.039  0.00  0.00    +0.050 C 
ENDROOT
BRANCH   4   7
ATOM      7  C   LIG    1        1.102   3.184   0.008  0.00  0.00    +0.340 A 
ATOM      8  C   LIG    1        1.154   1.792   0.001  0.00  0.00    -0.040 A 
ATOM      9  C   LIG    1       -0.013   1.076   0.008  0.00  0.00    +0.150 A 
ATOM     10  C   LIG    1       -1.228   1.777   0.017  0.00  0.00    -0.110 A 
ATOM     11  C   LIG    1       -1.205   3.173   0.030  0.00  0.00    +0.360 A 
ATOM     12  N   LIG    1       -0.060   3.823   0.023  0.00  0.00    -0.520 NA
BRANCH  10  13
ATOM     13  C   LIG    1       -2.474   1.071   0.020  0.00  0.00    +0.260 C 
ATOM     14  N   LIG    1       -3.462   0.511   0.022  0.00  0.00    -0.410 NA
ENDBRANCH  10  13
ENDBRANCH   4   7
BRANCH   1  17
ATOM     15  N   LIG    1        6.537   6.306  -1.780  0.00  0.00    -0.730 N 
ATOM     16  H   LIG    1        6.386   5.731  -2.546  0.00  0.00    +0.400 HD
ATOM     17  C   LIG    1        5.566   6.472  -0.860  0.00  0.00    +0.520 C 
ATOM     18  O   LIG    1        5.755   7.191   0.098  0.00  0.00    -0.520 OA
BRANCH  15  20
ATOM     19  C   LIG    1        7.574   8.502  -1.582  0.00  0.00    +0.050 C 
ATOM     20  C   LIG    1        7.822   6.993  -1.622  0.00  0.00    +0.190 C 
ATOM     21  C   LIG    1        8.457   6.559  -0.300  0.00  0.00    +0.080 C 
ATOM     22  C   LIG    1        9.355   5.325  -0.559  0.00  0.00    -0.300 C 
ATOM     23  S   LIG    1       10.174   5.805  -2.133  0.00  0.00    +2.380 S 
ATOM     24  O   LIG    1       11.204   6.748  -1.872  0.00  0.00    -0.920 OA
ATOM     25  O   LIG    1       10.452   4.641  -2.900  0.00  0.00    -0.930 OA
ATOM     26  C   LIG    1        8.714   6.665  -2.829  0.00  0.00    -0.300 C 
ENDBRANCH  15  20
ENDBRANCH   1  17
TORSDOF 4
