REMARK  Name = ZINCqH0000007OTH.0
REMARK                            x       y       z     vdW  Elec       q    Type
REMARK                         _______ _______ _______ _____ _____    ______ ____
ROOT
ATOM      1  C   LIG    1       -1.007   3.470  -0.943  0.00  0.00    +0.520 C 
ATOM      2  N   LIG    1       -1.703   4.167  -1.862  0.00  0.00    -0.730 N 
ATOM      3  H   LIG    1       -2.072   3.714  -2.637  0.00  0.00    +0.410 HD
ATOM      4  O   LIG    1       -0.545   4.036   0.026  0.00  0.00    -0.510 OA
ENDROOT
BRANCH   2   5
ATOM      5  C   LIG    1       -1.902   5.608  -1.693  0.00  0.00    +0.350 C 
ATOM      6  C   LIG    1       -0.693   6.359  -2.252  0.00  0.00    +0.040 C 
BRANCH   5   7
ATOM      7  C   LIG    1       -3.145   6.034  -2.432  0.00  0.00    +0.020 A 
ATOM      8  C   LIG    1       -4.042   6.919  -1.977  0.00  0.00    -0.030 A 
ATOM      9  C   LIG    1       -5.073   7.026  -3.017  0.00  0.00    -0.130 A 
ATOM     10  C   LIG    1       -6.248   7.764  -3.150  0.00  0.00    +0.060 A 
ATOM     11  C   LIG    1       -7.014   7.623  -4.287  0.00  0.00    +0.000 A 
ATOM     12  C   LIG    1       -6.620   6.753  -5.293  0.00  0.00    +0.050 A 
ATOM     13  C   LIG    1       -5.460   6.018  -5.172  0.00  0.00    +0.020 A 
ATOM     14  C   LIG    1       -4.673   6.145  -4.035  0.00  0.00    +0.060 A 
ATOM     15  O   LIG    1       -3.516   5.576  -3.640  0.00  0.00    -0.190 OA
ENDBRANCH   5   7
ENDBRANCH   2   5
BRANCH   1  16
ATOM     16  C   LIG    1       -0.802   1.987  -1.117  0.00  0.00    +0.220 C 
BRANCH  16  17
ATOM     17  N   LIG    1       -0.018   1.465   0.010  0.00  0.00    -0.510 NA
ATOM     18  C   LIG    1        1.346   2.010   0.000  0.00  0.00    +0.200 C 
BRANCH  17  19
ATOM     19  C   LIG    1        0.002  -0.004   0.002  0.00  0.00    +0.240 C 
BRANCH  19  25
ATOM     20  C   LIG    1       -0.176  -0.552   2.443  0.00  0.00    +0.150 A 
ATOM     21  C   LIG    1        0.374  -1.020   3.627  0.00  0.00    -0.080 A 
ATOM     22  C   LIG    1        1.694  -1.427   3.662  0.00  0.00    +0.040 A 
ATOM     23  C   LIG    1        2.464  -1.374   2.515  0.00  0.00    -0.040 A 
ATOM     24  C   LIG    1        1.917  -0.914   1.331  0.00  0.00    +0.060 A 
ATOM     25  C   LIG    1        0.598  -0.505   1.292  0.00  0.00    -0.120 A 
BRANCH  20  27
ATOM     26  C   LIG    1       -2.209  -0.220   3.630  0.00  0.00    +0.240 C 
ATOM     27  O   LIG    1       -1.472  -0.145   2.408  0.00  0.00    -0.300 OA
ENDBRANCH  20  27
ENDBRANCH  19  25
ENDBRANCH  17  19
ENDBRANCH  16  17
ENDBRANCH   1  16
TORSDOF 7
