REMARK  Name = ZINCrD00000cFeFE.0
REMARK                            x       y       z     vdW  Elec       q    Type
REMARK                         _______ _______ _______ _____ _____    ______ ____
ROOT
ATOM      1  C   LIG    1        0.568   7.274  -2.603  0.00  0.00    +0.260 C 
ENDROOT
BRANCH   1   6
ATOM      2  C   LIG    1       -0.627   2.134  -1.237  0.00  0.00    +0.530 C 
ATOM      3  N   LIG    1       -0.829   3.463  -1.326  0.00  0.00    -0.610 N 
ATOM      4  C   LIG    1       -0.369   4.363  -0.259  0.00  0.00    +0.270 C 
ATOM      5  C   LIG    1        0.504   5.459  -0.887  0.00  0.00    +0.020 C 
ATOM      6  C   LIG    1       -0.283   6.155  -2.000  0.00  0.00    -0.020 C 
ATOM      7  C   LIG    1       -0.638   5.140  -3.088  0.00  0.00    +0.020 C 
ATOM      8  C   LIG    1       -1.519   4.040  -2.488  0.00  0.00    +0.280 C 
ATOM      9  O   LIG    1       -0.931   1.411  -2.163  0.00  0.00    -0.540 OA
BRANCH   2  11
ATOM     10  C   LIG    1        1.486   1.772   0.108  0.00  0.00    +0.070 C 
ATOM     11  C   LIG    1       -0.024   1.544   0.011  0.00  0.00    -0.110 C 
ATOM     12  C   LIG    1       -0.445   0.088   0.271  0.00  0.00    +0.060 C 
ATOM     13  C   LIG    1       -0.543   0.465   1.759  0.00  0.00    +0.020 C 
ATOM     14  C   LIG    1       -0.786   1.911   1.296  0.00  0.00    +0.030 C 
ENDBRANCH   2  11
ENDBRANCH   1   6
BRANCH   1  15
ATOM     15  N   LIG    1        0.808   8.306  -1.592  0.00  0.00    -0.720 N 
ATOM     16  H   LIG    1        0.439   8.206  -0.700  0.00  0.00    +0.400 HD
ATOM     17  C   LIG    1        1.540   9.395  -1.900  0.00  0.00    +0.560 C 
ATOM     18  O   LIG    1        2.001   9.521  -3.018  0.00  0.00    -0.530 OA
BRANCH  17  19
ATOM     19  C   LIG    1        1.781  10.437  -0.879  0.00  0.00    -0.120 A 
ATOM     20  C   LIG    1        2.534  11.553  -1.202  0.00  0.00    +0.130 A 
ATOM     21  C   LIG    1        2.761  12.540  -0.230  0.00  0.00    +0.120 A 
ATOM     22  N   LIG    1        3.484  13.629  -0.512  0.00  0.00    -0.470 NA
ATOM     23  C   LIG    1        3.702  14.555   0.389  0.00  0.00    +0.290 A 
ATOM     24  C   LIG    1        3.192  14.454   1.683  0.00  0.00    -0.020 A 
ATOM     25  C   LIG    1        2.445  13.367   2.037  0.00  0.00    +0.080 A 
ATOM     26  C   LIG    1        2.213  12.373   1.067  0.00  0.00    -0.090 A 
ATOM     27  C   LIG    1        1.453  11.229   1.365  0.00  0.00    +0.040 A 
ATOM     28  C   LIG    1        1.240  10.288   0.410  0.00  0.00    +0.040 A 
ENDBRANCH  17  19
ENDBRANCH   1  15
TORSDOF 4
