REMARK  Name = ZINCnE000004RbBJ.0
REMARK                            x       y       z     vdW  Elec       q    Type
REMARK                         _______ _______ _______ _____ _____    ______ ____
ROOT
ATOM      1  C   LIG    1        1.185   2.058   0.002  0.00  0.00    +0.190 A 
ATOM      2  C   LIG    1        2.359   1.320  -0.008  0.00  0.00    -0.200 A 
ATOM      3  C   LIG    1        3.581   1.971  -0.018  0.00  0.00    +0.190 A 
ATOM      4  C   LIG    1        3.639   3.361  -0.009  0.00  0.00    -0.200 A 
ATOM      5  C   LIG    1        4.998   4.015  -0.007  0.00  0.00    +0.070 C 
ATOM      6  C   LIG    1        4.860   5.491  -0.386  0.00  0.00    +0.030 C 
ATOM      7  C   LIG    1        3.715   6.087   0.443  0.00  0.00    +0.180 C 
ATOM      8  N   LIG    1        2.454   5.495  -0.007  0.00  0.00    -0.460 N 
ATOM      9  C   LIG    1        2.469   4.101   0.001  0.00  0.00    +0.220 A 
ATOM     10  C   LIG    1        1.240   3.441   0.009  0.00  0.00    -0.080 A 
ENDROOT
BRANCH   1  12
ATOM     11  C   LIG    1        0.002  -0.004   0.002  0.00  0.00    +0.230 C 
ATOM     12  O   LIG    1       -0.017   1.425   0.010  0.00  0.00    -0.310 OA
ENDBRANCH   1  12
BRANCH   3  13
ATOM     13  O   LIG    1        4.731   1.248  -0.033  0.00  0.00    -0.310 OA
ATOM     14  C   LIG    1        4.603  -0.175  -0.042  0.00  0.00    +0.230 C 
ENDBRANCH   3  13
BRANCH   8  15
ATOM     15  C   LIG    1        1.322   6.013   0.772  0.00  0.00    +0.320 C 
BRANCH  15  16
ATOM     16  C   LIG    1        1.472   7.502   0.948  0.00  0.00    -0.200 A 
ATOM     17  C   LIG    1        0.975   8.437   0.090  0.00  0.00    -0.130 A 
ATOM     18  C   LIG    1        1.266   9.792   0.501  0.00  0.00    +0.050 A 
ATOM     19  C   LIG    1        1.959   9.856   1.631  0.00  0.00    -0.080 A 
ATOM     20  S   LIG    1        2.282   8.246   2.250  0.00  0.00    +0.080 S 
BRANCH  17  21
ATOM     21  C   LIG    1        0.222   8.103  -1.125  0.00  0.00    +0.540 C 
ATOM     22  O   LIG    1        0.012   6.932  -1.412  0.00  0.00    -0.670 OA
ATOM     23  O   LIG    1       -0.196   8.996  -1.851  0.00  0.00    -0.690 OA
ENDBRANCH  17  21
ENDBRANCH  15  16
ENDBRANCH   8  15
TORSDOF 5
