REMARK  Name = ZINCvU00000004uG.1
REMARK                            x       y       z     vdW  Elec       q    Type
REMARK                         _______ _______ _______ _____ _____    ______ ____
ROOT
ATOM      1  C   LIG    1        2.268   4.430  -0.040  0.00  0.00    +0.360 C 
ATOM      2  C   LIG    1        3.555   3.640  -0.082  0.00  0.00    -0.210 C 
ATOM      3  C   LIG    1        4.563   4.540  -0.163  0.00  0.00    +0.110 C 
ATOM      4  C   LIG    1        3.996   5.904  -0.170  0.00  0.00    +0.520 C 
ATOM      5  O   LIG    1        4.646   6.929  -0.234  0.00  0.00    -0.480 OA
ATOM      6  N   LIG    1        2.655   5.845  -0.095  0.00  0.00    -0.500 N 
ENDROOT
BRANCH   1  10
ATOM      7  C   LIG    1       -0.177   3.436  -3.399  0.00  0.00    -0.050 A 
ATOM      8  C   LIG    1       -0.507   2.968  -2.142  0.00  0.00    +0.020 A 
ATOM      9  C   LIG    1        0.284   3.289  -1.054  0.00  0.00    +0.040 A 
ATOM     10  C   LIG    1        1.405   4.079  -1.225  0.00  0.00    -0.100 A 
ATOM     11  C   LIG    1        1.733   4.552  -2.482  0.00  0.00    +0.020 A 
ATOM     12  C   LIG    1        0.945   4.226  -3.570  0.00  0.00    +0.010 A 
BRANCH   7  14
ATOM     13  C   LIG    1       -2.458   3.612  -4.355  0.00  0.00    +0.040 C 
ATOM     14  C   LIG    1       -1.040   3.086  -4.584  0.00  0.00    -0.030 C 
ATOM     15  C   LIG    1       -1.080   1.567  -4.755  0.00  0.00    +0.040 C 
ATOM     16  C   LIG    1       -0.457   3.726  -5.846  0.00  0.00    +0.030 C 
ENDBRANCH   7  14
ENDBRANCH   1  10
BRANCH   6  17
ATOM     17  C   LIG    1        1.789   6.929  -0.078  0.00  0.00    +0.270 A 
ATOM     18  N   LIG    1        0.496   6.847  -0.011  0.00  0.00    -0.490 NA
ATOM     19  C   LIG    1       -0.175   7.983  -0.001  0.00  0.00    +0.250 A 
ATOM     20  C   LIG    1        0.586   9.077  -0.074  0.00  0.00    -0.110 A 
ATOM     21  S   LIG    1        2.271   8.568  -0.151  0.00  0.00    +0.210 S 
ENDBRANCH   6  17
BRANCH   3  22
ATOM     22  O   LIG    1        5.880   4.238  -0.227  0.00  0.00    -0.420 OA
ATOM     23  H   LIG    1        6.459   5.011  -0.281  0.00  0.00    +0.420 HD
ENDBRANCH   3  22
BRANCH   2  24
ATOM     24  C   LIG    1        3.686   2.180  -0.048  0.00  0.00    +0.480 C 
ATOM     25  O   LIG    1        4.116   1.586  -1.019  0.00  0.00    -0.420 OA
BRANCH  24  26
ATOM     26  C   LIG    1        3.297   1.431   1.164  0.00  0.00    -0.170 A 
ATOM     27  C   LIG    1        2.875   2.117   2.307  0.00  0.00    +0.100 A 
ATOM     28  C   LIG    1        2.514   1.413   3.435  0.00  0.00    -0.010 A 
ATOM     29  C   LIG    1        2.569   0.027   3.438  0.00  0.00    +0.140 A 
ATOM     30  C   LIG    1        2.987  -0.658   2.308  0.00  0.00    -0.010 A 
ATOM     31  F   LIG    1        2.214  -0.657   4.548  0.00  0.00    -0.130 F 
ATOM     32  C   LIG    1        3.350   0.035   1.173  0.00  0.00    +0.120 A 
ENDBRANCH  24  26
ENDBRANCH   2  24
TORSDOF 6
