REMARK  Name = ZINCrH000004u7Wa.0
REMARK                            x       y       z     vdW  Elec       q    Type
REMARK                         _______ _______ _______ _____ _____    ______ ____
ROOT
ATOM      1  C   LIG    1       -4.071   4.910  -4.610  0.00  0.00    +0.510 C 
ATOM      2  N   LIG    1       -4.096   5.671  -3.498  0.00  0.00    -0.610 N 
ATOM      3  C   LIG    1       -4.179   7.135  -3.596  0.00  0.00    +0.270 C 
ATOM      4  C   LIG    1       -3.030   7.749  -2.789  0.00  0.00    +0.010 C 
ATOM      5  C   LIG    1       -3.073   7.210  -1.357  0.00  0.00    +0.020 C 
ATOM      6  C   LIG    1       -2.891   5.691  -1.376  0.00  0.00    -0.020 C 
ATOM      7  C   LIG    1       -4.039   5.053  -2.167  0.00  0.00    +0.280 C 
ATOM      8  O   LIG    1       -4.002   3.702  -4.517  0.00  0.00    -0.530 OA
ENDROOT
BRANCH   1   9
ATOM      9  C   LIG    1       -4.130   5.558  -5.969  0.00  0.00    +0.300 C 
BRANCH   9  12
ATOM     10  O   LIG    1       -4.202   6.046  -8.621  0.00  0.00    -0.520 OA
ATOM     11  C   LIG    1       -4.131   4.872  -8.307  0.00  0.00    +0.610 C 
ATOM     12  N   LIG    1       -4.090   4.524  -7.006  0.00  0.00    -0.710 N 
ATOM     13  H   LIG    1       -4.033   3.588  -6.756  0.00  0.00    +0.420 HD
BRANCH  11  14
ATOM     14  C   LIG    1       -4.090   3.837  -9.345  0.00  0.00    -0.090 A 
ATOM     15  C   LIG    1       -4.125   4.050 -10.693  0.00  0.00    +0.050 A 
ATOM     16  C   LIG    1       -4.063   2.788 -11.304  0.00  0.00    -0.070 A 
ATOM     17  C   LIG    1       -3.994   1.870 -10.314  0.00  0.00    +0.210 A 
ATOM     18  O   LIG    1       -4.006   2.507  -9.135  0.00  0.00    -0.160 OA
ENDBRANCH  11  14
ENDBRANCH   9  12
ENDBRANCH   1   9
BRANCH   6  19
ATOM     19  C   LIG    1       -2.901   5.157   0.058  0.00  0.00    +0.110 C 
BRANCH  19  20
ATOM     20  C   LIG    1       -2.604   3.680   0.046  0.00  0.00    -0.080 A 
ATOM     21  C   LIG    1       -3.554   2.766   0.050  0.00  0.00    -0.020 A 
ATOM     22  S   LIG    1       -2.883   1.146   0.034  0.00  0.00    +0.090 S 
ATOM     23  C   LIG    1       -1.234   1.756   0.018  0.00  0.00    -0.140 A 
ATOM     24  C   LIG    1       -0.013   1.076   0.008  0.00  0.00    +0.050 A 
ATOM     25  C   LIG    1        1.170   1.778   0.000  0.00  0.00    +0.030 A 
ATOM     26  C   LIG    1        1.158   3.166   0.009  0.00  0.00    +0.010 A 
ATOM     27  C   LIG    1       -0.020   3.848   0.023  0.00  0.00    +0.050 A 
ATOM     28  C   LIG    1       -1.249   3.154   0.030  0.00  0.00    -0.070 A 
ENDBRANCH  19  20
ENDBRANCH   6  19
TORSDOF 5
