REMARK  Name = ZINCrD00000hQ5ki.0
REMARK                            x       y       z     vdW  Elec       q    Type
REMARK                         _______ _______ _______ _____ _____    ______ ____
ROOT
ATOM      1  N   LIG    1        2.646  -0.254   2.283  0.00  0.00    -0.730 N 
ATOM      2  H   LIG    1        2.680   0.316   3.067  0.00  0.00    +0.400 HD
ATOM      3  C   LIG    1        3.040  -1.540   2.367  0.00  0.00    +0.710 C 
ATOM      4  N   LIG    1        3.481  -2.035   3.540  0.00  0.00    -0.680 N 
ATOM      5  H   LIG    1        3.453  -1.485   4.339  0.00  0.00    +0.410 HD
ATOM      6  O   LIG    1        2.997  -2.254   1.384  0.00  0.00    -0.570 OA
ENDROOT
BRANCH   4   7
ATOM      7  C   LIG    1        3.980  -3.342   3.606  0.00  0.00    +0.160 A 
ATOM      8  C   LIG    1        5.049  -3.635   4.450  0.00  0.00    +0.030 A 
ATOM      9  C   LIG    1        5.549  -4.917   4.523  0.00  0.00    +0.070 A 
ATOM     10  C   LIG    1        4.987  -5.925   3.754  0.00  0.00    -0.010 A 
ATOM     11  O   LIG    1        5.244  -7.244   3.607  0.00  0.00    -0.210 OA
ATOM     12  C   LIG    1        4.374  -7.742   2.714  0.00  0.00    +0.250 A 
ATOM     13  N   LIG    1        3.580  -6.806   2.288  0.00  0.00    -0.480 NA
ATOM     14  C   LIG    1        4.326  -9.181   2.269  0.00  0.00    +0.220 C 
ATOM     15  C   LIG    1        3.910  -5.638   2.902  0.00  0.00    +0.040 A 
ATOM     16  C   LIG    1        3.406  -4.338   2.838  0.00  0.00    +0.090 A 
ENDBRANCH   4   7
BRANCH   1  22
ATOM     17  C   LIG    1        2.298   1.809   1.013  0.00  0.00    +0.270 C 
ATOM     18  O   LIG    1        1.776   2.335  -0.209  0.00  0.00    -0.370 OA
ATOM     19  C   LIG    1        0.391   2.054  -0.420  0.00  0.00    +0.220 C 
ATOM     20  C   LIG    1        0.183   0.539  -0.484  0.00  0.00    +0.010 C 
ATOM     21  C   LIG    1        0.694  -0.093   0.814  0.00  0.00    +0.010 C 
ATOM     22  C   LIG    1        2.166   0.283   1.007  0.00  0.00    +0.230 C 
BRANCH  17  27
ATOM     23  N   LIG    1        4.682   2.080   0.172  0.00  0.00    -0.440 N 
ATOM     24  C   LIG    1        5.865   2.530   0.693  0.00  0.00    +0.120 A 
ATOM     25  C   LIG    1        5.618   2.888   1.968  0.00  0.00    +0.140 A 
ATOM     26  N   LIG    1        4.318   2.668   2.216  0.00  0.00    -0.480 NA
ATOM     27  C   LIG    1        3.751   2.187   1.143  0.00  0.00    +0.210 A 
BRANCH  23  29
ATOM     28  C   LIG    1        4.029   2.732  -2.093  0.00  0.00    +0.040 C 
ATOM     29  C   LIG    1        4.466   1.579  -1.188  0.00  0.00    +0.280 C 
ENDBRANCH  23  29
ENDBRANCH  17  27
ENDBRANCH   1  22
TORSDOF 4
