REMARK  Name = ZINCpk000005ZIqu.0
REMARK                            x       y       z     vdW  Elec       q    Type
REMARK                         _______ _______ _______ _____ _____    ______ ____
ROOT
ATOM      1  N   LIG    1       -2.785   5.132   7.517  0.00  0.00    -0.290 N 
ATOM      2  C   LIG    1       -2.989   6.351   8.067  0.00  0.00    +0.140 A 
ATOM      3  C   LIG    1       -2.192   6.403   9.174  0.00  0.00    +0.030 A 
ATOM      4  N   LIG    1       -1.547   5.223   9.228  0.00  0.00    -0.240 NA
ATOM      5  N   LIG    1       -1.923   4.500   8.233  0.00  0.00    -0.060 NA
ENDROOT
BRANCH   3   6
ATOM      6  C   LIG    1       -2.059   7.535  10.124  0.00  0.00    -0.010 A 
ATOM      7  C   LIG    1       -2.799   8.696   9.930  0.00  0.00    +0.040 A 
ATOM      8  C   LIG    1       -2.677   9.751  10.813  0.00  0.00    +0.000 A 
ATOM      9  C   LIG    1       -1.815   9.656  11.890  0.00  0.00    +0.040 A 
ATOM     10  C   LIG    1       -1.074   8.509  12.091  0.00  0.00    -0.150 A 
ATOM     11  C   LIG    1       -0.065   8.139  13.161  0.00  0.00    +0.060 C 
ATOM     12  C   LIG    1        0.655   6.917  12.545  0.00  0.00    +0.230 C 
ATOM     13  N   LIG    1       -0.363   6.376  11.618  0.00  0.00    -0.620 N 
ATOM     14  H   LIG    1       -0.902   5.645  12.059  0.00  0.00    +0.360 HD
ATOM     15  C   LIG    1       -1.190   7.433  11.222  0.00  0.00    +0.130 A 
ENDBRANCH   3   6
BRANCH   1  16
ATOM     16  C   LIG    1       -3.431   4.620   6.306  0.00  0.00    +0.310 C 
BRANCH  16  17
ATOM     17  C   LIG    1       -2.361   4.181   5.303  0.00  0.00    +0.210 C 
BRANCH  17  18
ATOM     18  O   LIG    1       -1.632   3.075   5.839  0.00  0.00    -0.530 OA
ATOM     19  H   LIG    1       -2.177   2.301   6.031  0.00  0.00    +0.380 HD
ENDBRANCH  17  18
BRANCH  17  20
ATOM     20  C   LIG    1       -3.031   3.764   3.993  0.00  0.00    +0.150 C 
BRANCH  20  21
ATOM     21  O   LIG    1       -2.028   3.466   3.019  0.00  0.00    -0.370 OA
BRANCH  21  22
ATOM     22  C   LIG    1       -2.550   3.063   1.751  0.00  0.00    +0.200 C 
BRANCH  22  23
ATOM     23  C   LIG    1       -1.394   2.771   0.793  0.00  0.00    +0.160 C 
ATOM     24  C   LIG    1       -1.928   2.453  -0.626  0.00  0.00    +0.010 C 
ATOM     25  C   LIG    1       -0.778   1.606  -1.224  0.00  0.00    +0.000 C 
ATOM     26  C   LIG    1       -0.013   1.086   0.008  0.00  0.00    +0.190 C 
ATOM     27  O   LIG    1       -0.705   1.559   1.176  0.00  0.00    -0.370 OA
ENDBRANCH  22  23
ENDBRANCH  21  22
ENDBRANCH  20  21
ENDBRANCH  17  20
ENDBRANCH  16  17
ENDBRANCH   1  16
TORSDOF 8
