REMARK  Name = ZINCrg00000fSJcr.0
REMARK                            x       y       z     vdW  Elec       q    Type
REMARK                         _______ _______ _______ _____ _____    ______ ____
ROOT
ATOM      1  C   LIG    1       -2.918  -5.097   0.820  0.00  0.00    +0.530 C 
ATOM      2  N   LIG    1       -2.397  -4.221  -0.062  0.00  0.00    -0.610 N 
ATOM      3  C   LIG    1       -1.671  -4.688  -1.254  0.00  0.00    +0.250 C 
ATOM      4  C   LIG    1       -0.329  -3.951  -1.322  0.00  0.00    +0.220 C 
ATOM      5  O   LIG    1       -0.560  -2.543  -1.230  0.00  0.00    -0.360 OA
ATOM      6  C   LIG    1       -1.154  -2.126   0.002  0.00  0.00    +0.150 C 
ATOM      7  C   LIG    1       -2.538  -2.770   0.137  0.00  0.00    +0.280 C 
ATOM      8  O   LIG    1       -3.514  -4.692   1.796  0.00  0.00    -0.530 OA
ENDROOT
BRANCH   1  12
ATOM      9  O   LIG    1       -4.401  -9.173  -1.240  0.00  0.00    -0.510 OA
ATOM     10  C   LIG    1       -4.029  -8.369  -0.412  0.00  0.00    +0.520 C 
ATOM     11  C   LIG    1       -3.438  -7.012  -0.726  0.00  0.00    +0.070 C 
ATOM     12  C   LIG    1       -2.760  -6.578   0.594  0.00  0.00    +0.000 C 
ATOM     13  C   LIG    1       -3.562  -7.385   1.640  0.00  0.00    +0.300 C 
ATOM     14  N   LIG    1       -4.081  -8.554   0.919  0.00  0.00    -0.620 N 
BRANCH  14  15
ATOM     15  C   LIG    1       -4.590  -9.765   1.566  0.00  0.00    +0.380 C 
BRANCH  15  16
ATOM     16  C   LIG    1       -3.459 -10.743   1.761  0.00  0.00    +0.100 A 
ATOM     17  C   LIG    1       -2.786 -10.776   2.967  0.00  0.00    -0.030 A 
ATOM     18  C   LIG    1       -1.748 -11.680   3.137  0.00  0.00    +0.060 A 
ATOM     19  C   LIG    1       -1.425 -12.519   2.082  0.00  0.00    -0.030 A 
ATOM     20  C   LIG    1       -2.143 -12.428   0.905  0.00  0.00    +0.260 A 
ATOM     21  N   LIG    1       -3.128 -11.561   0.781  0.00  0.00    -0.460 NA
ENDBRANCH  15  16
ENDBRANCH  14  15
ENDBRANCH   1  12
BRANCH   6  22
ATOM     22  C   LIG    1       -1.295  -0.603   0.011  0.00  0.00    +0.200 C 
BRANCH  22  23
ATOM     23  O   LIG    1        0.002  -0.004   0.002  0.00  0.00    -0.380 OA
BRANCH  23  24
ATOM     24  C   LIG    1       -0.017   1.425   0.010  0.00  0.00    +0.200 C 
BRANCH  24  25
ATOM     25  C   LIG    1        1.418   1.954  -0.001  0.00  0.00    -0.050 C 
ATOM     26  C   LIG    1        1.884   2.758   1.215  0.00  0.00    +0.020 C 
ATOM     27  C   LIG    1        1.612   3.468  -0.113  0.00  0.00    +0.030 C 
ENDBRANCH  24  25
ENDBRANCH  23  24
ENDBRANCH  22  23
ENDBRANCH   6  22
TORSDOF 7
