REMARK  Name = ZINCbw0000000HhB.0
REMARK                            x       y       z     vdW  Elec       q    Type
REMARK                         _______ _______ _______ _____ _____    ______ ____
ROOT
ATOM      1  C   LIG    1       -0.742   2.013   1.267  0.00  0.00    +0.040 C 
ATOM      2  C   LIG    1       -0.019   1.524   0.010  0.00  0.00    +0.040 C 
ATOM      3  C   LIG    1        0.002  -0.004   0.002  0.00  0.00    +0.020 C 
ATOM      4  C   LIG    1        0.905  -0.481  -1.143  0.00  0.00    +0.260 C 
ATOM      5  N   LIG    1        2.270  -0.013  -0.863  0.00  0.00    -0.750 N 
ATOM      6  H   LIG    1        3.028  -0.607  -0.978  0.00  0.00    +0.400 HD
ATOM      7  C   LIG    1        2.457   1.304  -0.429  0.00  0.00    +0.210 A 
ATOM      8  C   LIG    1        3.740   1.841  -0.429  0.00  0.00    -0.070 A 
ATOM      9  C   LIG    1        3.947   3.137  -0.002  0.00  0.00    +0.040 A 
ATOM     10  C   LIG    1        2.877   3.900   0.428  0.00  0.00    -0.050 A 
ATOM     11  C   LIG    1        1.601   3.369   0.429  0.00  0.00    +0.040 A 
ATOM     12  C   LIG    1        1.385   2.071   0.000  0.00  0.00    -0.150 A 
ENDROOT
TORSDOF 0
