REMARK  Name = ZINCrg00000N9QYe.0
REMARK                            x       y       z     vdW  Elec       q    Type
REMARK                         _______ _______ _______ _____ _____    ______ ____
ROOT
ATOM      1  C   LIG    1       -1.443   3.817   3.954  0.00  0.00    +0.220 C 
ATOM      2  C   LIG    1       -2.044   5.110   3.342  0.00  0.00    +0.060 C 
ATOM      3  C   LIG    1       -2.719   5.785   4.554  0.00  0.00    +0.290 C 
ATOM      4  N   LIG    1       -2.974   4.736   5.552  0.00  0.00    -1.010 NA
ATOM      5  C   LIG    1       -2.515   3.444   5.009  0.00  0.00    +0.340 C 
ENDROOT
BRANCH   1   9
ATOM      6  C   LIG    1       -0.718   1.572   1.248  0.00  0.00    +0.180 A 
ATOM      7  N   LIG    1       -1.671   0.956   1.882  0.00  0.00    -0.370 NA
ATOM      8  O   LIG    1       -2.026   1.608   2.841  0.00  0.00    +0.090 OA
ATOM      9  C   LIG    1       -1.312   2.736   2.912  0.00  0.00    +0.150 A 
ATOM     10  N   LIG    1       -0.473   2.720   1.905  0.00  0.00    -0.470 NA
BRANCH   6  12
ATOM     11  C   LIG    1       -0.753   1.593  -1.232  0.00  0.00    +0.040 C 
ATOM     12  C   LIG    1       -0.013   1.086   0.008  0.00  0.00    +0.150 C 
ENDBRANCH   6  12
ENDBRANCH   1   9
BRANCH   4  13
ATOM     13  S   LIG    1       -3.664   4.966   7.040  0.00  0.00    +2.720 S 
ATOM     14  O   LIG    1       -3.443   6.329   7.378  0.00  0.00    -0.940 OA
ATOM     15  O   LIG    1       -3.232   3.884   7.854  0.00  0.00    -0.930 OA
BRANCH  13  16
ATOM     16  C   LIG    1       -5.404   4.778   6.843  0.00  0.00    -0.780 A 
ATOM     17  C   LIG    1       -5.994   3.533   6.993  0.00  0.00    +0.470 A 
ATOM     18  N   LIG    1       -7.292   3.364   6.851  0.00  0.00    -0.480 NA
ATOM     19  C   LIG    1       -8.097   4.375   6.559  0.00  0.00    +0.340 A 
ATOM     20  O   LIG    1       -9.428   4.468   6.365  0.00  0.00    -0.080 OA
ATOM     21  N   LIG    1       -9.769   5.808   6.074  0.00  0.00    -0.260 NA
ATOM     22  C   LIG    1       -8.700   6.544   6.081  0.00  0.00    +0.160 A 
ATOM     23  C   LIG    1       -7.569   5.667   6.392  0.00  0.00    -0.270 A 
ATOM     24  C   LIG    1       -6.195   5.871   6.543  0.00  0.00    +0.290 A 
BRANCH  22  25
ATOM     25  C   LIG    1       -8.635   8.026   5.817  0.00  0.00    +0.140 C 
ATOM     26  C   LIG    1       -8.801   8.786   7.135  0.00  0.00    +0.050 C 
ENDBRANCH  22  25
ENDBRANCH  13  16
ENDBRANCH   4  13
BRANCH   1  27
ATOM     27  O   LIG    1       -0.183   4.081   4.575  0.00  0.00    -0.520 OA
ATOM     28  H   LIG    1        0.506   4.365   3.960  0.00  0.00    +0.400 HD
ENDBRANCH   1  27
TORSDOF 6
