REMARK  Name = ZINCqH0000007BYm.0
REMARK                            x       y       z     vdW  Elec       q    Type
REMARK                         _______ _______ _______ _____ _____    ______ ____
ROOT
ATOM      1  C   LIG    1        1.144   2.363   0.004  0.00  0.00    +0.180 A 
ATOM      2  N   LIG    1        0.683   3.593   0.015  0.00  0.00    -0.270 NA
ATOM      3  N   LIG    1       -0.714   3.557   0.028  0.00  0.00    -0.310 N 
ATOM      4  C   LIG    1       -1.134   2.280   0.019  0.00  0.00    +0.290 A 
ATOM      5  C   LIG    1       -0.018   1.469   0.010  0.00  0.00    -0.260 A 
ENDROOT
BRANCH   3   6
ATOM      6  C   LIG    1       -1.551   4.681   0.042  0.00  0.00    +0.140 A 
ATOM      7  C   LIG    1       -2.930   4.522   0.048  0.00  0.00    +0.000 A 
ATOM      8  C   LIG    1       -3.752   5.632   0.067  0.00  0.00    +0.050 A 
ATOM      9  C   LIG    1       -3.202   6.901   0.068  0.00  0.00    -0.090 A 
ATOM     10  C   LIG    1       -1.829   7.063   0.057  0.00  0.00    +0.030 A 
ATOM     11  C   LIG    1       -4.102   8.110   0.082  0.00  0.00    +0.090 C 
ATOM     12  C   LIG    1       -1.002   5.957   0.043  0.00  0.00    +0.030 A 
ENDBRANCH   3   6
BRANCH   1  17
ATOM     13  C   LIG    1        4.836   2.331  -0.720  0.00  0.00    +0.110 A 
ATOM     14  C   LIG    1        5.234   1.189  -0.038  0.00  0.00    -0.060 A 
ATOM     15  C   LIG    1        4.305   0.433   0.653  0.00  0.00    +0.040 A 
ATOM     16  C   LIG    1        2.978   0.810   0.670  0.00  0.00    +0.060 A 
ATOM     17  C   LIG    1        2.570   1.956  -0.012  0.00  0.00    +0.000 A 
ATOM     18  C   LIG    1        3.505   2.714  -0.713  0.00  0.00    +0.010 A 
BRANCH  13  20
ATOM     19  C   LIG    1        7.106   2.614  -1.368  0.00  0.00    +0.250 C 
ATOM     20  O   LIG    1        5.752   3.070  -1.399  0.00  0.00    -0.320 OA
ENDBRANCH  13  20
ENDBRANCH   1  17
BRANCH   5  21
ATOM     21  C   LIG    1        0.002  -0.004   0.002  0.00  0.00    +0.620 C 
ATOM     22  N   LIG    1       -1.156  -0.694   0.009  0.00  0.00    -0.650 N 
ATOM     23  C   LIG    1       -2.588  -0.359   0.031  0.00  0.00    +0.260 C 
ATOM     24  C   LIG    1       -2.839  -1.704   0.720  0.00  0.00    +0.040 C 
ATOM     25  C   LIG    1       -1.543  -2.112   0.005  0.00  0.00    +0.280 C 
ATOM     26  O   LIG    1        1.063  -0.598  -0.011  0.00  0.00    -0.520 OA
ENDBRANCH   5  21
TORSDOF 4
