REMARK  Name = ZINCpe000000W4TZ.0
REMARK                            x       y       z     vdW  Elec       q    Type
REMARK                         _______ _______ _______ _____ _____    ______ ____
ROOT
ATOM      1  N   LIG    1        2.621   8.223  -0.684  0.00  0.00    -0.670 N 
ATOM      2  H   LIG    1        2.908   8.164  -1.609  0.00  0.00    +0.410 HD
ATOM      3  C   LIG    1        2.485   7.102   0.052  0.00  0.00    +0.530 C 
ATOM      4  O   LIG    1        2.206   7.179   1.230  0.00  0.00    -0.510 OA
ENDROOT
BRANCH   1  10
ATOM      5  C   LIG    1        1.780  10.479  -0.883  0.00  0.00    -0.110 A 
ATOM      6  C   LIG    1        1.512  11.710  -0.318  0.00  0.00    +0.060 A 
ATOM      7  C   LIG    1        1.808  11.940   1.014  0.00  0.00    +0.000 A 
ATOM      8  C   LIG    1        2.372  10.939   1.782  0.00  0.00    +0.030 A 
ATOM      9  C   LIG    1        2.638   9.704   1.224  0.00  0.00    +0.020 A 
ATOM     10  C   LIG    1        2.348   9.471  -0.114  0.00  0.00    +0.140 A 
BRANCH   5  11
ATOM     11  C   LIG    1        1.459  10.229  -2.334  0.00  0.00    +0.230 C 
BRANCH  11  13
ATOM     12  C   LIG    1        0.544  11.277  -4.286  0.00  0.00    +0.200 C 
ATOM     13  O   LIG    1        0.888  11.408  -2.905  0.00  0.00    -0.380 OA
ENDBRANCH  11  13
ENDBRANCH   5  11
ENDBRANCH   1  10
BRANCH   3  14
ATOM     14  C   LIG    1        2.681   5.752  -0.589  0.00  0.00    +0.010 C 
ATOM     15  C   LIG    1        1.651   5.521  -1.718  0.00  0.00    +0.080 C 
ATOM     16  C   LIG    1        1.306   4.052  -1.611  0.00  0.00    +0.520 C 
ATOM     17  N   LIG    1        1.700   3.570  -0.420  0.00  0.00    -0.610 N 
ATOM     18  O   LIG    1        0.752   3.403  -2.474  0.00  0.00    -0.510 OA
ATOM     19  C   LIG    1        2.322   4.617   0.399  0.00  0.00    +0.310 C 
BRANCH  17  20
ATOM     20  C   LIG    1        1.527   2.180   0.009  0.00  0.00    +0.280 C 
ATOM     21  C   LIG    1        2.206   1.231  -0.994  0.00  0.00    +0.070 C 
ATOM     22  C   LIG    1        1.726  -0.208  -0.716  0.00  0.00    -0.310 C 
ATOM     23  S   LIG    1        0.059  -0.021   0.011  0.00  0.00    +2.400 S 
ATOM     24  O   LIG    1       -0.912  -0.509  -0.904  0.00  0.00    -0.930 OA
ATOM     25  O   LIG    1        0.073  -0.496   1.351  0.00  0.00    -0.930 OA
ATOM     26  C   LIG    1        0.021   1.811   0.018  0.00  0.00    -0.320 C 
ENDBRANCH  17  20
ENDBRANCH   3  14
TORSDOF 5
