REMARK  Name = ZINCrH000004tp1C.0
REMARK                            x       y       z     vdW  Elec       q    Type
REMARK                         _______ _______ _______ _____ _____    ______ ____
ROOT
ATOM      1  C   LIG    1        1.153   3.175   0.008  0.00  0.00    -0.050 A 
ATOM      2  C   LIG    1        1.174   1.781   0.000  0.00  0.00    +0.030 A 
ATOM      3  C   LIG    1       -0.013   1.076   0.008  0.00  0.00    +0.040 A 
ATOM      4  C   LIG    1       -1.221   1.750   0.017  0.00  0.00    -0.090 A 
ATOM      5  C   LIG    1       -1.247   3.133   0.030  0.00  0.00    +0.040 A 
ATOM      6  C   LIG    1       -0.068   3.849   0.022  0.00  0.00    +0.020 A 
ENDROOT
BRANCH   1  12
ATOM      7  C   LIG    1        2.620   4.977  -0.928  0.00  0.00    -0.020 A 
ATOM      8  C   LIG    1        3.821   5.686  -0.923  0.00  0.00    +0.070 A 
ATOM      9  C   LIG    1        4.807   5.366  -0.012  0.00  0.00    +0.020 A 
ATOM     10  C   LIG    1        4.613   4.343   0.900  0.00  0.00    +0.050 A 
ATOM     11  C   LIG    1        3.428   3.634   0.915  0.00  0.00    +0.030 A 
ATOM     12  C   LIG    1        2.424   3.938   0.000  0.00  0.00    -0.000 A 
BRANCH   7  14
ATOM     13  N   LIG    1        0.779   5.564  -2.619  0.00  0.00    -0.410 NA
ATOM     14  C   LIG    1        1.593   5.304  -1.871  0.00  0.00    +0.250 C 
ENDBRANCH   7  14
ENDBRANCH   1  12
BRANCH   4  15
ATOM     15  C   LIG    1       -2.513   0.974   0.019  0.00  0.00    +0.260 C 
BRANCH  15  16
ATOM     16  O   LIG    1       -2.915   0.722   1.367  0.00  0.00    -0.300 OA
BRANCH  16  17
ATOM     17  C   LIG    1       -4.069   0.027   1.547  0.00  0.00    +0.150 A 
ATOM     18  C   LIG    1       -4.802  -0.397   0.448  0.00  0.00    -0.050 A 
ATOM     19  C   LIG    1       -5.972  -1.107   0.630  0.00  0.00    +0.060 A 
ATOM     20  C   LIG    1       -6.421  -1.387   1.913  0.00  0.00    +0.090 A 
ATOM     21  C   LIG    1       -5.690  -0.958   3.013  0.00  0.00    +0.090 A 
ATOM     22  C   LIG    1       -4.518  -0.253   2.830  0.00  0.00    +0.020 A 
BRANCH  20  23
ATOM     23  N   LIG    1       -7.613  -2.104   2.099  0.00  0.00    -0.320 N 
ATOM     24  C   LIG    1       -8.438  -2.585   1.144  0.00  0.00    +0.460 A 
ATOM     25  N   LIG    1       -9.426  -3.188   1.752  0.00  0.00    -0.330 NA
ATOM     26  N   LIG    1       -9.286  -3.114   3.026  0.00  0.00    -0.030 NA
ATOM     27  N   LIG    1       -8.208  -2.470   3.319  0.00  0.00    -0.080 NA
ENDBRANCH  20  23
ENDBRANCH  16  17
ENDBRANCH  15  16
ENDBRANCH   4  15
TORSDOF 6
