REMARK  Name = ZINCrD0000074JjG.0
REMARK                            x       y       z     vdW  Elec       q    Type
REMARK                         _______ _______ _______ _____ _____    ______ ____
ROOT
ATOM      1  O   LIG    1        0.174   7.347  -0.063  0.00  0.00    -0.330 OA
ENDROOT
BRANCH   1   2
ATOM      2  C   LIG    1        0.564   8.342   0.757  0.00  0.00    +0.510 C 
ATOM      3  O   LIG    1        1.746   8.581   0.904  0.00  0.00    -0.500 OA
BRANCH   2  10
ATOM      4  C   LIG    1        1.419  10.301   2.708  0.00  0.00    +0.130 C 
ATOM      5  C   LIG    1       -0.045  10.092   2.422  0.00  0.00    +0.040 A 
ATOM      6  C   LIG    1       -0.994  10.837   3.091  0.00  0.00    +0.000 A 
ATOM      7  C   LIG    1       -2.339  10.647   2.829  0.00  0.00    +0.170 A 
ATOM      8  C   LIG    1       -2.743   9.709   1.895  0.00  0.00    -0.680 A 
ATOM      9  C   LIG    1       -1.804   8.960   1.215  0.00  0.00    +0.200 A 
ATOM     10  C   LIG    1       -0.446   9.144   1.478  0.00  0.00    -0.150 A 
BRANCH   8  11
ATOM     11  S   LIG    1       -4.458   9.476   1.569  0.00  0.00    +2.500 S 
ATOM     12  O   LIG    1       -5.102   9.880   2.769  0.00  0.00    -0.930 OA
ATOM     13  O   LIG    1       -4.548   8.135   1.106  0.00  0.00    -0.930 OA
ATOM     14  C   LIG    1       -4.826  10.638   0.226  0.00  0.00    -0.250 C 
ENDBRANCH   8  11
ENDBRANCH   2  10
ENDBRANCH   1   2
BRANCH   1  15
ATOM     15  C   LIG    1        1.221   6.601  -0.738  0.00  0.00    +0.160 C 
ATOM     16  C   LIG    1        1.538   7.267  -2.079  0.00  0.00    +0.080 C 
BRANCH  15  17
ATOM     17  C   LIG    1        0.757   5.188  -0.978  0.00  0.00    +0.430 C 
ATOM     18  O   LIG    1       -0.429   4.927  -0.960  0.00  0.00    -0.440 OA
BRANCH  17  19
ATOM     19  C   LIG    1        1.704   4.162  -1.223  0.00  0.00    -0.270 A 
ATOM     20  C   LIG    1        3.075   4.297  -1.274  0.00  0.00    +0.330 A 
ATOM     21  N   LIG    1        3.638   3.100  -1.530  0.00  0.00    -0.560 N 
ATOM     22  H   LIG    1        4.592   2.946  -1.612  0.00  0.00    +0.420 HD
ATOM     23  C   LIG    1        2.671   2.124  -1.659  0.00  0.00    +0.070 A 
ATOM     24  C   LIG    1        2.729   0.759  -1.919  0.00  0.00    +0.000 A 
ATOM     25  C   LIG    1        1.567   0.022  -1.993  0.00  0.00    +0.030 A 
ATOM     26  C   LIG    1        0.333   0.629  -1.810  0.00  0.00    +0.000 A 
ATOM     27  C   LIG    1        0.255   1.980  -1.552  0.00  0.00    +0.060 A 
ATOM     28  C   LIG    1        1.421   2.736  -1.475  0.00  0.00    -0.060 A 
ENDBRANCH  17  19
ENDBRANCH  15  17
ENDBRANCH   1  15
TORSDOF 6
