REMARK  Name = ZINCtV00000L6jC5.0
REMARK                            x       y       z     vdW  Elec       q    Type
REMARK                         _______ _______ _______ _____ _____    ______ ____
ROOT
ATOM      1  C   LIG    1       -1.320   2.117   0.077  0.00  0.00    +0.370 C 
ATOM      2  N   LIG    1       -2.389   1.334  -0.542  0.00  0.00    -0.720 N 
ATOM      3  H   LIG    1       -3.100   1.778  -1.034  0.00  0.00    +0.410 HD
ATOM      4  C   LIG    1       -2.403  -0.041  -0.371  0.00  0.00    +0.260 A 
ATOM      5  C   LIG    1       -1.202  -0.738  -0.157  0.00  0.00    -0.170 A 
ATOM      6  C   LIG    1        0.002  -0.004   0.002  0.00  0.00    +0.080 C 
ATOM      7  C   LIG    1        1.311  -0.740   0.130  0.00  0.00    +0.090 C 
ATOM      8  C   LIG    1        2.380   0.127   0.795  0.00  0.00    +0.040 C 
ATOM      9  C   LIG    1        2.515   1.453   0.046  0.00  0.00    -0.110 C 
ATOM     10  C   LIG    1        3.023   1.214  -1.375  0.00  0.00    +0.060 C 
ATOM     11  C   LIG    1        3.500   2.360   0.790  0.00  0.00    +0.060 C 
ATOM     12  C   LIG    1        1.165   2.115   0.002  0.00  0.00    +0.410 C 
ATOM     13  O   LIG    1        1.099   3.329  -0.040  0.00  0.00    -0.470 OA
ATOM     14  C   LIG    1       -1.260  -2.199  -0.154  0.00  0.00    +0.030 A 
ATOM     15  C   LIG    1       -0.143  -3.024  -0.289  0.00  0.00    -0.010 A 
ATOM     16  C   LIG    1       -0.262  -4.379  -0.152  0.00  0.00    +0.030 A 
ATOM     17  C   LIG    1       -1.495  -4.968   0.101  0.00  0.00    -0.020 A 
ATOM     18  C   LIG    1       -2.624  -4.206   0.139  0.00  0.00    +0.050 A 
ATOM     19  C   LIG    1       -2.535  -2.824  -0.089  0.00  0.00    -0.100 A 
ATOM     20  C   LIG    1       -3.703  -2.058  -0.266  0.00  0.00    +0.100 A 
ATOM     21  C   LIG    1       -3.626  -0.714  -0.426  0.00  0.00    -0.050 A 
ATOM     22  C   LIG    1       -0.016   1.357   0.009  0.00  0.00    -0.260 C 
ENDROOT
BRANCH   1  26
ATOM     23  C   LIG    1       -2.305   2.886   4.164  0.00  0.00    +0.130 A 
ATOM     24  C   LIG    1       -1.726   3.881   3.389  0.00  0.00    -0.020 A 
ATOM     25  C   LIG    1       -1.409   3.630   2.069  0.00  0.00    +0.070 A 
ATOM     26  C   LIG    1       -1.668   2.388   1.518  0.00  0.00    -0.140 A 
ATOM     27  C   LIG    1       -2.250   1.397   2.286  0.00  0.00    +0.060 A 
ATOM     28  C   LIG    1       -2.564   1.641   3.609  0.00  0.00    -0.080 A 
BRANCH  23  30
ATOM     29  C   LIG    1       -3.213   2.060   6.200  0.00  0.00    +0.250 C 
ATOM     30  O   LIG    1       -2.619   3.131   5.463  0.00  0.00    -0.320 OA
ENDBRANCH  23  30
ENDBRANCH   1  26
TORSDOF 2
