REMARK  Name = ZINCb70000003XYJ.0
REMARK                            x       y       z     vdW  Elec       q    Type
REMARK                         _______ _______ _______ _____ _____    ______ ____
ROOT
ATOM      1  C   LIG    1       -1.433  -0.534   0.013  0.00  0.00    -0.010 C 
ATOM      2  C   LIG    1       -2.046  -0.682  -1.390  0.00  0.00    +0.060 C 
ATOM      3  C   LIG    1       -2.673  -1.994  -0.891  0.00  0.00    +0.260 C 
ATOM      4  C   LIG    1       -1.524  -2.064   0.128  0.00  0.00    +0.070 C 
ENDROOT
BRANCH   3   5
ATOM      5  N   LIG    1       -2.644  -3.072  -1.883  0.00  0.00    -0.290 N 
ATOM      6  C   LIG    1       -1.931  -3.072  -3.033  0.00  0.00    +0.130 A 
ATOM      7  C   LIG    1       -2.196  -4.253  -3.641  0.00  0.00    +0.150 A 
ATOM      8  N   LIG    1       -3.046  -4.908  -2.843  0.00  0.00    -0.260 NA
ATOM      9  N   LIG    1       -3.288  -4.184  -1.808  0.00  0.00    -0.080 NA
ENDBRANCH   3   5
BRANCH   1  10
ATOM     10  C   LIG    1        0.002  -0.004   0.002  0.00  0.00    +0.280 C 
BRANCH  10  11
ATOM     11  N   LIG    1       -0.018   1.465   0.010  0.00  0.00    -0.640 N 
ATOM     12  H   LIG    1       -0.490   1.790   0.840  0.00  0.00    +0.440 HD
ATOM     13  H   LIG    1       -0.506   1.799  -0.807  0.00  0.00    +0.440 HD
ATOM     14  H   LIG    1        0.929   1.814   0.003  0.00  0.00    +0.440 HD
ENDBRANCH  10  11
ENDBRANCH   1  10
TORSDOF 3
