REMARK  Name = ZINCrD000000DgXi.0
REMARK                            x       y       z     vdW  Elec       q    Type
REMARK                         _______ _______ _______ _____ _____    ______ ____
ROOT
ATOM      1  C   LIG    1        3.291   2.656  -0.016  0.00  0.00    +0.290 A 
ATOM      2  N   LIG    1        2.413   1.665  -0.012  0.00  0.00    -0.500 NA
ATOM      3  C   LIG    1        1.097   1.911   0.002  0.00  0.00    +0.300 A 
ATOM      4  C   LIG    1       -0.013   1.076   0.008  0.00  0.00    -0.120 A 
ATOM      5  C   LIG    1       -1.144   1.880   0.017  0.00  0.00    +0.300 A 
ATOM      6  N   LIG    1       -0.772   3.139   0.025  0.00  0.00    -0.330 NA
ATOM      7  N   LIG    1        0.626   3.199   0.013  0.00  0.00    -0.350 N 
ATOM      8  C   LIG    1        1.508   4.249   0.009  0.00  0.00    +0.490 A 
ATOM      9  C   LIG    1        2.848   3.990  -0.005  0.00  0.00    -0.160 A 
ENDROOT
BRANCH   1  13
ATOM     10  C   LIG    1        7.455   1.802  -0.062  0.00  0.00    +0.030 A 
ATOM     11  C   LIG    1        6.539   0.765  -0.058  0.00  0.00    +0.000 A 
ATOM     12  C   LIG    1        5.186   1.036  -0.043  0.00  0.00    +0.070 A 
ATOM     13  C   LIG    1        4.742   2.358  -0.032  0.00  0.00    -0.060 A 
ATOM     14  C   LIG    1        5.670   3.399  -0.041  0.00  0.00    +0.040 A 
ATOM     15  C   LIG    1        7.021   3.115  -0.051  0.00  0.00    +0.000 A 
ENDBRANCH   1  13
BRANCH   8  16
ATOM     16  N   LIG    1        1.046   5.549   0.020  0.00  0.00    -0.710 N 
ATOM     17  H   LIG    1        0.092   5.725   0.030  0.00  0.00    +0.420 HD
BRANCH  16  18
ATOM     18  C   LIG    1        1.997   6.664   0.017  0.00  0.00    +0.420 C 
BRANCH  18  19
ATOM     19  C   LIG    1        1.242   7.968   0.030  0.00  0.00    +0.140 A 
ATOM     20  N   LIG    1        0.864   8.635   1.089  0.00  0.00    -0.260 NA
ATOM     21  N   LIG    1        0.249   9.707   0.729  0.00  0.00    -0.290 NA
ATOM     22  C   LIG    1        0.212   9.773  -0.571  0.00  0.00    +0.200 A 
ATOM     23  C   LIG    1       -0.394  10.868  -1.411  0.00  0.00    +0.160 C 
ATOM     24  C   LIG    1       -1.252  10.238  -2.512  0.00  0.00    +0.020 C 
ATOM     25  C   LIG    1       -0.386   9.952  -3.734  0.00  0.00    +0.020 C 
ATOM     26  C   LIG    1        1.033   9.576  -3.309  0.00  0.00    +0.030 C 
ATOM     27  C   LIG    1        0.998   8.305  -2.457  0.00  0.00    +0.290 C 
ATOM     28  N   LIG    1        0.835   8.671  -1.050  0.00  0.00    -0.460 N 
ENDBRANCH  18  19
ENDBRANCH  16  18
ENDBRANCH   8  16
TORSDOF 4
