REMARK  Name = ZINCvU0000000EFh.0
REMARK                            x       y       z     vdW  Elec       q    Type
REMARK                         _______ _______ _______ _____ _____    ______ ____
ROOT
ATOM      1  N   LIG    1       -8.230   5.247  -4.889  0.00  0.00    -0.450 N 
ATOM      2  C   LIG    1       -9.253   5.832  -4.194  0.00  0.00    +0.180 A 
ATOM      3  N   LIG    1       -8.937   5.791  -2.931  0.00  0.00    -0.250 NA
ATOM      4  N   LIG    1       -7.795   5.220  -2.780  0.00  0.00    -0.290 NA
ATOM      5  C   LIG    1       -7.317   4.863  -3.949  0.00  0.00    +0.150 A 
ENDROOT
BRANCH   1   7
ATOM      6  C   LIG    1       -8.759   3.727  -6.730  0.00  0.00    +0.060 C 
ATOM      7  C   LIG    1       -8.134   5.068  -6.340  0.00  0.00    +0.300 C 
ENDBRANCH   1   7
BRANCH   2   8
ATOM      8  C   LIG    1      -10.510   6.420  -4.782  0.00  0.00    +0.230 C 
BRANCH   8   9
ATOM      9  S   LIG    1      -10.237   8.169  -5.161  0.00  0.00    +0.040 S 
BRANCH   9  10
ATOM     10  C   LIG    1      -11.819   8.590  -5.814  0.00  0.00    +0.080 A 
ATOM     11  N   LIG    1      -12.807   7.771  -5.936  0.00  0.00    -0.470 NA
ATOM     12  C   LIG    1      -13.959   8.245  -6.451  0.00  0.00    +0.090 A 
ATOM     13  C   LIG    1      -15.171   7.561  -6.681  0.00  0.00    +0.080 A 
ATOM     14  C   LIG    1      -16.247   8.216  -7.226  0.00  0.00    +0.040 A 
ATOM     15  C   LIG    1      -16.160   9.559  -7.559  0.00  0.00    +0.040 A 
ATOM     16  C   LIG    1      -14.986  10.248  -7.343  0.00  0.00    +0.060 A 
ATOM     17  C   LIG    1      -13.885   9.599  -6.792  0.00  0.00    -0.170 A 
ATOM     18  S   LIG    1      -12.270  10.185  -6.399  0.00  0.00    +0.120 S 
ENDBRANCH   9  10
ENDBRANCH   8   9
ENDBRANCH   2   8
BRANCH   5  19
ATOM     19  S   LIG    1       -5.784   4.048  -4.249  0.00  0.00    +0.090 S 
BRANCH  19  20
ATOM     20  C   LIG    1       -5.171   3.895  -2.553  0.00  0.00    +0.110 C 
BRANCH  20  21
ATOM     21  C   LIG    1       -3.831   3.207  -2.563  0.00  0.00    +0.530 C 
ATOM     22  N   LIG    1       -3.180   2.983  -1.404  0.00  0.00    -0.720 N 
ATOM     23  H   LIG    1       -3.574   3.265  -0.564  0.00  0.00    +0.410 HD
ATOM     24  O   LIG    1       -3.338   2.854  -3.613  0.00  0.00    -0.520 OA
BRANCH  22  25
ATOM     25  C   LIG    1       -1.877   2.314  -1.414  0.00  0.00    +0.270 C 
BRANCH  25  26
ATOM     26  C   LIG    1       -1.359   2.185   0.020  0.00  0.00    +0.060 C 
BRANCH  26  27
ATOM     27  C   LIG    1       -0.018   1.496   0.010  0.00  0.00    -0.120 C 
ATOM     28  C   LIG    1        1.044   2.236   0.004  0.00  0.00    -0.050 C 
ATOM     29  C   LIG    1        2.444   1.697  -0.022  0.00  0.00    +0.050 C 
ATOM     30  C   LIG    1        2.448   0.221   0.383  0.00  0.00    +0.010 C 
ATOM     31  C   LIG    1        1.378  -0.510  -0.437  0.00  0.00    +0.010 C 
ATOM     32  C   LIG    1        0.002  -0.004   0.002  0.00  0.00    +0.060 C 
ENDBRANCH  26  27
ENDBRANCH  25  26
ENDBRANCH  22  25
ENDBRANCH  20  21
ENDBRANCH  19  20
ENDBRANCH   5  19
TORSDOF 10
