REMARK  Name = ZINCrD00000s0Q90.0
REMARK                            x       y       z     vdW  Elec       q    Type
REMARK                         _______ _______ _______ _____ _____    ______ ____
ROOT
ATOM      1  C   LIG    1        1.178   2.059   0.002  0.00  0.00    -0.020 A 
ATOM      2  C   LIG    1        1.159   3.446   0.009  0.00  0.00    +0.060 A 
ATOM      3  C   LIG    1       -0.047   4.120   0.024  0.00  0.00    -0.070 A 
ATOM      4  C   LIG    1       -1.240   3.411   0.031  0.00  0.00    +0.250 A 
ATOM      5  C   LIG    1       -1.222   2.022   0.019  0.00  0.00    -0.090 A 
ATOM      6  C   LIG    1       -0.016   1.347   0.009  0.00  0.00    +0.180 A 
ATOM      7  F   LIG    1        0.002  -0.004   0.002  0.00  0.00    -0.130 F 
ENDROOT
BRANCH   1  11
ATOM      8  C   LIG    1        5.340   1.328  -2.412  0.00  0.00    +0.050 C 
ATOM      9  C   LIG    1        4.483   0.912  -1.215  0.00  0.00    +0.160 C 
ATOM     10  C   LIG    1        3.185   1.724  -1.208  0.00  0.00    +0.170 C 
ATOM     11  N   LIG    1        2.402   1.375  -0.013  0.00  0.00    -0.490 N 
ATOM     12  C   LIG    1        3.171   1.644   1.210  0.00  0.00    +0.170 C 
ATOM     13  C   LIG    1        4.469   0.833   1.179  0.00  0.00    +0.200 C 
ATOM     14  C   LIG    1        4.138  -0.661   1.177  0.00  0.00    +0.010 C 
ATOM     15  O   LIG    1        5.202   1.161  -0.004  0.00  0.00    -0.380 OA
ENDBRANCH   1  11
BRANCH   4  16
ATOM     16  N   LIG    1       -2.461   4.095   0.045  0.00  0.00    -0.740 N 
ATOM     17  H   LIG    1       -2.474   5.065   0.050  0.00  0.00    +0.400 HD
BRANCH  16  18
ATOM     18  C   LIG    1       -3.720   3.346   0.053  0.00  0.00    +0.350 C 
BRANCH  18  19
ATOM     19  C   LIG    1       -4.878   4.310   0.068  0.00  0.00    -0.260 A 
ATOM     20  C   LIG    1       -5.606   4.664   1.152  0.00  0.00    +0.300 A 
ATOM     21  N   LIG    1       -6.544   5.547   0.750  0.00  0.00    -0.350 N 
ATOM     22  N   LIG    1       -6.397   5.738  -0.630  0.00  0.00    -0.320 NA
ATOM     23  C   LIG    1       -7.545   6.189   1.606  0.00  0.00    +0.360 C 
ATOM     24  C   LIG    1       -5.397   4.996  -1.041  0.00  0.00    +0.260 A 
BRANCH  24  25
ATOM     25  O   LIG    1       -4.943   4.905  -2.319  0.00  0.00    -0.290 OA
BRANCH  25  26
ATOM     26  C   LIG    1       -5.616   5.692  -3.304  0.00  0.00    +0.600 C 
ATOM     27  F   LIG    1       -5.519   7.046  -2.966  0.00  0.00    -0.190 F 
ATOM     28  F   LIG    1       -6.963   5.320  -3.357  0.00  0.00    -0.190 F 
ENDBRANCH  25  26
ENDBRANCH  24  25
ENDBRANCH  18  19
ENDBRANCH  16  18
ENDBRANCH   4  16
TORSDOF 6
