REMARK  Name = ZINCqH0000008s7k.0
REMARK                            x       y       z     vdW  Elec       q    Type
REMARK                         _______ _______ _______ _____ _____    ______ ____
ROOT
ATOM      1  C   LIG    1       -0.054   4.121   0.024  0.00  0.00    -0.130 A 
ATOM      2  C   LIG    1        1.153   3.447   0.009  0.00  0.00    +0.060 A 
ATOM      3  C   LIG    1        1.175   2.066   0.002  0.00  0.00    -0.020 A 
ATOM      4  C   LIG    1       -0.016   1.355   0.009  0.00  0.00    +0.130 A 
ATOM      5  C   LIG    1       -1.226   2.033   0.019  0.00  0.00    -0.080 A 
ATOM      6  C   LIG    1       -1.242   3.414   0.031  0.00  0.00    +0.050 A 
ENDROOT
BRANCH   1   8
ATOM      7  C   LIG    1       -0.345   6.142  -1.383  0.00  0.00    +0.030 C 
ATOM      8  C   LIG    1       -0.074   5.628   0.032  0.00  0.00    +0.290 C 
BRANCH   8   9
ATOM      9  N   LIG    1       -1.131   6.097   0.932  0.00  0.00    -1.110 NA
ATOM     10  H   LIG    1       -1.959   5.598   1.009  0.00  0.00    +0.420 HD
BRANCH   9  11
ATOM     11  S   LIG    1       -0.911   7.479   1.818  0.00  0.00    +2.690 S 
ATOM     12  O   LIG    1        0.366   7.364   2.431  0.00  0.00    -0.950 OA
ATOM     13  O   LIG    1       -2.110   7.680   2.553  0.00  0.00    -0.960 OA
BRANCH  11  14
ATOM     14  C   LIG    1       -0.796   8.817   0.677  0.00  0.00    -0.680 A 
ATOM     15  C   LIG    1        0.436   9.194   0.175  0.00  0.00    +0.120 A 
ATOM     16  C   LIG    1        0.525  10.240  -0.723  0.00  0.00    -0.010 A 
ATOM     17  C   LIG    1       -0.616  10.916  -1.112  0.00  0.00    +0.070 A 
ATOM     18  C   LIG    1       -1.847  10.543  -0.607  0.00  0.00    -0.010 A 
ATOM     19  C   LIG    1       -1.937   9.493   0.288  0.00  0.00    +0.120 A 
ENDBRANCH  11  14
ENDBRANCH   9  11
ENDBRANCH   8   9
ENDBRANCH   1   8
BRANCH   4  20
ATOM     20  O   LIG    1        0.002  -0.004   0.002  0.00  0.00    -0.310 OA
BRANCH  20  21
ATOM     21  C   LIG    1       -1.262  -0.670   0.011  0.00  0.00    +0.260 C 
BRANCH  21  22
ATOM     22  C   LIG    1       -1.044  -2.161   0.000  0.00  0.00    -0.150 A 
ATOM     23  C   LIG    1       -0.960  -2.850  -1.200  0.00  0.00    +0.090 A 
ATOM     24  C   LIG    1       -0.753  -4.221  -1.161  0.00  0.00    -0.030 A 
ATOM     25  C   LIG    1       -0.651  -4.852   0.065  0.00  0.00    +0.270 A 
ATOM     26  N   LIG    1       -0.742  -4.165   1.187  0.00  0.00    -0.490 NA
ATOM     27  C   LIG    1       -0.932  -2.860   1.188  0.00  0.00    +0.290 A 
ENDBRANCH  21  22
ENDBRANCH  20  21
ENDBRANCH   4  20
TORSDOF 7
