REMARK  Name = ZINCrH000004rbFL.0
REMARK                            x       y       z     vdW  Elec       q    Type
REMARK                         _______ _______ _______ _____ _____    ______ ____
ROOT
ATOM      1  C   LIG    1        2.428  -4.708  -0.005  0.00  0.00    -0.020 C 
ATOM      2  C   LIG    1        1.800  -4.110  -1.267  0.00  0.00    +0.080 C 
ATOM      3  C   LIG    1        1.921  -2.586  -1.218  0.00  0.00    +0.180 C 
ATOM      4  N   LIG    1        1.238  -2.077  -0.021  0.00  0.00    -0.500 N 
ATOM      5  C   LIG    1        1.855  -2.601   1.204  0.00  0.00    +0.190 C 
ATOM      6  C   LIG    1        1.731  -4.126   1.228  0.00  0.00    +0.060 C 
ENDROOT
BRANCH   4   7
ATOM      7  C   LIG    1        1.215  -0.681  -0.013  0.00  0.00    +0.160 A 
ATOM      8  C   LIG    1        2.406   0.035  -0.021  0.00  0.00    -0.010 A 
ATOM      9  C   LIG    1        2.380   1.416  -0.013  0.00  0.00    +0.080 A 
ATOM     10  C   LIG    1        1.171   2.086   0.002  0.00  0.00    +0.030 A 
ATOM     11  C   LIG    1       -0.017   1.377   0.010  0.00  0.00    +0.110 A 
ATOM     12  C   LIG    1        0.002  -0.004   0.002  0.00  0.00    -0.030 A 
BRANCH  12  13
ATOM     13  N   LIG    1       -1.269  -0.762   0.011  0.00  0.00    +0.030 N 
ATOM     14  O   LIG    1       -1.252  -1.980   0.004  0.00  0.00    -0.100 OA
ATOM     15  O   LIG    1       -2.332  -0.168   0.024  0.00  0.00    -0.200 OA
ENDBRANCH  12  13
ENDBRANCH   4   7
BRANCH   1  17
ATOM     16  N   LIG    1        2.738  -6.948   0.999  0.00  0.00    -0.610 N 
ATOM     17  C   LIG    1        2.259  -6.206  -0.019  0.00  0.00    +0.520 C 
ATOM     18  O   LIG    1        1.691  -6.743  -0.947  0.00  0.00    -0.530 OA
ATOM     19  C   LIG    1        3.423  -6.298   2.119  0.00  0.00    +0.270 C 
BRANCH  16  20
ATOM     20  C   LIG    1        2.573  -8.403   0.985  0.00  0.00    +0.330 C 
BRANCH  20  25
ATOM     21  C   LIG    1        7.109 -10.832  -1.644  0.00  0.00    +0.090 C 
ATOM     22  C   LIG    1        5.926 -10.198  -0.959  0.00  0.00    -0.080 A 
ATOM     23  C   LIG    1        5.953  -9.982   0.406  0.00  0.00    -0.010 A 
ATOM     24  C   LIG    1        4.868  -9.401   1.035  0.00  0.00    +0.020 A 
ATOM     25  C   LIG    1        3.756  -9.036   0.299  0.00  0.00    -0.120 A 
ATOM     26  C   LIG    1        3.727  -9.258  -1.065  0.00  0.00    +0.040 A 
ATOM     27  C   LIG    1        4.815  -9.833  -1.695  0.00  0.00    +0.000 A 
ENDBRANCH  20  25
ENDBRANCH  16  20
ENDBRANCH   1  17
TORSDOF 5
