REMARK  Name = ZINCtj00001n1jTi.0
REMARK                            x       y       z     vdW  Elec       q    Type
REMARK                         _______ _______ _______ _____ _____    ______ ____
ROOT
ATOM      1  C   LIG    1        6.111   1.065  -0.051  0.00  0.00    -0.010 C 
ATOM      2  C   LIG    1        6.229   1.855  -1.357  0.00  0.00    +0.060 C 
ATOM      3  C   LIG    1        7.581   2.570  -1.395  0.00  0.00    +0.260 C 
ATOM      4  N   LIG    1        8.665   1.583  -1.317  0.00  0.00    -0.380 N 
ATOM      5  C   LIG    1        8.600   0.873  -0.034  0.00  0.00    +0.260 C 
ATOM      6  H   LIG    1        8.570   0.921  -2.072  0.00  0.00    +0.430 HD
ATOM      7  C   LIG    1        7.288   0.090   0.055  0.00  0.00    +0.070 C 
ENDROOT
BRANCH   1   8
ATOM      8  C   LIG    1        4.797   0.282  -0.042  0.00  0.00    +0.280 C 
BRANCH   8  11
ATOM      9  O   LIG    1        2.201  -0.443  -0.021  0.00  0.00    -0.520 OA
ATOM     10  C   LIG    1        2.406   0.752  -0.017  0.00  0.00    +0.510 C 
ATOM     11  N   LIG    1        3.671   1.218  -0.026  0.00  0.00    -0.730 N 
ATOM     12  H   LIG    1        3.835   2.174  -0.023  0.00  0.00    +0.400 HD
BRANCH  10  13
ATOM     13  C   LIG    1        1.248   1.716  -0.001  0.00  0.00    +0.300 C 
BRANCH  13  14
ATOM     14  N   LIG    1       -0.011   0.966   0.007  0.00  0.00    -0.720 N 
ATOM     15  H   LIG    1        0.002  -0.004   0.002  0.00  0.00    +0.410 HD
ATOM     16  C   LIG    1       -1.187   1.624   0.017  0.00  0.00    +0.570 C 
ATOM     17  O   LIG    1       -1.204   2.839   0.023  0.00  0.00    -0.530 OA
BRANCH  16  18
ATOM     18  C   LIG    1       -2.458   0.867   0.018  0.00  0.00    -0.200 A 
ATOM     19  C   LIG    1       -3.686   1.539   0.034  0.00  0.00    +0.140 A 
ATOM     20  C   LIG    1       -4.846   0.784   0.030  0.00  0.00    -0.030 A 
ATOM     21  C   LIG    1       -4.755  -0.596   0.023  0.00  0.00    +0.300 A 
ATOM     22  N   LIG    1       -3.583  -1.202   0.013  0.00  0.00    -0.490 NA
ATOM     23  C   LIG    1       -2.452  -0.528   0.011  0.00  0.00    +0.300 A 
ENDBRANCH  16  18
ENDBRANCH  13  14
ENDBRANCH  10  13
ENDBRANCH   8  11
ENDBRANCH   1   8
BRANCH   4  24
ATOM     24  C   LIG    1        9.959   2.269  -1.431  0.00  0.00    +0.240 C 
BRANCH  24  25
ATOM     25  C   LIG    1        9.979   3.111  -2.708  0.00  0.00    +0.260 C 
BRANCH  25  26
ATOM     26  C   LIG    1       11.306   3.815  -2.825  0.00  0.00    -0.140 A 
ATOM     27  C   LIG    1       12.387   3.163  -3.389  0.00  0.00    +0.010 A 
ATOM     28  C   LIG    1       13.604   3.810  -3.499  0.00  0.00    +0.020 A 
ATOM     29  C   LIG    1       13.742   5.106  -3.039  0.00  0.00    +0.030 A 
ATOM     30  C   LIG    1       12.662   5.756  -2.471  0.00  0.00    +0.020 A 
ATOM     31  C   LIG    1       11.445   5.110  -2.364  0.00  0.00    +0.030 A 
ENDBRANCH  25  26
BRANCH  25  32
ATOM     32  O   LIG    1        9.789   2.261  -3.841  0.00  0.00    -0.550 OA
ATOM     33  H   LIG    1       10.467   1.578  -3.939  0.00  0.00    +0.390 HD
ENDBRANCH  25  32
ENDBRANCH  24  25
ENDBRANCH   4  24
TORSDOF 9
