REMARK  Name = ZINCqH0000036NCs.0
REMARK                            x       y       z     vdW  Elec       q    Type
REMARK                         _______ _______ _______ _____ _____    ______ ____
ROOT
ATOM      1  N   LIG    1       -2.433   4.024   0.239  0.00  0.00    -0.650 N 
ATOM      2  H   LIG    1       -3.263   3.522   0.240  0.00  0.00    +0.410 HD
ATOM      3  C   LIG    1       -1.255   3.379   0.128  0.00  0.00    +0.710 C 
ATOM      4  N   LIG    1       -1.230   2.036   0.019  0.00  0.00    -0.690 N 
ATOM      5  H   LIG    1       -2.060   1.540  -0.054  0.00  0.00    +0.420 HD
ATOM      6  O   LIG    1       -0.215   4.009   0.127  0.00  0.00    -0.550 OA
ENDROOT
BRANCH   4   7
ATOM      7  C   LIG    1       -0.017   1.363   0.011  0.00  0.00    +0.330 A 
ATOM      8  C   LIG    1        0.313   0.577  -1.049  0.00  0.00    +0.010 A 
ATOM      9  C   LIG    1        1.532  -0.112  -1.063  0.00  0.00    +0.060 A 
ATOM     10  C   LIG    1        2.390   0.010  -0.012  0.00  0.00    +0.070 A 
ATOM     11  C   LIG    1        2.038   0.827   1.079  0.00  0.00    +0.230 A 
ATOM     12  N   LIG    1        2.663   1.124   2.211  0.00  0.00    -0.490 NA
ATOM     13  C   LIG    1        1.901   1.956   2.928  0.00  0.00    +0.210 A 
ATOM     14  C   LIG    1        0.764   2.199   2.243  0.00  0.00    +0.090 A 
ATOM     15  N   LIG    1        0.838   1.491   1.071  0.00  0.00    -0.360 N 
ENDBRANCH   4   7
BRANCH   1  18
ATOM     16  N   LIG    1       -3.163   7.493   0.554  0.00  0.00    -0.360 N 
ATOM     17  C   LIG    1       -3.570   6.199   0.470  0.00  0.00    +0.190 A 
ATOM     18  C   LIG    1       -2.459   5.428   0.353  0.00  0.00    +0.010 A 
ATOM     19  C   LIG    1       -1.343   6.276   0.371  0.00  0.00    +0.260 A 
ATOM     20  N   LIG    1       -1.764   7.509   0.487  0.00  0.00    -0.280 NA
BRANCH  16  22
ATOM     21  C   LIG    1       -5.326   8.433  -0.093  0.00  0.00    +0.070 C 
ATOM     22  C   LIG    1       -4.033   8.663   0.693  0.00  0.00    +0.320 C 
BRANCH  22  23
ATOM     23  C   LIG    1       -4.361   8.876   2.148  0.00  0.00    -0.110 A 
ATOM     24  C   LIG    1       -5.019   7.891   2.860  0.00  0.00    +0.020 A 
ATOM     25  C   LIG    1       -5.315   8.085   4.196  0.00  0.00    +0.000 A 
ATOM     26  C   LIG    1       -4.962   9.268   4.818  0.00  0.00    +0.010 A 
ATOM     27  C   LIG    1       -4.309  10.255   4.105  0.00  0.00    +0.010 A 
ATOM     28  C   LIG    1       -4.009  10.060   2.770  0.00  0.00    +0.030 A 
ENDBRANCH  22  23
ENDBRANCH  16  22
ENDBRANCH   1  18
TORSDOF 4
