REMARK  Name = ZINCrH000004s6LZ.0
REMARK                            x       y       z     vdW  Elec       q    Type
REMARK                         _______ _______ _______ _____ _____    ______ ____
ROOT
ATOM      1  C   LIG    1        0.827   5.580  -1.402  0.00  0.00    +0.300 C 
ENDROOT
BRANCH   1   2
ATOM      2  N   LIG    1        2.260   5.679  -1.686  0.00  0.00    -0.740 N 
ATOM      3  H   LIG    1        2.759   4.888  -1.944  0.00  0.00    +0.390 HD
ATOM      4  C   LIG    1        2.886   6.869  -1.589  0.00  0.00    +0.710 C 
ATOM      5  N   LIG    1        4.172   6.987  -1.974  0.00  0.00    -0.630 N 
ATOM      6  C   LIG    1        4.831   8.300  -1.993  0.00  0.00    +0.300 C 
ATOM      7  C   LIG    1        5.433   8.536  -3.377  0.00  0.00    +0.020 C 
ATOM      8  C   LIG    1        6.352   7.366  -3.737  0.00  0.00    -0.010 C 
ATOM      9  C   LIG    1        5.540   6.070  -3.776  0.00  0.00    +0.050 C 
ATOM     10  C   LIG    1        4.941   5.806  -2.391  0.00  0.00    +0.260 C 
ATOM     11  O   LIG    1        2.291   7.835  -1.153  0.00  0.00    -0.580 OA
BRANCH   8  12
ATOM     12  C   LIG    1        6.971   7.612  -5.089  0.00  0.00    +0.520 C 
ATOM     13  O   LIG    1        6.781   6.828  -5.994  0.00  0.00    -0.540 OA
ATOM     14  N   LIG    1        7.735   8.703  -5.292  0.00  0.00    -0.860 N 
ATOM     15  H   LIG    1        8.133   8.861  -6.162  0.00  0.00    +0.400 HD
ATOM     16  H   LIG    1        7.887   9.331  -4.567  0.00  0.00    +0.400 HD
ENDBRANCH   8  12
ENDBRANCH   1   2
BRANCH   1  23
ATOM     17  C   LIG    1       -1.629   7.088  -1.181  0.00  0.00    +0.090 C 
ATOM     18  C   LIG    1       -1.131   6.652  -2.535  0.00  0.00    -0.070 A 
ATOM     19  C   LIG    1       -1.849   6.974  -3.672  0.00  0.00    +0.000 A 
ATOM     20  C   LIG    1       -1.392   6.574  -4.914  0.00  0.00    +0.000 A 
ATOM     21  C   LIG    1       -0.218   5.853  -5.020  0.00  0.00    -0.010 A 
ATOM     22  C   LIG    1        0.503   5.536  -3.883  0.00  0.00    +0.010 A 
ATOM     23  C   LIG    1        0.044   5.931  -2.641  0.00  0.00    -0.090 A 
ENDBRANCH   1  23
BRANCH   1  24
ATOM     24  C   LIG    1        0.489   4.152  -0.972  0.00  0.00    -0.010 C 
ATOM     25  C   LIG    1        1.313   3.782   0.262  0.00  0.00    +0.020 C 
ATOM     26  C   LIG    1        0.976   2.353   0.692  0.00  0.00    +0.010 C 
ATOM     27  C   LIG    1       -0.514   2.260   1.027  0.00  0.00    -0.020 C 
ATOM     28  C   LIG    1       -1.339   2.629  -0.207  0.00  0.00    +0.010 C 
ATOM     29  C   LIG    1       -0.842   3.226   2.168  0.00  0.00    +0.010 C 
ATOM     30  C   LIG    1       -1.001   4.059  -0.637  0.00  0.00    +0.020 C 
ENDBRANCH   1  24
TORSDOF 4
