REMARK  Name = ZINCqH0000008dE2.0
REMARK                            x       y       z     vdW  Elec       q    Type
REMARK                         _______ _______ _______ _____ _____    ______ ____
ROOT
ATOM      1  N   LIG    1       -4.932   0.083   0.548  0.00  0.00    -0.530 NA
ATOM      2  C   LIG    1       -4.896   1.551   0.593  0.00  0.00    +0.170 C 
ATOM      3  C   LIG    1       -4.118   2.077  -0.619  0.00  0.00    +0.300 C 
ATOM      4  N   LIG    1       -2.801   1.422  -0.648  0.00  0.00    -0.610 N 
ATOM      5  C   LIG    1       -2.751  -0.045  -0.564  0.00  0.00    +0.280 C 
ATOM      6  C   LIG    1       -1.670   2.148  -0.754  0.00  0.00    +0.560 C 
ATOM      7  O   LIG    1       -1.724   3.363  -0.740  0.00  0.00    -0.520 OA
ATOM      8  C   LIG    1       -3.582  -0.487   0.651  0.00  0.00    +0.170 C 
ENDROOT
BRANCH   6   9
ATOM      9  C   LIG    1       -0.367   1.469  -0.889  0.00  0.00    -0.160 A 
ATOM     10  C   LIG    1       -0.177   0.504  -1.882  0.00  0.00    +0.060 A 
ATOM     11  C   LIG    1        1.044  -0.123  -2.006  0.00  0.00    +0.000 A 
ATOM     12  C   LIG    1        2.085   0.199  -1.151  0.00  0.00    +0.050 A 
ATOM     13  C   LIG    1        1.911   1.150  -0.165  0.00  0.00    -0.010 A 
ATOM     14  C   LIG    1        0.689   1.791  -0.026  0.00  0.00    +0.150 A 
BRANCH  14  15
ATOM     15  O   LIG    1        0.516   2.726   0.942  0.00  0.00    -0.480 OA
ATOM     16  H   LIG    1        0.200   2.369   1.782  0.00  0.00    +0.390 HD
ENDBRANCH  14  15
ENDBRANCH   6   9
BRANCH   1  18
ATOM     17  C   LIG    1       -7.269  -0.141   1.246  0.00  0.00    +0.040 C 
ATOM     18  C   LIG    1       -5.812  -0.454   1.594  0.00  0.00    +0.140 C 
BRANCH  18  19
ATOM     19  C   LIG    1       -5.624  -1.969   1.691  0.00  0.00    +0.070 C 
BRANCH  19  20
ATOM     20  C   LIG    1       -6.533  -2.527   2.788  0.00  0.00    +0.070 C 
BRANCH  20  21
ATOM     21  S   LIG    1       -6.202  -4.297   3.006  0.00  0.00    -0.120 S 
BRANCH  21  22
ATOM     22  C   LIG    1       -7.322  -4.755   4.286  0.00  0.00    -0.080 A 
ATOM     23  C   LIG    1       -8.163  -3.803   4.850  0.00  0.00    -0.010 A 
ATOM     24  C   LIG    1       -9.043  -4.167   5.850  0.00  0.00    +0.030 A 
ATOM     25  C   LIG    1       -9.081  -5.475   6.298  0.00  0.00    +0.010 A 
ATOM     26  C   LIG    1       -8.242  -6.424   5.742  0.00  0.00    +0.030 A 
ATOM     27  C   LIG    1       -7.363  -6.069   4.739  0.00  0.00    +0.030 A 
ENDBRANCH  21  22
ENDBRANCH  20  21
ENDBRANCH  19  20
ENDBRANCH  18  19
ENDBRANCH   1  18
TORSDOF 7
