REMARK  Name = ZINCqH0000005Ww5.0
REMARK                            x       y       z     vdW  Elec       q    Type
REMARK                         _______ _______ _______ _____ _____    ______ ____
ROOT
ATOM      1  C   LIG    1        0.002  -0.004   0.002  0.00  0.00    +0.470 C 
ATOM      2  O   LIG    1        1.056  -0.594  -0.011  0.00  0.00    -0.480 OA
ENDROOT
BRANCH   1   3
ATOM      3  O   LIG    1       -1.151  -0.691   0.009  0.00  0.00    -0.350 OA
BRANCH   3   4
ATOM      4  C   LIG    1       -1.056  -2.140   0.001  0.00  0.00    +0.360 C 
BRANCH   4   8
ATOM      5  C   LIG    1       -4.340  -3.558   0.736  0.00  0.00    -0.050 A 
ATOM      6  C   LIG    1       -4.392  -3.567  -0.629  0.00  0.00    +0.070 A 
ATOM      7  C   LIG    1       -3.174  -3.039  -1.083  0.00  0.00    -0.020 A 
ATOM      8  C   LIG    1       -2.440  -2.735   0.011  0.00  0.00    +0.020 A 
ATOM      9  O   LIG    1       -3.144  -3.054   1.104  0.00  0.00    -0.140 OA
BRANCH   5  10
ATOM     10  C   LIG    1       -5.395  -4.020   1.641  0.00  0.00    +0.550 C 
ATOM     11  O   LIG    1       -6.434  -4.462   1.188  0.00  0.00    -0.480 OA
BRANCH  10  13
ATOM     12  C   LIG    1       -6.303  -4.430   3.812  0.00  0.00    +0.290 C 
ATOM     13  O   LIG    1       -5.215  -3.955   2.976  0.00  0.00    -0.350 OA
ENDBRANCH  10  13
ENDBRANCH   5  10
ENDBRANCH   4   8
ENDBRANCH   3   4
ENDBRANCH   1   3
BRANCH   1  14
ATOM     14  C   LIG    1       -0.018   1.503   0.010  0.00  0.00    +0.220 C 
BRANCH  14  15
ATOM     15  C   LIG    1        1.395   2.024  -0.000  0.00  0.00    +0.080 A 
ATOM     16  C   LIG    1        1.828   2.885  -0.928  0.00  0.00    -0.060 A 
ATOM     17  S   LIG    1        3.520   3.248  -0.597  0.00  0.00    +0.100 S 
ATOM     18  C   LIG    1        3.473   2.173   0.798  0.00  0.00    +0.120 A 
ATOM     19  N   LIG    1        2.278   1.666   0.904  0.00  0.00    -0.440 NA
BRANCH  18  20
ATOM     20  C   LIG    1        4.606   1.895   1.707  0.00  0.00    -0.030 A 
ATOM     21  C   LIG    1        4.444   1.020   2.782  0.00  0.00    +0.070 A 
ATOM     22  C   LIG    1        5.505   0.765   3.625  0.00  0.00    +0.010 A 
ATOM     23  C   LIG    1        6.729   1.373   3.407  0.00  0.00    +0.030 A 
ATOM     24  C   LIG    1        6.896   2.241   2.342  0.00  0.00    -0.080 A 
ATOM     25  C   LIG    1        8.232   2.899   2.111  0.00  0.00    +0.090 C 
ATOM     26  C   LIG    1        5.844   2.502   1.489  0.00  0.00    +0.020 A 
ENDBRANCH  18  20
ENDBRANCH  14  15
ENDBRANCH   1  14
TORSDOF 8
