REMARK  Name = ZINCpk000000ozIv.0
REMARK                            x       y       z     vdW  Elec       q    Type
REMARK                         _______ _______ _______ _____ _____    ______ ____
ROOT
ATOM      1  C   LIG    1        1.143   2.057  -0.263  0.00  0.00    +0.190 A 
ATOM      2  C   LIG    1        2.354   1.389  -0.295  0.00  0.00    +0.020 A 
ATOM      3  C   LIG    1        2.402   0.023  -0.005  0.00  0.00    -0.120 A 
ATOM      4  C   LIG    1        1.228  -0.662   0.315  0.00  0.00    +0.020 A 
ATOM      5  C   LIG    1        0.024   0.008   0.345  0.00  0.00    -0.030 A 
ATOM      6  C   LIG    1       -0.026   1.365   0.058  0.00  0.00    +0.090 A 
ENDROOT
BRANCH   3   7
ATOM      7  C   LIG    1        3.692  -0.694  -0.037  0.00  0.00    +0.570 C 
ATOM      8  N   LIG    1        3.756  -1.944  -0.537  0.00  0.00    -0.610 N 
ATOM      9  C   LIG    1        2.581  -2.569  -1.166  0.00  0.00    +0.250 C 
ATOM     10  C   LIG    1        3.009  -3.123  -2.535  0.00  0.00    +0.220 C 
ATOM     11  O   LIG    1        4.157  -3.958  -2.365  0.00  0.00    -0.380 OA
ATOM     12  C   LIG    1        5.308  -3.275  -1.864  0.00  0.00    +0.220 C 
ATOM     13  C   LIG    1        5.000  -2.726  -0.466  0.00  0.00    +0.260 C 
ATOM     14  O   LIG    1        4.697  -0.157   0.388  0.00  0.00    -0.530 OA
ENDBRANCH   3   7
BRANCH   1  15
ATOM     15  N   LIG    1        1.090   3.425  -0.553  0.00  0.00    -0.730 N 
ATOM     16  H   LIG    1        0.240   3.893  -0.531  0.00  0.00    +0.420 HD
BRANCH  15  17
ATOM     17  C   LIG    1        2.317   4.151  -0.890  0.00  0.00    +0.290 C 
BRANCH  17  19
ATOM     18  N   LIG    1        2.968   6.461  -1.487  0.00  0.00    -0.610 N 
ATOM     19  C   LIG    1        1.988   5.597  -1.157  0.00  0.00    +0.510 C 
ATOM     20  O   LIG    1        0.841   5.984  -1.074  0.00  0.00    -0.530 OA
BRANCH  18  22
ATOM     21  C   LIG    1        4.632   5.528  -3.018  0.00  0.00    +0.020 C 
ATOM     22  C   LIG    1        4.353   5.995  -1.587  0.00  0.00    +0.270 C 
ENDBRANCH  18  22
BRANCH  18  23
ATOM     23  C   LIG    1        2.648   7.867  -1.747  0.00  0.00    +0.270 C 
ATOM     24  C   LIG    1        2.740   8.660  -0.442  0.00  0.00    +0.020 C 
ENDBRANCH  18  23
ENDBRANCH  17  19
ENDBRANCH  15  17
ENDBRANCH   1  15
BRANCH   6  25
ATOM     25  O   LIG    1       -1.216   2.019   0.083  0.00  0.00    -0.320 OA
ATOM     26  C   LIG    1       -2.373   1.249   0.413  0.00  0.00    +0.250 C 
ENDBRANCH   6  25
TORSDOF 7
