REMARK  Name = ZINCrD000000CtbL.0
REMARK                            x       y       z     vdW  Elec       q    Type
REMARK                         _______ _______ _______ _____ _____    ______ ____
ROOT
ATOM      1  C   LIG    1       -4.838   7.790  -1.812  0.00  0.00    +0.010 C 
ATOM      2  C   LIG    1       -4.008   7.428  -3.065  0.00  0.00    +0.090 C 
ATOM      3  C   LIG    1       -3.254   6.180  -2.665  0.00  0.00    +0.520 C 
ATOM      4  N   LIG    1       -3.282   6.031  -1.329  0.00  0.00    -0.550 N 
ATOM      5  O   LIG    1       -2.706   5.422  -3.437  0.00  0.00    -0.500 OA
ATOM      6  C   LIG    1       -4.013   7.129  -0.686  0.00  0.00    +0.310 C 
ENDROOT
BRANCH   4   7
ATOM      7  C   LIG    1       -2.685   4.969  -0.640  0.00  0.00    +0.170 A 
ATOM      8  C   LIG    1       -2.658   4.967   0.748  0.00  0.00    -0.020 A 
ATOM      9  C   LIG    1       -2.069   3.917   1.422  0.00  0.00    +0.050 A 
ATOM     10  C   LIG    1       -1.504   2.865   0.721  0.00  0.00    -0.120 A 
ATOM     11  C   LIG    1       -0.806   1.615   1.223  0.00  0.00    +0.070 C 
ATOM     12  C   LIG    1       -0.032   1.071   0.003  0.00  0.00    +0.030 C 
ATOM     13  C   LIG    1       -0.854   1.614  -1.185  0.00  0.00    +0.080 C 
ATOM     14  C   LIG    1       -1.530   2.864  -0.662  0.00  0.00    -0.070 A 
ATOM     15  C   LIG    1       -2.119   3.915  -1.342  0.00  0.00    +0.010 A 
ENDBRANCH   4   7
BRANCH   1  17
ATOM     16  O   LIG    1       -6.544   6.314  -1.120  0.00  0.00    -0.520 OA
ATOM     17  C   LIG    1       -6.220   7.194  -1.888  0.00  0.00    +0.520 C 
ATOM     18  N   LIG    1       -7.096   7.639  -2.811  0.00  0.00    -0.610 N 
ATOM     19  C   LIG    1       -6.720   8.710  -3.745  0.00  0.00    +0.280 C 
ATOM     20  C   LIG    1       -6.985   8.223  -5.178  0.00  0.00    +0.030 C 
ATOM     21  C   LIG    1       -8.442   7.769  -5.295  0.00  0.00    +0.040 C 
ATOM     22  C   LIG    1       -8.694   6.604  -4.337  0.00  0.00    -0.030 C 
ATOM     23  C   LIG    1       -8.447   7.068  -2.898  0.00  0.00    +0.320 C 
BRANCH  22  24
ATOM     24  C   LIG    1      -10.142   6.130  -4.479  0.00  0.00    +0.460 C 
ATOM     25  F   LIG    1      -10.373   5.066  -3.599  0.00  0.00    -0.180 F 
ATOM     26  F   LIG    1      -10.367   5.706  -5.793  0.00  0.00    -0.180 F 
ATOM     27  F   LIG    1      -11.009   7.184  -4.174  0.00  0.00    -0.180 F 
ENDBRANCH  22  24
ENDBRANCH   1  17
TORSDOF 3
