REMARK  Name = ZINCpe00000MJISr.0
REMARK                            x       y       z     vdW  Elec       q    Type
REMARK                         _______ _______ _______ _____ _____    ______ ____
ROOT
ATOM      1  C   LIG    1        1.884   3.118  -0.448  0.00  0.00    +0.580 C 
ATOM      2  N   LIG    1        1.381   2.012   0.136  0.00  0.00    -0.600 N 
ATOM      3  C   LIG    1       -0.051   1.691   0.275  0.00  0.00    +0.250 C 
ATOM      4  C   LIG    1       -0.100   0.148   0.408  0.00  0.00    +0.040 C 
ATOM      5  C   LIG    1        1.171  -0.132   1.253  0.00  0.00    +0.050 C 
ATOM      6  C   LIG    1        2.168   0.926   0.738  0.00  0.00    +0.340 C 
ATOM      7  O   LIG    1        3.084   3.311  -0.449  0.00  0.00    -0.510 OA
ENDROOT
BRANCH   1  12
ATOM      8  C   LIG    1        0.581   5.801  -2.729  0.00  0.00    -0.120 A 
ATOM      9  C   LIG    1       -0.722   5.926  -2.281  0.00  0.00    +0.050 A 
ATOM     10  C   LIG    1       -1.180   5.140  -1.239  0.00  0.00    +0.000 A 
ATOM     11  C   LIG    1       -0.341   4.222  -0.642  0.00  0.00    +0.050 A 
ATOM     12  C   LIG    1        0.977   4.095  -1.086  0.00  0.00    -0.120 A 
ATOM     13  C   LIG    1        1.433   4.891  -2.138  0.00  0.00    +0.090 A 
BRANCH   8  14
ATOM     14  C   LIG    1        1.071   6.662  -3.865  0.00  0.00    +0.320 C 
BRANCH  14  17
ATOM     15  C   LIG    1        0.936   5.856  -7.605  0.00  0.00    +0.110 C 
ATOM     16  C   LIG    1        1.186   6.561  -6.297  0.00  0.00    +0.510 C 
ATOM     17  N   LIG    1        0.827   5.976  -5.137  0.00  0.00    -0.730 N 
ATOM     18  H   LIG    1        0.407   5.102  -5.144  0.00  0.00    +0.400 HD
ATOM     19  O   LIG    1        1.711   7.654  -6.288  0.00  0.00    -0.550 OA
ENDBRANCH  14  17
ENDBRANCH   8  14
ENDBRANCH   1  12
BRANCH   6  20
ATOM     20  C   LIG    1        2.988   1.459   1.885  0.00  0.00    +0.240 C 
ATOM     21  N   LIG    1        3.092   2.743   2.231  0.00  0.00    -0.550 NA
ATOM     22  C   LIG    1        3.883   2.858   3.276  0.00  0.00    +0.530 C 
ATOM     23  N   LIG    1        4.309   1.621   3.611  0.00  0.00    -0.420 NA
ATOM     24  C   LIG    1        5.211   1.271   4.710  0.00  0.00    +0.360 C 
ATOM     25  N   LIG    1        3.715   0.738   2.695  0.00  0.00    -0.330 NA
BRANCH  22  26
ATOM     26  N   LIG    1        4.221   4.037   3.916  0.00  0.00    -0.830 NA
ATOM     27  H   LIG    1        3.862   4.880   3.599  0.00  0.00    +0.420 HD
ATOM     28  H   LIG    1        4.818   4.020   4.680  0.00  0.00    +0.410 HD
ENDBRANCH  22  26
ENDBRANCH   6  20
TORSDOF 5
