REMARK  Name = ZINCpk00000y6uep.1
REMARK                            x       y       z     vdW  Elec       q    Type
REMARK                         _______ _______ _______ _____ _____    ______ ____
ROOT
ATOM      1  C   LIG    1        7.169   1.617  -0.295  0.00  0.00    -0.280 A 
ATOM      2  C   LIG    1        5.963   2.288  -0.115  0.00  0.00    +0.230 A 
ATOM      3  C   LIG    1        4.766   1.557  -0.114  0.00  0.00    -0.360 A 
ATOM      4  C   LIG    1        4.789   0.142  -0.103  0.00  0.00    +0.500 A 
ATOM      5  N   LIG    1        5.999  -0.516  -0.036  0.00  0.00    -0.490 N 
ATOM      6  N   LIG    1        3.651  -0.532  -0.138  0.00  0.00    -0.570 NA
ATOM      7  C   LIG    1        2.472   0.094  -0.164  0.00  0.00    +0.440 A 
ATOM      8  C   LIG    1        1.294  -0.673  -0.208  0.00  0.00    +0.020 A 
ATOM      9  C   LIG    1        0.083  -0.047  -0.221  0.00  0.00    +0.150 A 
ATOM     10  C   LIG    1        0.029   1.354  -0.192  0.00  0.00    +0.000 A 
ATOM     11  C   LIG    1        1.172   2.075  -0.154  0.00  0.00    +0.300 A 
ATOM     12  N   LIG    1        2.387   1.458  -0.144  0.00  0.00    -0.440 N 
ATOM     13  C   LIG    1        3.509   2.213  -0.117  0.00  0.00    +0.550 A 
ATOM     14  O   LIG    1        3.441   3.429  -0.094  0.00  0.00    -0.510 OA
ATOM     15  C   LIG    1        7.118   0.156  -0.513  0.00  0.00    +0.450 A 
ATOM     16  N   LIG    1        8.085  -0.478  -1.129  0.00  0.00    -0.700 NA
ATOM     17  H   LIG    1        8.816   0.021  -1.525  0.00  0.00    +0.370 HD
ENDROOT
BRANCH   1  20
ATOM     18  N   LIG    1        8.476   3.651   0.026  0.00  0.00    -0.730 N 
ATOM     19  H   LIG    1        7.662   4.105   0.293  0.00  0.00    +0.400 HD
ATOM     20  C   LIG    1        8.448   2.336  -0.269  0.00  0.00    +0.580 C 
ATOM     21  O   LIG    1        9.483   1.745  -0.513  0.00  0.00    -0.540 OA
BRANCH  18  22
ATOM     22  C   LIG    1        9.735   4.394  -0.059  0.00  0.00    +0.300 C 
BRANCH  22  24
ATOM     23  C   LIG    1       10.201   6.386   1.273  0.00  0.00    +0.040 C 
ATOM     24  C   LIG    1        9.496   5.833   0.318  0.00  0.00    -0.060 C 
ENDBRANCH  22  24
ENDBRANCH  18  22
ENDBRANCH   1  20
BRANCH   5  25
ATOM     25  C   LIG    1        6.101  -1.869   0.517  0.00  0.00    +0.310 C 
BRANCH  25  26
ATOM     26  C   LIG    1        5.908  -2.893  -0.602  0.00  0.00    +0.010 C 
ATOM     27  C   LIG    1        6.015  -4.306  -0.025  0.00  0.00    +0.020 C 
ENDBRANCH  25  26
ENDBRANCH   5  25
TORSDOF 5
