REMARK  Name = ZINCrH00000tj1mQ.0
REMARK                            x       y       z     vdW  Elec       q    Type
REMARK                         _______ _______ _______ _____ _____    ______ ____
ROOT
ATOM      1  O   LIG    1        5.158  -2.862  -6.826  0.00  0.00    -0.550 OA
ATOM      2  C   LIG    1        5.167  -2.155  -5.837  0.00  0.00    +0.710 C 
ATOM      3  N   LIG    1        4.511  -2.563  -4.743  0.00  0.00    -0.630 N 
ATOM      4  H   LIG    1        4.047  -3.415  -4.777  0.00  0.00    +0.430 HD
ATOM      5  C   LIG    1        4.458  -1.847  -3.582  0.00  0.00    +0.170 C 
ATOM      6  C   LIG    1        5.080  -0.656  -3.467  0.00  0.00    -0.280 C 
ATOM      7  C   LIG    1        5.841  -0.139  -4.672  0.00  0.00    +0.360 C 
ATOM      8  C   LIG    1        4.878  -0.119  -2.179  0.00  0.00    +0.580 C 
ATOM      9  N   LIG    1        4.123  -0.938  -1.424  0.00  0.00    -0.620 N 
ATOM     10  O   LIG    1        5.327   0.948  -1.800  0.00  0.00    -0.520 OA
ATOM     11  C   LIG    1        3.796  -2.111  -2.248  0.00  0.00    +0.370 C 
ATOM     12  N   LIG    1        5.838  -0.987  -5.876  0.00  0.00    -0.710 N 
ATOM     13  H   LIG    1        6.307  -0.711  -6.679  0.00  0.00    +0.440 HD
ENDROOT
BRANCH   7  14
ATOM     14  C   LIG    1        5.264   1.202  -5.045  0.00  0.00    -0.090 A 
ATOM     15  C   LIG    1        5.908   2.362  -4.658  0.00  0.00    +0.070 A 
ATOM     16  C   LIG    1        5.380   3.594  -5.001  0.00  0.00    +0.050 A 
ATOM     17  C   LIG    1        4.207   3.664  -5.731  0.00  0.00    -0.030 A 
ATOM     18  C   LIG    1        3.563   2.501  -6.119  0.00  0.00    -0.030 A 
ATOM     19 CL   LIG    1        2.091   2.588  -7.036  0.00  0.00    -0.050 Cl
ATOM     20 CL   LIG    1        3.544   5.210  -6.161  0.00  0.00    -0.050 Cl
ATOM     21  C   LIG    1        4.095   1.271  -5.780  0.00  0.00    +0.050 A 
ENDBRANCH   7  14
BRANCH   9  22
ATOM     22  C   LIG    1        3.711  -0.707  -0.038  0.00  0.00    +0.390 C 
BRANCH  22  23
ATOM     23  C   LIG    1        2.396   0.029  -0.021  0.00  0.00    -0.130 A 
ATOM     24  C   LIG    1        1.208  -0.678  -0.013  0.00  0.00    +0.050 A 
ATOM     25  C   LIG    1        0.002  -0.004   0.002  0.00  0.00    -0.020 A 
ATOM     26  C   LIG    1       -0.017   1.380   0.010  0.00  0.00    +0.110 A 
ATOM     27  C   LIG    1        1.173   2.088   0.002  0.00  0.00    -0.010 A 
ATOM     28  F   LIG    1       -1.195   2.040   0.019  0.00  0.00    -0.140 F 
ATOM     29  C   LIG    1        2.379   1.412  -0.013  0.00  0.00    +0.080 A 
ENDBRANCH  22  23
ENDBRANCH   9  22
TORSDOF 3
