REMARK  Name = ZINCqH00000070z9.0
REMARK                            x       y       z     vdW  Elec       q    Type
REMARK                         _______ _______ _______ _____ _____    ______ ____
ROOT
ATOM      1  C   LIG    1       -2.816   1.410  -0.028  0.00  0.00    +0.560 C 
ATOM      2  N   LIG    1       -3.866   2.245   0.099  0.00  0.00    -0.600 N 
ATOM      3  C   LIG    1       -3.657   3.689   0.273  0.00  0.00    +0.280 C 
ATOM      4  C   LIG    1       -4.409   4.154   1.519  0.00  0.00    +0.030 C 
ATOM      5  C   LIG    1       -5.878   3.740   1.409  0.00  0.00    -0.010 C 
ATOM      6  C   LIG    1       -5.975   2.215   1.325  0.00  0.00    +0.040 C 
ATOM      7  C   LIG    1       -5.241   1.729   0.072  0.00  0.00    +0.280 C 
ATOM      8  O   LIG    1       -3.002   0.230  -0.253  0.00  0.00    -0.500 OA
ENDROOT
BRANCH   5   9
ATOM      9  C   LIG    1       -6.628   4.225   2.623  0.00  0.00    +0.520 C 
ATOM     10  N   LIG    1       -6.982   5.522   2.723  0.00  0.00    -0.600 N 
ATOM     11  C   LIG    1       -7.813   5.930   3.833  0.00  0.00    +0.260 C 
ATOM     12  C   LIG    1       -9.303   5.795   3.452  0.00  0.00    +0.000 C 
ATOM     13  C   LIG    1       -9.675   6.831   2.475  0.00  0.00    +0.000 C 
ATOM     14  C   LIG    1       -8.932   6.737   1.146  0.00  0.00    +0.000 C 
ATOM     15  C   LIG    1       -7.609   7.453   1.260  0.00  0.00    +0.020 C 
ATOM     16  C   LIG    1       -6.509   6.466   1.691  0.00  0.00    +0.260 C 
ATOM     17  O   LIG    1       -6.914   3.448   3.510  0.00  0.00    -0.530 OA
ENDBRANCH   5   9
BRANCH   1  22
ATOM     18  C   LIG    1        0.291   3.456  -0.571  0.00  0.00    +0.140 A 
ATOM     19  C   LIG    1        1.149   2.892   0.363  0.00  0.00    -0.050 A 
ATOM     20  C   LIG    1        0.719   1.855   1.169  0.00  0.00    +0.090 A 
ATOM     21  C   LIG    1       -0.569   1.371   1.050  0.00  0.00    -0.090 A 
ATOM     22  C   LIG    1       -1.438   1.928   0.108  0.00  0.00    -0.060 A 
ATOM     23 BR   LIG    1       -1.154  -0.048   2.154  0.00  0.00    -0.030 Br
ATOM     24  C   LIG    1       -1.003   2.979  -0.700  0.00  0.00    +0.030 A 
BRANCH  18  26
ATOM     25  C   LIG    1        2.067   4.917  -1.174  0.00  0.00    +0.250 C 
ATOM     26  O   LIG    1        0.720   4.476  -1.360  0.00  0.00    -0.310 OA
ENDBRANCH  18  26
ENDBRANCH   1  22
TORSDOF 3
