REMARK  Name = ZINCpe00000gN7A2.0
REMARK                            x       y       z     vdW  Elec       q    Type
REMARK                         _______ _______ _______ _____ _____    ______ ____
ROOT
ATOM      1  C   LIG    1       -2.364   1.109  -0.073  0.00  0.00    +0.150 A 
ATOM      2  C   LIG    1       -2.298  -0.278  -0.079  0.00  0.00    +0.010 A 
ATOM      3  C   LIG    1       -3.458  -1.022  -0.164  0.00  0.00    +0.040 A 
ATOM      4  C   LIG    1       -4.684  -0.388  -0.254  0.00  0.00    +0.000 A 
ATOM      5  C   LIG    1       -4.752   0.994  -0.254  0.00  0.00    -0.090 A 
ATOM      6  C   LIG    1       -3.596   1.744  -0.164  0.00  0.00    +0.000 A 
ENDROOT
BRANCH   1   8
ATOM      7  C   LIG    1       -0.146   1.407   0.735  0.00  0.00    +0.520 C 
ATOM      8  N   LIG    1       -1.191   1.867   0.018  0.00  0.00    -0.670 N 
ATOM      9  H   LIG    1       -1.129   2.722  -0.435  0.00  0.00    +0.410 HD
ATOM     10  O   LIG    1       -0.256   0.386   1.380  0.00  0.00    -0.510 OA
BRANCH   7  13
ATOM     11  N   LIG    1        3.172   1.833   0.443  0.00  0.00    -1.040 NA
ATOM     12  C   LIG    1        2.268   1.481   1.556  0.00  0.00    +0.350 C 
ATOM     13  C   LIG    1        1.159   2.160   0.732  0.00  0.00    -0.020 C 
ATOM     14  C   LIG    1        2.035   1.877  -0.501  0.00  0.00    +0.330 C 
BRANCH  11  15
ATOM     15  S   LIG    1        4.803   2.082   0.307  0.00  0.00    +2.810 S 
ATOM     16  O   LIG    1        5.264   2.438   1.603  0.00  0.00    -0.970 OA
ATOM     17  O   LIG    1        4.989   2.904  -0.837  0.00  0.00    -0.980 OA
BRANCH  15  18
ATOM     18  N   LIG    1        5.494   0.620  -0.051  0.00  0.00    -1.270 NA
ATOM     19  H   LIG    1        6.454   0.554  -0.171  0.00  0.00    +0.420 HD
ATOM     20  H   LIG    1        4.939  -0.170  -0.139  0.00  0.00    +0.410 HD
ENDBRANCH  15  18
ENDBRANCH  11  15
ENDBRANCH   7  13
ENDBRANCH   1   8
BRANCH   5  21
ATOM     21  C   LIG    1       -6.090   1.681  -0.352  0.00  0.00    +0.310 C 
BRANCH  21  22
ATOM     22  C   LIG    1       -6.543   1.696  -1.789  0.00  0.00    -0.110 A 
ATOM     23  C   LIG    1       -7.207   0.604  -2.315  0.00  0.00    +0.010 A 
ATOM     24  C   LIG    1       -7.627   0.619  -3.632  0.00  0.00    +0.000 A 
ATOM     25  C   LIG    1       -7.373   1.722  -4.426  0.00  0.00    +0.000 A 
ATOM     26  C   LIG    1       -6.703   2.812  -3.901  0.00  0.00    +0.000 A 
ATOM     27  C   LIG    1       -6.288   2.798  -2.583  0.00  0.00    +0.010 A 
ENDBRANCH  21  22
BRANCH  21  28
ATOM     28  O   LIG    1       -7.047   0.977   0.442  0.00  0.00    -0.540 OA
ATOM     29  H   LIG    1       -7.178   0.057   0.175  0.00  0.00    +0.370 HD
ENDBRANCH  21  28
ENDBRANCH   5  21
TORSDOF 7
