REMARK  Name = ZINCvU00000008GV.0
REMARK                            x       y       z     vdW  Elec       q    Type
REMARK                         _______ _______ _______ _____ _____    ______ ____
ROOT
ATOM      1  C   LIG    1       -4.976   5.059  -2.683  0.00  0.00    +0.290 A 
ATOM      2  N   LIG    1       -4.838   6.329  -2.433  0.00  0.00    -0.480 NA
ATOM      3  C   LIG    1       -6.001   6.976  -2.700  0.00  0.00    +0.050 A 
ATOM      4  C   LIG    1       -6.403   8.311  -2.612  0.00  0.00    +0.070 A 
ATOM      5  C   LIG    1       -7.676   8.663  -2.963  0.00  0.00    +0.000 A 
ATOM      6  C   LIG    1       -8.578   7.707  -3.407  0.00  0.00    +0.030 A 
ATOM      7  C   LIG    1       -8.203   6.384  -3.502  0.00  0.00    +0.010 A 
ATOM      8  C   LIG    1       -6.915   6.007  -3.150  0.00  0.00    +0.050 A 
ATOM      9  N   LIG    1       -6.234   4.806  -3.133  0.00  0.00    -0.480 N 
ENDROOT
BRANCH   1  12
ATOM     10  N   LIG    1       -1.980   3.706  -1.100  0.00  0.00    -0.620 N 
ATOM     11  C   LIG    1       -3.424   3.962  -1.036  0.00  0.00    +0.290 C 
ATOM     12  C   LIG    1       -3.897   4.022  -2.506  0.00  0.00    +0.080 C 
ATOM     13  C   LIG    1       -2.601   4.441  -3.237  0.00  0.00    +0.090 C 
ATOM     14  C   LIG    1       -1.490   3.978  -2.321  0.00  0.00    +0.520 C 
ATOM     15  O   LIG    1       -0.326   3.865  -2.643  0.00  0.00    -0.520 OA
BRANCH  10  16
ATOM     16  C   LIG    1       -1.176   3.222   0.025  0.00  0.00    +0.330 C 
BRANCH  16  18
ATOM     17  C   LIG    1       -0.013   1.076   0.008  0.00  0.00    +0.040 C 
ATOM     18  C   LIG    1       -1.156   1.715   0.017  0.00  0.00    -0.080 C 
ENDBRANCH  16  18
ENDBRANCH  10  16
ENDBRANCH   1  12
BRANCH   9  19
ATOM     19  C   LIG    1       -6.770   3.499  -3.524  0.00  0.00    +0.330 C 
BRANCH  19  20
ATOM     20  C   LIG    1       -7.396   2.819  -2.305  0.00  0.00    +0.190 C 
BRANCH  20  21
ATOM     21  O   LIG    1       -7.918   1.545  -2.687  0.00  0.00    -0.310 OA
BRANCH  21  22
ATOM     22  C   LIG    1       -8.512   0.805  -1.714  0.00  0.00    +0.130 A 
ATOM     23  C   LIG    1       -8.591   1.296  -0.418  0.00  0.00    -0.090 A 
ATOM     24  C   LIG    1       -9.196   0.542   0.569  0.00  0.00    -0.050 A 
ATOM     25  C   LIG    1       -9.723  -0.700   0.267  0.00  0.00    -0.030 A 
ATOM     26  C   LIG    1       -9.646  -1.191  -1.024  0.00  0.00    +0.060 A 
ATOM     27  C   LIG    1       -9.282   1.074   1.976  0.00  0.00    +0.090 C 
ATOM     28  C   LIG    1       -9.046  -0.439  -2.015  0.00  0.00    -0.110 A 
BRANCH  28  29
ATOM     29  C   LIG    1       -8.968  -0.973  -3.423  0.00  0.00    +0.030 C 
ATOM     30  C   LIG    1      -10.382  -1.218  -3.954  0.00  0.00    +0.030 C 
ATOM     31  C   LIG    1       -8.186  -2.288  -3.427  0.00  0.00    +0.030 C 
ENDBRANCH  28  29
ENDBRANCH  21  22
ENDBRANCH  20  21
ENDBRANCH  19  20
ENDBRANCH   9  19
TORSDOF 8
