REMARK  Name = ZINCpk000005ZqSp.0
REMARK                            x       y       z     vdW  Elec       q    Type
REMARK                         _______ _______ _______ _____ _____    ______ ____
ROOT
ATOM      1  O   LIG    1       -6.863  -1.030   0.677  0.00  0.00    -0.480 OA
ATOM      2  C   LIG    1       -6.151  -1.649  -0.085  0.00  0.00    +0.520 C 
ATOM      3  C   LIG    1       -6.205  -3.155  -0.113  0.00  0.00    +0.080 C 
ATOM      4  C   LIG    1       -5.968  -3.641  -1.545  0.00  0.00    +0.300 C 
ATOM      5  N   LIG    1       -4.817  -2.938  -2.115  0.00  0.00    -0.610 N 
ATOM      6  C   LIG    1       -4.582  -1.650  -1.822  0.00  0.00    +0.710 C 
ATOM      7  O   LIG    1       -3.684  -1.066  -2.396  0.00  0.00    -0.540 OA
ATOM      8  N   LIG    1       -5.311  -0.991  -0.906  0.00  0.00    -0.570 N 
ENDROOT
BRANCH   5   9
ATOM      9  C   LIG    1       -3.914  -3.649  -3.023  0.00  0.00    +0.370 C 
BRANCH   9  10
ATOM     10  C   LIG    1       -4.399  -3.490  -4.441  0.00  0.00    -0.070 A 
ATOM     11  C   LIG    1       -5.283  -4.403  -4.995  0.00  0.00    -0.030 A 
ATOM     12  C   LIG    1       -5.710  -4.223  -6.298  0.00  0.00    +0.260 A 
ATOM     13  N   LIG    1       -5.279  -3.203  -7.013  0.00  0.00    -0.480 NA
ATOM     14  C   LIG    1       -4.435  -2.317  -6.521  0.00  0.00    +0.260 A 
ATOM     15  C   LIG    1       -3.968  -2.430  -5.224  0.00  0.00    +0.000 A 
ENDBRANCH   9  10
ENDBRANCH   5   9
BRANCH   8  16
ATOM     16  C   LIG    1       -5.196   0.466  -0.803  0.00  0.00    +0.440 C 
BRANCH  16  17
ATOM     17  C   LIG    1       -4.110   0.816   0.181  0.00  0.00    +0.010 A 
ATOM     18  N   LIG    1       -4.245   1.000   1.469  0.00  0.00    -0.340 NA
ATOM     19  O   LIG    1       -3.184   1.273   1.998  0.00  0.00    +0.120 OA
ATOM     20  C   LIG    1       -2.197   1.300   1.110  0.00  0.00    -0.030 A 
ATOM     21  C   LIG    1       -0.728   1.580   1.275  0.00  0.00    +0.130 C 
ATOM     22  C   LIG    1       -0.013   1.086   0.008  0.00  0.00    +0.230 C 
ATOM     23  O   LIG    1       -0.701   1.558  -1.153  0.00  0.00    -0.380 OA
ATOM     24  C   LIG    1       -1.978   0.941  -1.378  0.00  0.00    +0.350 C 
ATOM     25  C   LIG    1       -2.754   1.010  -0.095  0.00  0.00    -0.220 A 
ENDBRANCH  16  17
ENDBRANCH   8  16
TORSDOF 4
