REMARK  Name = ZINCpk00000F9P3i.0
REMARK                            x       y       z     vdW  Elec       q    Type
REMARK                         _______ _______ _______ _____ _____    ______ ____
ROOT
ATOM      1  O   LIG    1        3.912   6.928  -1.323  0.00  0.00    -0.460 OA
ATOM      2  C   LIG    1        3.558   5.810  -1.015  0.00  0.00    +0.560 C 
ATOM      3  C   LIG    1        2.492   5.478   0.006  0.00  0.00    -0.030 C 
ATOM      4  C   LIG    1        2.893   4.690   1.255  0.00  0.00    +0.190 C 
ATOM      5  C   LIG    1        2.451   3.937  -0.001  0.00  0.00    -0.140 C 
ATOM      6  C   LIG    1        3.490   3.559  -1.035  0.00  0.00    +0.570 C 
ATOM      7  O   LIG    1        3.781   2.428  -1.357  0.00  0.00    -0.460 OA
ATOM      8  N   LIG    1        4.048   4.673  -1.524  0.00  0.00    -0.560 N 
ENDROOT
BRANCH   5   9
ATOM      9  C   LIG    1        1.156   3.165   0.008  0.00  0.00    -0.050 A 
ATOM     10  C   LIG    1        1.175   1.783   0.000  0.00  0.00    +0.040 A 
ATOM     11  C   LIG    1       -0.013   1.076   0.008  0.00  0.00    +0.010 A 
ATOM     12  C   LIG    1       -1.219   1.751   0.017  0.00  0.00    +0.020 A 
ATOM     13  C   LIG    1       -1.238   3.133   0.030  0.00  0.00    +0.010 A 
ATOM     14  C   LIG    1       -0.050   3.840   0.022  0.00  0.00    +0.010 A 
ENDBRANCH   5   9
BRANCH   8  15
ATOM     15  C   LIG    1        5.101   4.650  -2.543  0.00  0.00    +0.280 C 
BRANCH  15  16
ATOM     16  C   LIG    1        6.470   4.611  -1.861  0.00  0.00    +0.210 C 
BRANCH  16  17
ATOM     17  O   LIG    1        6.627   5.771  -1.041  0.00  0.00    -0.540 OA
ATOM     18  H   LIG    1        6.573   6.606  -1.526  0.00  0.00    +0.380 HD
ENDBRANCH  16  17
BRANCH  16  19
ATOM     19  C   LIG    1        7.569   4.588  -2.926  0.00  0.00    +0.160 C 
BRANCH  19  20
ATOM     20  O   LIG    1        8.841   4.434  -2.293  0.00  0.00    -0.370 OA
BRANCH  20  21
ATOM     21  C   LIG    1        9.943   4.399  -3.203  0.00  0.00    +0.290 C 
BRANCH  21  22
ATOM     22  C   LIG    1       11.227   4.236  -2.432  0.00  0.00    -0.020 A 
ATOM     23  C   LIG    1       11.800   3.065  -2.098  0.00  0.00    -0.030 A 
ATOM     24  C   LIG    1       12.982   3.376  -1.387  0.00  0.00    -0.070 A 
ATOM     25  C   LIG    1       13.056   4.718  -1.321  0.00  0.00    +0.180 A 
ATOM     26  O   LIG    1       11.990   5.233  -1.956  0.00  0.00    -0.170 OA
ENDBRANCH  21  22
ENDBRANCH  20  21
ENDBRANCH  19  20
ENDBRANCH  16  19
ENDBRANCH  15  16
ENDBRANCH   8  15
TORSDOF 8
