REMARK  Name = ZINC9l0000002Kki.0
REMARK                            x       y       z     vdW  Elec       q    Type
REMARK                         _______ _______ _______ _____ _____    ______ ____
ROOT
ATOM      1  C   LIG    1       -1.330   1.951   0.019  0.00  0.00    -0.010 C 
ATOM      2  S   LIG    1       -2.280   1.500  -1.453  0.00  0.00    -0.150 S 
ATOM      3  C   LIG    1       -3.879   2.307  -1.191  0.00  0.00    +0.160 C 
ATOM      4  S   LIG    1       -3.680   4.106  -1.227  0.00  0.00    -0.230 S 
ATOM      5  C   LIG    1       -2.669   4.451   0.234  0.00  0.00    +0.130 C 
ATOM      6  S   LIG    1       -1.019   3.733   0.036  0.00  0.00    -0.120 S 
ENDROOT
BRANCH   1   8
ATOM      7  O   LIG    1        0.002  -0.004   0.002  0.00  0.00    -0.660 OA
ATOM      8  C   LIG    1       -0.015   1.215   0.009  0.00  0.00    +0.530 C 
ATOM      9  O   LIG    1        1.033   1.839   0.002  0.00  0.00    -0.650 OA
ENDBRANCH   1   8
TORSDOF 1
