REMARK  Name = ZINCvU0000000BqC.0
REMARK                            x       y       z     vdW  Elec       q    Type
REMARK                         _______ _______ _______ _____ _____    ______ ____
ROOT
ATOM      1  N   LIG    1        4.392   5.517  -0.672  0.00  0.00    -0.510 N 
ATOM      2  C   LIG    1        4.794   4.241  -0.507  0.00  0.00    +0.570 C 
ATOM      3  C   LIG    1        3.635   3.375  -0.234  0.00  0.00    +0.100 A 
ATOM      4  C   LIG    1        2.510   4.150  -0.240  0.00  0.00    -0.240 A 
ATOM      5  C   LIG    1        1.186   3.564  -0.004  0.00  0.00    +0.460 A 
ATOM      6  C   LIG    1        1.186   2.079   0.002  0.00  0.00    -0.200 A 
ATOM      7  C   LIG    1       -0.017   1.374   0.010  0.00  0.00    +0.140 A 
ATOM      8  C   LIG    1        0.002  -0.004   0.002  0.00  0.00    -0.060 A 
ATOM      9  C   LIG    1        1.213  -0.683  -0.012  0.00  0.00    +0.120 A 
ATOM     10  C   LIG    1        2.407   0.004  -0.016  0.00  0.00    +0.040 A 
ATOM     11 CL   LIG    1       -1.490  -0.892   0.011  0.00  0.00    -0.040 Cl
ATOM     12  C   LIG    1        2.414   1.398  -0.008  0.00  0.00    +0.150 A 
ATOM     13  O   LIG    1        0.183   4.232   0.171  0.00  0.00    -0.420 OA
ATOM     14  O   LIG    1        3.601   2.047  -0.006  0.00  0.00    -0.180 OA
ATOM     15  O   LIG    1        5.946   3.860  -0.575  0.00  0.00    -0.440 OA
ATOM     16  C   LIG    1        2.928   5.557  -0.515  0.00  0.00    +0.370 C 
ENDROOT
BRANCH   1  20
ATOM     17  C   LIG    1        6.149  10.107  -1.503  0.00  0.00    +0.190 C 
ATOM     18  C   LIG    1        5.979   8.622  -1.306  0.00  0.00    -0.010 A 
ATOM     19  C   LIG    1        4.827   7.971  -1.030  0.00  0.00    -0.060 A 
ATOM     20  C   LIG    1        5.216   6.607  -0.944  0.00  0.00    +0.270 A 
ATOM     21  N   LIG    1        6.503   6.580  -1.176  0.00  0.00    -0.360 NA
ATOM     22  O   LIG    1        6.939   7.689  -1.379  0.00  0.00    +0.110 OA
ENDBRANCH   1  20
BRANCH  16  23
ATOM     23  C   LIG    1        2.281   6.054  -1.782  0.00  0.00    -0.110 A 
ATOM     24  C   LIG    1        2.812   5.708  -3.011  0.00  0.00    +0.020 A 
ATOM     25  C   LIG    1        2.216   6.160  -4.173  0.00  0.00    +0.010 A 
ATOM     26  C   LIG    1        1.095   6.966  -4.107  0.00  0.00    -0.060 A 
ATOM     27  C   LIG    1        0.567   7.316  -2.878  0.00  0.00    +0.020 A 
ATOM     28  C   LIG    1        1.161   6.861  -1.716  0.00  0.00    +0.050 A 
BRANCH  26  29
ATOM     29  C   LIG    1        0.448   7.463  -5.374  0.00  0.00    +0.020 C 
ATOM     30  C   LIG    1       -0.004   6.269  -6.218  0.00  0.00    +0.030 C 
ATOM     31  C   LIG    1        1.456   8.296  -6.168  0.00  0.00    +0.040 C 
ENDBRANCH  26  29
ENDBRANCH  16  23
TORSDOF 3
