REMARK  Name = ZINCvU0000000DGh.0
REMARK                            x       y       z     vdW  Elec       q    Type
REMARK                         _______ _______ _______ _____ _____    ______ ____
ROOT
ATOM      1  N   LIG    1       -2.448   1.981   0.025  0.00  0.00    -0.730 N 
ATOM      2  H   LIG    1       -2.516   1.013   0.021  0.00  0.00    +0.400 HD
ATOM      3  C   LIG    1       -1.237   2.571   0.022  0.00  0.00    +0.600 C 
ATOM      4  O   LIG    1       -1.152   3.785   0.028  0.00  0.00    -0.520 OA
ENDROOT
BRANCH   3   5
ATOM      5  C   LIG    1       -0.022   1.752   0.012  0.00  0.00    -0.270 A 
ATOM      6  C   LIG    1        1.229   2.237   0.002  0.00  0.00    +0.190 A 
ATOM      7  C   LIG    1        2.245   1.273  -0.013  0.00  0.00    -0.210 A 
ATOM      8  C   LIG    1        1.761  -0.025  -0.015  0.00  0.00    +0.030 A 
ATOM      9  N   LIG    1        2.842  -0.866  -0.030  0.00  0.00    -0.300 N 
ATOM     10  N   LIG    1        4.000  -0.083  -0.037  0.00  0.00    -0.250 NA
ATOM     11  C   LIG    1        3.672   1.174  -0.027  0.00  0.00    +0.150 A 
ATOM     12  C   LIG    1        4.634   2.334  -0.030  0.00  0.00    +0.180 C 
ATOM     13  S   LIG    1        0.002  -0.004   0.002  0.00  0.00    +0.200 S 
BRANCH   9  14
ATOM     14  C   LIG    1        2.796  -2.266  -0.036  0.00  0.00    +0.160 A 
ATOM     15  C   LIG    1        1.799  -2.932   0.665  0.00  0.00    +0.020 A 
ATOM     16  C   LIG    1        1.753  -4.313   0.653  0.00  0.00    +0.070 A 
ATOM     17  C   LIG    1        2.705  -5.032  -0.048  0.00  0.00    -0.040 A 
ATOM     18  C   LIG    1        3.702  -4.371  -0.743  0.00  0.00    +0.060 A 
ATOM     19 CL   LIG    1        2.648  -6.767  -0.054  0.00  0.00    -0.050 Cl
ATOM     20  C   LIG    1        3.750  -2.991  -0.739  0.00  0.00    +0.050 A 
ENDBRANCH   9  14
ENDBRANCH   3   5
BRANCH   1  21
ATOM     21  C   LIG    1       -3.663   2.800   0.036  0.00  0.00    +0.270 C 
BRANCH  21  22
ATOM     22  C   LIG    1       -4.892   1.890   0.038  0.00  0.00    +0.070 C 
BRANCH  22  26
ATOM     23  C   LIG    1       -8.438   4.281   0.074  0.00  0.00    +0.100 A 
ATOM     24  C   LIG    1       -7.854   3.885   1.266  0.00  0.00    -0.030 A 
ATOM     25  C   LIG    1       -6.710   3.107   1.251  0.00  0.00    +0.020 A 
ATOM     26  C   LIG    1       -6.141   2.733   0.048  0.00  0.00    -0.080 A 
ATOM     27  C   LIG    1       -6.720   3.125  -1.145  0.00  0.00    -0.030 A 
ATOM     28  C   LIG    1       -7.868   3.899  -1.137  0.00  0.00    +0.100 A 
BRANCH  23  30
ATOM     29  C   LIG    1      -10.094   5.395   1.367  0.00  0.00    +0.250 C 
ATOM     30  O   LIG    1       -9.566   5.041   0.087  0.00  0.00    -0.310 OA
ENDBRANCH  23  30
BRANCH  28  31
ATOM     31  O   LIG    1       -8.438   4.286  -2.310  0.00  0.00    -0.310 OA
ATOM     32  C   LIG    1       -7.798   3.857  -3.514  0.00  0.00    +0.240 C 
ENDBRANCH  28  31
ENDBRANCH  22  26
ENDBRANCH  21  22
ENDBRANCH   1  21
TORSDOF 7
