REMARK  Name = ZINCtV000002MvWN.0
REMARK                            x       y       z     vdW  Elec       q    Type
REMARK                         _______ _______ _______ _____ _____    ______ ____
ROOT
ATOM      1  O   LIG    1       -1.112  -0.577  -2.324  0.00  0.00    -0.480 OA
ATOM      2  C   LIG    1       -1.677  -1.128  -1.403  0.00  0.00    +0.510 C 
ATOM      3  N   LIG    1       -2.741  -1.920  -1.642  0.00  0.00    -0.620 N 
ATOM      4  H   LIG    1       -3.193  -2.361  -0.905  0.00  0.00    +0.430 HD
ENDROOT
BRANCH   3   5
ATOM      5  C   LIG    1       -3.190  -2.106  -2.944  0.00  0.00    +0.270 A 
ATOM      6  N   LIG    1       -4.199  -2.843  -3.290  0.00  0.00    -0.480 NA
ATOM      7  C   LIG    1       -4.485  -2.903  -4.583  0.00  0.00    +0.120 A 
ATOM      8  C   LIG    1       -3.681  -2.182  -5.385  0.00  0.00    -0.110 A 
ATOM      9  S   LIG    1       -2.482  -1.372  -4.379  0.00  0.00    +0.200 S 
BRANCH   7  10
ATOM     10  C   LIG    1       -5.613  -3.709  -5.109  0.00  0.00    -0.010 A 
ATOM     11  C   LIG    1       -5.877  -3.735  -6.477  0.00  0.00    +0.040 A 
ATOM     12  C   LIG    1       -6.925  -4.491  -6.962  0.00  0.00    +0.010 A 
ATOM     13  C   LIG    1       -7.720  -5.214  -6.091  0.00  0.00    +0.030 A 
ATOM     14  C   LIG    1       -7.468  -5.189  -4.731  0.00  0.00    +0.020 A 
ATOM     15  C   LIG    1       -6.418  -4.441  -4.236  0.00  0.00    -0.010 A 
ATOM     16 CL   LIG    1       -6.102  -4.410  -2.529  0.00  0.00    -0.040 Cl
ENDBRANCH   7  10
ENDBRANCH   3   5
BRANCH   2  17
ATOM     17  C   LIG    1       -1.190  -0.926   0.009  0.00  0.00    +0.180 C 
BRANCH  17  18
ATOM     18  C   LIG    1        0.002  -0.004   0.002  0.00  0.00    -0.160 A 
ATOM     19  C   LIG    1        1.298  -0.359  -0.012  0.00  0.00    +0.230 A 
ATOM     20  O   LIG    1        2.072   0.738  -0.014  0.00  0.00    -0.170 OA
ATOM     21  C   LIG    1        1.321   1.858  -0.001  0.00  0.00    +0.040 A 
ATOM     22  C   LIG    1        1.639   3.221   0.004  0.00  0.00    +0.040 A 
ATOM     23  C   LIG    1        0.677   4.176   0.018  0.00  0.00    +0.060 A 
ATOM     24  C   LIG    1       -0.689   3.835   0.030  0.00  0.00    -0.060 A 
ATOM     25  C   LIG    1       -1.688   4.821   0.045  0.00  0.00    +0.040 A 
ATOM     26  C   LIG    1       -3.000   4.454   0.055  0.00  0.00    +0.010 A 
ATOM     27  C   LIG    1       -3.367   3.111   0.051  0.00  0.00    +0.010 A 
ATOM     28  C   LIG    1       -2.422   2.128   0.037  0.00  0.00    +0.010 A 
ATOM     29  C   LIG    1       -1.066   2.470   0.020  0.00  0.00    -0.000 A 
ATOM     30  C   LIG    1       -0.018   1.457   0.010  0.00  0.00    -0.110 A 
ENDBRANCH  17  18
ENDBRANCH   2  17
TORSDOF 4
