REMARK  Name = ZINCpk00000y6xx9.0
REMARK                            x       y       z     vdW  Elec       q    Type
REMARK                         _______ _______ _______ _____ _____    ______ ____
ROOT
ATOM      1  C   LIG    1       -2.005   0.699   6.299  0.00  0.00    +0.520 C 
ATOM      2  N   LIG    1       -2.616   0.797   7.496  0.00  0.00    -0.610 N 
ATOM      3  C   LIG    1       -2.275   1.883   8.424  0.00  0.00    +0.260 C 
ATOM      4  C   LIG    1       -3.561   2.613   8.823  0.00  0.00    +0.030 C 
ATOM      5  C   LIG    1       -4.565   1.602   9.382  0.00  0.00    +0.050 C 
ATOM      6  C   LIG    1       -4.909   0.573   8.302  0.00  0.00    +0.140 C 
ATOM      7  C   LIG    1       -3.642  -0.177   7.894  0.00  0.00    +0.270 C 
ATOM      8  O   LIG    1       -2.296  -0.203   5.541  0.00  0.00    -0.530 OA
ENDROOT
BRANCH   6   9
ATOM      9  O   LIG    1       -5.451   1.242   7.161  0.00  0.00    -0.530 OA
ATOM     10  H   LIG    1       -5.692   0.649   6.436  0.00  0.00    +0.370 HD
ENDBRANCH   6   9
BRANCH   1  11
ATOM     11  C   LIG    1       -0.959   1.709   5.902  0.00  0.00    +0.120 C 
BRANCH  11  16
ATOM     12  C   LIG    1       -0.562   1.604   2.146  0.00  0.00    +0.130 A 
ATOM     13  C   LIG    1        0.528   0.757   2.009  0.00  0.00    -0.080 A 
ATOM     14  C   LIG    1        1.138   0.230   3.131  0.00  0.00    +0.050 A 
ATOM     15  C   LIG    1        0.655   0.538   4.390  0.00  0.00    -0.020 A 
ATOM     16  C   LIG    1       -0.435   1.377   4.529  0.00  0.00    -0.030 A 
ATOM     17  C   LIG    1       -1.045   1.910   3.410  0.00  0.00    -0.010 A 
BRANCH  12  18
ATOM     18  O   LIG    1       -1.159   2.127   1.043  0.00  0.00    -0.310 OA
BRANCH  18  19
ATOM     19  C   LIG    1       -0.609   1.769  -0.226  0.00  0.00    +0.230 C 
BRANCH  19  22
ATOM     20  C   LIG    1       -1.557   3.694  -3.411  0.00  0.00    +0.070 C 
ATOM     21  C   LIG    1       -0.770   3.023  -2.314  0.00  0.00    -0.030 C 
ATOM     22  C   LIG    1       -1.395   2.439  -1.323  0.00  0.00    -0.050 C 
ENDBRANCH  19  22
ENDBRANCH  18  19
ENDBRANCH  12  18
ENDBRANCH  11  16
ENDBRANCH   1  11
BRANCH   6  23
ATOM     23  C   LIG    1       -5.938  -0.418   8.850  0.00  0.00    +0.030 C 
BRANCH  23  24
ATOM     24  C   LIG    1       -7.211   0.315   9.185  0.00  0.00    +0.520 C 
ATOM     25  O   LIG    1       -7.330   1.487   8.899  0.00  0.00    -0.520 OA
ATOM     26  N   LIG    1       -8.218  -0.333   9.803  0.00  0.00    -0.860 N 
ATOM     27  H   LIG    1       -9.038   0.138  10.019  0.00  0.00    +0.400 HD
ATOM     28  H   LIG    1       -8.124  -1.271  10.032  0.00  0.00    +0.400 HD
ENDBRANCH  23  24
ENDBRANCH   6  23
TORSDOF 8
