REMARK  Name = ZINCrH000004maCL.0
REMARK                            x       y       z     vdW  Elec       q    Type
REMARK                         _______ _______ _______ _____ _____    ______ ____
ROOT
ATOM      1  N   LIG    1        3.626  -0.649  -0.037  0.00  0.00    -0.680 N 
ATOM      2  H   LIG    1        3.643  -1.616   0.035  0.00  0.00    +0.410 HD
ATOM      3  C   LIG    1        4.779   0.040  -0.146  0.00  0.00    +0.710 C 
ATOM      4  N   LIG    1        5.949  -0.619  -0.263  0.00  0.00    -0.730 N 
ATOM      5  H   LIG    1        5.961  -1.589  -0.268  0.00  0.00    +0.400 HD
ATOM      6  O   LIG    1        4.764   1.255  -0.139  0.00  0.00    -0.560 OA
ENDROOT
BRANCH   1  11
ATOM      7  C   LIG    1        1.036   1.865  -0.759  0.00  0.00    +0.180 A 
ATOM      8  C   LIG    1       -0.021   1.376  -0.006  0.00  0.00    -0.120 A 
ATOM      9  C   LIG    1        0.133   0.216   0.734  0.00  0.00    +0.160 A 
ATOM     10  C   LIG    1        1.342  -0.456   0.725  0.00  0.00    -0.080 A 
ATOM     11  C   LIG    1        2.403   0.031  -0.028  0.00  0.00    +0.240 A 
ATOM     12  F   LIG    1       -0.897  -0.258   1.467  0.00  0.00    -0.130 F 
ATOM     13  C   LIG    1        2.249   1.193  -0.770  0.00  0.00    -0.020 A 
BRANCH   7  15
ATOM     14  C   LIG    1       -0.392   3.644  -1.427  0.00  0.00    +0.240 C 
ATOM     15  O   LIG    1        0.884   3.004  -1.485  0.00  0.00    -0.310 OA
ENDBRANCH   7  15
ENDBRANCH   1  11
BRANCH   4  16
ATOM     16  C   LIG    1        7.203   0.130  -0.381  0.00  0.00    +0.300 C 
ATOM     17  C   LIG    1        7.714   0.492   1.015  0.00  0.00    +0.040 C 
BRANCH  16  18
ATOM     18  C   LIG    1        8.229  -0.718  -1.088  0.00  0.00    -0.020 A 
ATOM     19  C   LIG    1        8.323  -2.067  -0.803  0.00  0.00    -0.100 A 
ATOM     20  C   LIG    1        9.262  -2.852  -1.456  0.00  0.00    +0.160 A 
ATOM     21  C   LIG    1       10.117  -2.277  -2.389  0.00  0.00    +0.030 A 
ATOM     22  C   LIG    1       10.023  -0.919  -2.668  0.00  0.00    +0.160 A 
ATOM     23  C   LIG    1        9.077  -0.143  -2.015  0.00  0.00    -0.080 A 
BRANCH  22  24
ATOM     24  O   LIG    1       10.857  -0.352  -3.580  0.00  0.00    -0.300 OA
ATOM     25  C   LIG    1       10.704   1.049  -3.817  0.00  0.00    +0.250 C 
ENDBRANCH  22  24
BRANCH  21  26
ATOM     26  O   LIG    1       11.043  -3.043  -3.028  0.00  0.00    -0.310 OA
ATOM     27  C   LIG    1       12.326  -3.159  -2.410  0.00  0.00    +0.210 C 
ENDBRANCH  21  26
BRANCH  20  28
ATOM     28  O   LIG    1        9.351  -4.180  -1.179  0.00  0.00    -0.300 OA
ATOM     29  C   LIG    1        8.440  -4.702  -0.209  0.00  0.00    +0.250 C 
ENDBRANCH  20  28
ENDBRANCH  16  18
ENDBRANCH   4  16
TORSDOF 7
