REMARK  Name = ZINCqH0000033Q5H.1
REMARK                            x       y       z     vdW  Elec       q    Type
REMARK                         _______ _______ _______ _____ _____    ______ ____
ROOT
ATOM      1  C   LIG    1        1.273   1.168  -0.593  0.00  0.00    +0.010 C 
ATOM      2  C   LIG    1        1.333   2.064  -1.832  0.00  0.00    +0.030 C 
ATOM      3  C   LIG    1        2.394   3.149  -1.622  0.00  0.00    +0.280 C 
ATOM      4  N   LIG    1        3.670   2.503  -1.282  0.00  0.00    -0.610 N 
ATOM      5  C   LIG    1        3.704   1.551  -0.164  0.00  0.00    +0.290 C 
ATOM      6  C   LIG    1        4.787   2.777  -1.985  0.00  0.00    +0.560 C 
ATOM      7  O   LIG    1        5.849   2.290  -1.652  0.00  0.00    -0.520 OA
ATOM      8  C   LIG    1        2.628   0.485  -0.390  0.00  0.00    +0.050 C 
ENDROOT
BRANCH   6   9
ATOM      9  C   LIG    1        4.720   3.672  -3.159  0.00  0.00    -0.120 A 
ATOM     10  C   LIG    1        5.277   3.274  -4.376  0.00  0.00    +0.080 A 
ATOM     11  C   LIG    1        5.208   4.111  -5.470  0.00  0.00    +0.030 A 
ATOM     12  C   LIG    1        4.595   5.348  -5.361  0.00  0.00    -0.020 A 
ATOM     13  C   LIG    1        4.045   5.751  -4.155  0.00  0.00    +0.030 A 
ATOM     14 CL   LIG    1        4.517   6.399  -6.740  0.00  0.00    -0.060 Cl
ATOM     15  C   LIG    1        4.104   4.920  -3.055  0.00  0.00    +0.060 A 
ENDBRANCH   6   9
BRANCH   1  18
ATOM     16  N   LIG    1       -1.073   0.491  -0.985  0.00  0.00    -0.630 N 
ATOM     17  H   LIG    1       -1.308   1.432  -1.005  0.00  0.00    +0.430 HD
ATOM     18  C   LIG    1        0.206   0.120  -0.782  0.00  0.00    +0.510 C 
ATOM     19  O   LIG    1        0.500  -1.056  -0.757  0.00  0.00    -0.460 OA
BRANCH  16  23
ATOM     20  C   LIG    1       -4.035  -1.918  -1.518  0.00  0.00    -0.010 A 
ATOM     21  N   LIG    1       -2.885  -2.500  -1.341  0.00  0.00    -0.240 NA
ATOM     22  N   LIG    1       -1.876  -1.763  -1.167  0.00  0.00    -0.250 NA
ATOM     23  C   LIG    1       -2.058  -0.477  -1.165  0.00  0.00    +0.250 A 
ATOM     24  S   LIG    1       -3.775  -0.174  -1.441  0.00  0.00    +0.120 S 
BRANCH  20  25
ATOM     25  S   LIG    1       -5.577  -2.728  -1.787  0.00  0.00    +0.020 S 
BRANCH  25  27
ATOM     26  C   LIG    1       -6.380  -5.336  -1.970  0.00  0.00    +0.080 C 
ATOM     27  C   LIG    1       -5.128  -4.485  -1.748  0.00  0.00    +0.090 C 
ENDBRANCH  25  27
ENDBRANCH  20  25
ENDBRANCH  16  23
ENDBRANCH   1  18
TORSDOF 5
