REMARK  Name = ZINCnE000001QW6L.0
REMARK                            x       y       z     vdW  Elec       q    Type
REMARK                         _______ _______ _______ _____ _____    ______ ____
ROOT
ATOM      1  C   LIG    1        4.585   3.006   1.475  0.00  0.00    +0.160 C 
ATOM      2  C   LIG    1        3.389   2.652   0.628  0.00  0.00    +0.180 A 
ATOM      3  N   LIG    1        3.317   2.759  -0.670  0.00  0.00    -0.490 NA
ATOM      4  C   LIG    1        2.106   2.355  -1.083  0.00  0.00    +0.130 A 
ATOM      5  C   LIG    1        1.396   1.982  -0.001  0.00  0.00    +0.030 A 
ATOM      6  N   LIG    1        2.204   2.175   1.090  0.00  0.00    -0.410 N 
ENDROOT
BRANCH   6   7
ATOM      7  C   LIG    1        1.872   1.923   2.429  0.00  0.00    +0.140 A 
ATOM      8  C   LIG    1        0.875   2.663   3.049  0.00  0.00    +0.030 A 
ATOM      9  C   LIG    1        0.547   2.410   4.367  0.00  0.00    +0.030 A 
ATOM     10  C   LIG    1        1.217   1.426   5.071  0.00  0.00    +0.010 A 
ATOM     11  C   LIG    1        2.213   0.690   4.457  0.00  0.00    +0.010 A 
ATOM     12  C   LIG    1        2.543   0.936   3.138  0.00  0.00    +0.010 A 
ENDBRANCH   6   7
BRANCH   5  13
ATOM     13  C   LIG    1       -0.018   1.461   0.010  0.00  0.00    +0.280 C 
BRANCH  13  14
ATOM     14  N   LIG    1        0.002  -0.004   0.002  0.00  0.00    -0.690 NA
ATOM     15  C   LIG    1       -0.458  -0.669   1.029  0.00  0.00    +0.440 A 
ATOM     16  N   LIG    1       -0.986  -0.138   2.176  0.00  0.00    -0.530 NA
ATOM     17  N   LIG    1       -1.344  -1.224   2.989  0.00  0.00    -0.300 NA
ATOM     18  C   LIG    1       -1.045  -2.311   2.360  0.00  0.00    +0.090 A 
ATOM     19  O   LIG    1       -0.508  -2.011   1.160  0.00  0.00    -0.300 OA
BRANCH  18  20
ATOM     20  C   LIG    1       -1.268  -3.706   2.885  0.00  0.00    +0.040 C 
ATOM     21  C   LIG    1        0.072  -4.438   2.974  0.00  0.00    +0.030 C 
ATOM     22  C   LIG    1       -2.201  -4.464   1.938  0.00  0.00    +0.030 C 
ATOM     23  C   LIG    1       -1.902  -3.632   4.275  0.00  0.00    +0.050 C 
ENDBRANCH  18  20
ENDBRANCH  13  14
ENDBRANCH   5  13
TORSDOF 4
