REMARK  Name = ZINCqH00000039wh.1
REMARK                            x       y       z     vdW  Elec       q    Type
REMARK                         _______ _______ _______ _____ _____    ______ ____
ROOT
ATOM      1  N   LIG    1        2.792  -0.402   2.536  0.00  0.00    -0.940 N 
ENDROOT
BRANCH   1   5
ATOM      2  N   LIG    1        1.653   2.969   0.279  0.00  0.00    -0.540 NA
ATOM      3  C   LIG    1        3.091   2.788   0.511  0.00  0.00    +0.170 C 
ATOM      4  C   LIG    1        3.303   1.839   1.694  0.00  0.00    +0.020 C 
ATOM      5  C   LIG    1        2.643   0.492   1.385  0.00  0.00    +0.240 C 
ATOM      6  C   LIG    1        1.155   0.715   1.099  0.00  0.00    +0.030 C 
ATOM      7  C   LIG    1        1.006   1.696  -0.066  0.00  0.00    +0.180 C 
BRANCH   2   9
ATOM      8  C   LIG    1        1.879   5.348  -0.257  0.00  0.00    +0.020 C 
ATOM      9  C   LIG    1        1.411   3.980  -0.759  0.00  0.00    +0.160 C 
ENDBRANCH   2   9
ENDBRANCH   1   5
BRANCH   1  10
ATOM     10  C   LIG    1        2.291  -0.024   3.784  0.00  0.00    +0.140 A 
ATOM     11  C   LIG    1        0.979  -0.323   4.128  0.00  0.00    +0.030 A 
ATOM     12  C   LIG    1        0.489   0.048   5.364  0.00  0.00    +0.020 A 
ATOM     13  C   LIG    1        1.300   0.727   6.256  0.00  0.00    +0.020 A 
ATOM     14  C   LIG    1        2.605   1.031   5.914  0.00  0.00    +0.020 A 
ATOM     15  C   LIG    1        3.103   0.658   4.681  0.00  0.00    +0.010 A 
ENDBRANCH   1  10
BRANCH   1  16
ATOM     16  S   LIG    1        3.553  -1.862   2.357  0.00  0.00    +2.720 S 
ATOM     17  O   LIG    1        3.498  -2.176   0.972  0.00  0.00    -0.940 OA
ATOM     18  O   LIG    1        3.031  -2.713   3.369  0.00  0.00    -0.930 OA
BRANCH  16  19
ATOM     19  C   LIG    1        5.254  -1.614   2.744  0.00  0.00    -0.850 A 
ATOM     20  C   LIG    1        5.810  -1.730   3.953  0.00  0.00    +0.380 A 
ATOM     21  N   LIG    1        7.107  -1.497   3.983  0.00  0.00    -0.490 NA
ATOM     22  C   LIG    1        7.674  -1.181   2.867  0.00  0.00    +0.120 A 
ATOM     23  S   LIG    1        6.520  -1.162   1.605  0.00  0.00    +0.250 S 
BRANCH  22  24
ATOM     24  C   LIG    1        9.140  -0.875   2.701  0.00  0.00    +0.010 C 
ATOM     25  C   LIG    1       10.056  -1.137   3.897  0.00  0.00    +0.080 C 
ATOM     26  C   LIG    1        9.711   0.299   3.498  0.00  0.00    +0.060 C 
ENDBRANCH  22  24
ENDBRANCH  16  19
ENDBRANCH   1  16
TORSDOF 6
