REMARK  Name = ZINCpe00000VVGyG.0
REMARK                            x       y       z     vdW  Elec       q    Type
REMARK                         _______ _______ _______ _____ _____    ______ ____
ROOT
ATOM      1  N   LIG    1        0.139  -6.668   5.121  0.00  0.00    -0.100 NA
ATOM      2  C   LIG    1        0.157  -7.969   5.283  0.00  0.00    +0.060 C 
ATOM      3  C   LIG    1        0.155  -9.007   4.232  0.00  0.00    +0.550 C 
ATOM      4  N   LIG    1        0.183 -10.207   4.838  0.00  0.00    -0.640 N 
ATOM      5  H   LIG    1        0.190 -11.055   4.368  0.00  0.00    +0.430 HD
ATOM      6  C   LIG    1        0.194 -10.077   6.223  0.00  0.00    +0.180 A 
ATOM      7  C   LIG    1        0.217 -11.026   7.240  0.00  0.00    -0.090 A 
ATOM      8  C   LIG    1        0.223 -10.627   8.562  0.00  0.00    +0.090 A 
ATOM      9  C   LIG    1        0.207  -9.281   8.893  0.00  0.00    +0.090 A 
ATOM     10  C   LIG    1        0.186  -8.324   7.895  0.00  0.00    +0.110 A 
ATOM     11  F   LIG    1        0.214  -8.905  10.190  0.00  0.00    -0.120 F 
ATOM     12 BR   LIG    1        0.239 -12.868   6.810  0.00  0.00    -0.020 Br
ATOM     13  O   LIG    1        0.135  -8.810   3.032  0.00  0.00    -0.490 OA
ATOM     14  C   LIG    1        0.179  -8.718   6.561  0.00  0.00    -0.060 A 
ENDROOT
BRANCH   1  16
ATOM     15  C   LIG    1        0.100  -4.787   3.663  0.00  0.00    +0.530 C 
ATOM     16  N   LIG    1        0.119  -6.124   3.830  0.00  0.00    -0.570 N 
ATOM     17  H   LIG    1        0.120  -6.710   3.057  0.00  0.00    +0.410 HD
ATOM     18  O   LIG    1        0.099  -4.055   4.629  0.00  0.00    -0.460 OA
BRANCH  15  19
ATOM     19  C   LIG    1        0.079  -4.202   2.274  0.00  0.00    +0.250 C 
BRANCH  19  20
ATOM     20  O   LIG    1        0.061  -2.775   2.359  0.00  0.00    -0.290 OA
BRANCH  20  26
ATOM     21  C   LIG    1       -0.018   1.503   0.010  0.00  0.00    +0.100 C 
ATOM     22  C   LIG    1        0.002  -0.004   0.002  0.00  0.00    -0.040 A 
ATOM     23  C   LIG    1       -0.006  -0.688  -1.199  0.00  0.00    -0.020 A 
ATOM     24  C   LIG    1        0.018  -2.071  -1.210  0.00  0.00    +0.060 A 
ATOM     25  C   LIG    1        0.039  -2.772  -0.020  0.00  0.00    -0.090 A 
ATOM     26  C   LIG    1        0.041  -2.088   1.187  0.00  0.00    +0.130 A 
ATOM     27  C   LIG    1        0.023  -0.701   1.195  0.00  0.00    -0.020 A 
ENDBRANCH  20  26
ENDBRANCH  19  20
ENDBRANCH  15  19
ENDBRANCH   1  16
TORSDOF 4
