REMARK  Name = ZINCvU0000000IYt.0
REMARK                            x       y       z     vdW  Elec       q    Type
REMARK                         _______ _______ _______ _____ _____    ______ ____
ROOT
ATOM      1  O   LIG    1       -1.685   2.251   3.648  0.00  0.00    -0.510 OA
ATOM      2  C   LIG    1       -0.693   1.560   3.746  0.00  0.00    +0.510 C 
ATOM      3  N   LIG    1       -0.218   1.232   4.964  0.00  0.00    -0.680 N 
ATOM      4  H   LIG    1        0.535   0.625   5.044  0.00  0.00    +0.410 HD
ENDROOT
BRANCH   3   5
ATOM      5  C   LIG    1       -0.809   1.768   6.113  0.00  0.00    +0.150 A 
ATOM      6  C   LIG    1       -0.029   2.072   7.221  0.00  0.00    -0.020 A 
ATOM      7  C   LIG    1       -0.615   2.605   8.352  0.00  0.00    +0.050 A 
ATOM      8  C   LIG    1       -1.980   2.827   8.386  0.00  0.00    -0.120 A 
ATOM      9  C   LIG    1       -2.761   2.521   7.287  0.00  0.00    +0.050 A 
ATOM     10  C   LIG    1       -2.179   1.992   6.151  0.00  0.00    +0.020 A 
BRANCH   8  11
ATOM     11  C   LIG    1       -2.617   3.404   9.624  0.00  0.00    +0.310 C 
BRANCH  11  12
ATOM     12  N   LIG    1       -3.019   2.315  10.519  0.00  0.00    -0.740 N 
ATOM     13  H   LIG    1       -2.857   1.393  10.264  0.00  0.00    +0.400 HD
BRANCH  12  14
ATOM     14  C   LIG    1       -3.636   2.605  11.738  0.00  0.00    +0.210 A 
ATOM     15  C   LIG    1       -3.864   3.925  12.106  0.00  0.00    -0.080 A 
ATOM     16  C   LIG    1       -4.478   4.208  13.310  0.00  0.00    +0.050 A 
ATOM     17  C   LIG    1       -4.857   3.180  14.153  0.00  0.00    -0.060 A 
ATOM     18  C   LIG    1       -4.627   1.865  13.792  0.00  0.00    +0.050 A 
ATOM     19  C   LIG    1       -4.017   1.575  12.587  0.00  0.00    -0.080 A 
ENDBRANCH  12  14
ENDBRANCH  11  12
ENDBRANCH   8  11
ENDBRANCH   3   5
BRANCH   2  20
ATOM     20  C   LIG    1        0.007   1.067   2.506  0.00  0.00    +0.060 C 
BRANCH  20  21
ATOM     21  C   LIG    1       -0.730   1.577   1.267  0.00  0.00    +0.060 C 
BRANCH  21  22
ATOM     22  C   LIG    1       -0.019   1.076   0.008  0.00  0.00    +0.190 C 
BRANCH  22  23
ATOM     23  C   LIG    1       -0.745   1.578  -1.213  0.00  0.00    +0.200 A 
ATOM     24  N   LIG    1       -0.507   2.704  -1.826  0.00  0.00    -0.480 NA
ATOM     25  C   LIG    1       -1.342   2.816  -2.870  0.00  0.00    +0.170 A 
ATOM     26  C   LIG    1       -2.129   1.710  -2.884  0.00  0.00    -0.000 A 
ATOM     27  O   LIG    1       -1.744   0.943  -1.840  0.00  0.00    -0.190 OA
BRANCH  26  28
ATOM     28  C   LIG    1       -3.200   1.403  -3.855  0.00  0.00    -0.020 A 
ATOM     29  C   LIG    1       -3.926   0.216  -3.746  0.00  0.00    +0.030 A 
ATOM     30  C   LIG    1       -4.929  -0.061  -4.652  0.00  0.00    +0.010 A 
ATOM     31  C   LIG    1       -5.208   0.830  -5.674  0.00  0.00    +0.020 A 
ATOM     32  C   LIG    1       -4.488   2.005  -5.791  0.00  0.00    +0.020 A 
ATOM     33  C   LIG    1       -3.487   2.297  -4.888  0.00  0.00    +0.030 A 
ENDBRANCH  26  28
ENDBRANCH  22  23
ENDBRANCH  21  22
ENDBRANCH  20  21
ENDBRANCH   2  20
TORSDOF 9
