REMARK  Name = ZINCqH0000038J4P.0
REMARK                            x       y       z     vdW  Elec       q    Type
REMARK                         _______ _______ _______ _____ _____    ______ ____
ROOT
ATOM      1  C   LIG    1       -0.224   6.254  -0.614  0.00  0.00    +0.160 C 
ATOM      2  C   LIG    1        0.737   5.201  -0.125  0.00  0.00    +0.110 A 
ATOM      3  N   LIG    1        0.602   3.908  -0.280  0.00  0.00    -0.290 NA
ATOM      4  N   LIG    1        1.703   3.279   0.316  0.00  0.00    -0.320 N 
ATOM      5  C   LIG    1        2.499   4.239   0.837  0.00  0.00    +0.110 A 
ATOM      6  C   LIG    1        3.794   4.016   1.575  0.00  0.00    +0.150 C 
ATOM      7  C   LIG    1        1.927   5.436   0.573  0.00  0.00    -0.260 A 
ENDROOT
BRANCH   4   8
ATOM      8  C   LIG    1        1.935   1.897   0.367  0.00  0.00    +0.150 A 
ATOM      9  C   LIG    1        0.869   1.017   0.498  0.00  0.00    +0.020 A 
ATOM     10  C   LIG    1        1.100  -0.344   0.548  0.00  0.00    +0.030 A 
ATOM     11  C   LIG    1        2.392  -0.830   0.468  0.00  0.00    +0.010 A 
ATOM     12  C   LIG    1        3.456   0.044   0.338  0.00  0.00    +0.030 A 
ATOM     13  C   LIG    1        3.231   1.406   0.287  0.00  0.00    +0.000 A 
ENDBRANCH   4   8
BRANCH   7  14
ATOM     14  C   LIG    1        2.471   6.785   0.967  0.00  0.00    +0.390 C 
BRANCH  14  15
ATOM     15  N   LIG    1        3.382   7.267  -0.075  0.00  0.00    -0.600 N 
ATOM     16  C   LIG    1        2.912   8.034  -1.079  0.00  0.00    +0.590 C 
ATOM     17  O   LIG    1        1.756   8.415  -1.064  0.00  0.00    -0.500 OA
ATOM     18  C   LIG    1        4.803   6.916  -0.025  0.00  0.00    +0.310 C 
BRANCH  16  19
ATOM     19  C   LIG    1        3.793   8.407  -2.190  0.00  0.00    -0.220 A 
ATOM     20  C   LIG    1        3.479   9.285  -3.189  0.00  0.00    +0.120 A 
ATOM     21  C   LIG    1        4.492   9.452  -4.103  0.00  0.00    +0.120 A 
ATOM     22  C   LIG    1        5.598   8.737  -3.863  0.00  0.00    -0.220 A 
ATOM     23  S   LIG    1        5.425   7.804  -2.445  0.00  0.00    +0.350 S 
BRANCH  22  24
ATOM     24  N   LIG    1        6.812   8.758  -4.710  0.00  0.00    +0.060 N 
ATOM     25  O   LIG    1        7.774   8.073  -4.413  0.00  0.00    -0.150 OA
ATOM     26  O   LIG    1        6.848   9.461  -5.704  0.00  0.00    -0.140 OA
ENDBRANCH  22  24
ENDBRANCH  16  19
ENDBRANCH  14  15
ENDBRANCH   7  14
TORSDOF 5
