REMARK  Name = ZINCpk00001AZiFh.0
REMARK                            x       y       z     vdW  Elec       q    Type
REMARK                         _______ _______ _______ _____ _____    ______ ____
ROOT
ATOM      1  C   LIG    1       -2.533   1.757   0.039  0.00  0.00    +0.610 C 
ATOM      2  N   LIG    1       -3.514   2.682   0.060  0.00  0.00    -0.720 N 
ATOM      3  H   LIG    1       -3.290   3.626   0.070  0.00  0.00    +0.410 HD
ATOM      4  O   LIG    1       -2.813   0.574   0.028  0.00  0.00    -0.540 OA
ENDROOT
BRANCH   1  10
ATOM      5  C   LIG    1        3.263  -0.457   0.995  0.00  0.00    +0.130 C 
ATOM      6  C   LIG    1        2.378   0.146   0.240  0.00  0.00    -0.220 C 
ATOM      7  C   LIG    1        1.236  -0.618  -0.399  0.00  0.00    +0.310 C 
ATOM      8  O   LIG    1        0.002  -0.004   0.002  0.00  0.00    -0.260 OA
ATOM      9  C   LIG    1       -0.016   1.350   0.009  0.00  0.00    +0.350 A 
ATOM     10  C   LIG    1       -1.126   2.179   0.030  0.00  0.00    -0.310 A 
ATOM     11  C   LIG    1       -0.645   3.512   0.039  0.00  0.00    +0.310 A 
ATOM     12  N   LIG    1        0.659   3.474   0.028  0.00  0.00    -0.280 NA
ATOM     13  N   LIG    1        1.075   2.144   0.003  0.00  0.00    -0.390 N 
ATOM     14  C   LIG    1        2.456   1.638  -0.031  0.00  0.00    +0.380 C 
ENDBRANCH   1  10
BRANCH   2  15
ATOM     15  C   LIG    1       -4.917   2.261   0.069  0.00  0.00    +0.340 C 
ATOM     16  C   LIG    1       -5.383   2.011  -1.367  0.00  0.00    +0.060 C 
BRANCH  15  17
ATOM     17  C   LIG    1       -5.762   3.343   0.691  0.00  0.00    +0.170 A 
ATOM     18  N   LIG    1       -5.683   4.626   0.450  0.00  0.00    -0.280 NA
ATOM     19  N   LIG    1       -6.559   5.256   1.155  0.00  0.00    -0.290 NA
ATOM     20  C   LIG    1       -7.226   4.407   1.877  0.00  0.00    +0.180 A 
ATOM     21  C   LIG    1       -8.342   4.678   2.853  0.00  0.00    +0.170 C 
ATOM     22  C   LIG    1       -9.056   3.351   3.142  0.00  0.00    -0.020 C 
ATOM     23  C   LIG    1       -8.015   2.278   3.474  0.00  0.00    +0.050 C 
ATOM     24  C   LIG    1       -7.215   1.931   2.214  0.00  0.00    +0.290 C 
ATOM     25  C   LIG    1      -10.004   3.528   4.330  0.00  0.00    +0.030 C 
ATOM     26  N   LIG    1       -6.737   3.171   1.604  0.00  0.00    -0.460 N 
ENDBRANCH  15  17
ENDBRANCH   2  15
TORSDOF 3
