REMARK  Name = ZINCkj000005lqm9.0
REMARK                            x       y       z     vdW  Elec       q    Type
REMARK                         _______ _______ _______ _____ _____    ______ ____
ROOT
ATOM      1  C   LIG    1        3.320   3.430  -0.299  0.00  0.00    -0.270 A 
ATOM      2  C   LIG    1        4.213   2.480   0.212  0.00  0.00    +0.350 A 
ATOM      3  N   LIG    1        5.490   2.795   0.323  0.00  0.00    -0.510 NA
ATOM      4  C   LIG    1        5.928   3.997  -0.031  0.00  0.00    +0.400 A 
ATOM      5  N   LIG    1        5.112   4.926  -0.514  0.00  0.00    -0.510 NA
ATOM      6  C   LIG    1        3.823   4.686  -0.662  0.00  0.00    +0.420 A 
ENDROOT
BRANCH   1  11
ATOM      7  C   LIG    1       -0.018   0.023   0.095  0.00  0.00    +0.170 C 
ATOM      8  C   LIG    1        1.208  -0.258   1.005  0.00  0.00    +0.080 C 
ATOM      9  C   LIG    1        2.188   0.870   0.622  0.00  0.00    +0.280 C 
ATOM     10  N   LIG    1        1.394   1.958   0.034  0.00  0.00    -0.620 N 
ATOM     11  C   LIG    1        1.884   3.118  -0.448  0.00  0.00    +0.600 C 
ATOM     12  O   LIG    1        1.145   3.906  -1.004  0.00  0.00    -0.510 OA
ATOM     13  C   LIG    1       -0.029   1.571   0.058  0.00  0.00    +0.290 C 
BRANCH   7  14
ATOM     14  N   LIG    1       -1.252  -0.498   0.698  0.00  0.00    -0.630 N 
ATOM     15  H   LIG    1       -1.350  -0.133   1.633  0.00  0.00    +0.440 HD
ATOM     16  H   LIG    1       -1.210  -1.506   0.732  0.00  0.00    +0.440 HD
ATOM     17  H   LIG    1       -2.044  -0.213   0.141  0.00  0.00    +0.440 HD
ENDBRANCH   7  14
ENDBRANCH   1  11
BRANCH   4  18
ATOM     18  C   LIG    1        7.368   4.311   0.118  0.00  0.00    -0.080 A 
ATOM     19  C   LIG    1        7.854   5.564  -0.253  0.00  0.00    +0.080 A 
ATOM     20  C   LIG    1        9.195   5.852  -0.107  0.00  0.00    +0.000 A 
ATOM     21  C   LIG    1       10.060   4.896   0.395  0.00  0.00    +0.050 A 
ATOM     22  C   LIG    1        9.585   3.649   0.759  0.00  0.00    +0.000 A 
ATOM     23  C   LIG    1        8.245   3.351   0.623  0.00  0.00    +0.080 A 
ENDBRANCH   4  18
TORSDOF 3
