REMARK  Name = ZINCrH00000No510.2
REMARK                            x       y       z     vdW  Elec       q    Type
REMARK                         _______ _______ _______ _____ _____    ______ ____
ROOT
ATOM      1  N   LIG    1       -2.959   1.234   1.094  0.00  0.00    -0.520 NA
ENDROOT
BRANCH   1   2
ATOM      2  C   LIG    1       -2.570   1.134  -0.319  0.00  0.00    +0.250 C 
BRANCH   2   9
ATOM      3  C   LIG    1       -1.478   3.374  -0.654  0.00  0.00    +0.340 A 
ATOM      4  N   LIG    1       -0.417   4.131  -0.878  0.00  0.00    -0.540 NA
ATOM      5  C   LIG    1        0.787   3.611  -1.021  0.00  0.00    +0.300 A 
ATOM      6  C   LIG    1        0.982   2.247  -0.942  0.00  0.00    -0.180 A 
ATOM      7  C   LIG    1       -0.106   1.417  -0.707  0.00  0.00    +0.100 A 
ATOM      8  C   LIG    1        2.362   1.664  -1.107  0.00  0.00    +0.110 C 
ATOM      9  C   LIG    1       -1.357   1.993  -0.568  0.00  0.00    -0.150 A 
BRANCH   3  11
ATOM     10  C   LIG    1       -2.758   5.375  -0.620  0.00  0.00    +0.250 C 
ATOM     11  O   LIG    1       -2.698   3.952  -0.514  0.00  0.00    -0.290 OA
ENDBRANCH   3  11
ENDBRANCH   2   9
ENDBRANCH   1   2
BRANCH   1  12
ATOM     12  C   LIG    1       -1.886   0.745   1.971  0.00  0.00    +0.230 C 
BRANCH  12  13
ATOM     13  C   LIG    1       -1.492  -0.673   1.554  0.00  0.00    -0.050 C 
ATOM     14  C   LIG    1       -0.269  -1.220   2.308  0.00  0.00    +0.040 C 
ATOM     15  C   LIG    1       -1.005  -2.570   2.364  0.00  0.00    +0.160 C 
ATOM     16  C   LIG    1       -2.316  -1.771   2.248  0.00  0.00    -0.010 C 
BRANCH  15  17
ATOM     17  O   LIG    1       -0.857  -3.252   3.611  0.00  0.00    -0.560 OA
ATOM     18  H   LIG    1       -1.317  -4.101   3.651  0.00  0.00    +0.380 HD
ENDBRANCH  15  17
ENDBRANCH  12  13
ENDBRANCH   1  12
BRANCH   1  19
ATOM     19  C   LIG    1       -4.214   0.514   1.347  0.00  0.00    +0.220 C 
BRANCH  19  20
ATOM     20  C   LIG    1       -4.803   0.975   2.655  0.00  0.00    -0.030 A 
ATOM     21  C   LIG    1       -5.370   2.243   2.756  0.00  0.00    -0.160 A 
ATOM     22  S   LIG    1       -5.575   3.532   1.575  0.00  0.00    +0.140 S 
ATOM     23  C   LIG    1       -6.343   4.513   2.741  0.00  0.00    +0.250 A 
ATOM     24  N   LIG    1       -6.427   3.919   3.871  0.00  0.00    -0.470 NA
ATOM     25  C   LIG    1       -5.923   2.674   3.967  0.00  0.00    +0.070 A 
ATOM     26  C   LIG    1       -5.881   1.803   5.074  0.00  0.00    +0.070 A 
ATOM     27  C   LIG    1       -5.318   0.568   4.958  0.00  0.00    +0.020 A 
ATOM     28  C   LIG    1       -4.776   0.144   3.753  0.00  0.00    +0.030 A 
ENDBRANCH  19  20
ENDBRANCH   1  19
TORSDOF 8
