REMARK  Name = ZINCpe000000Wwgx.0
REMARK                            x       y       z     vdW  Elec       q    Type
REMARK                         _______ _______ _______ _____ _____    ______ ____
ROOT
ATOM      1  C   LIG    1       -1.263   2.205   0.020  0.00  0.00    +0.470 C 
ENDROOT
BRANCH   1   7
ATOM      2  C   LIG    1        3.243  -1.676  -0.038  0.00  0.00    +0.370 A 
ATOM      3  C   LIG    1        4.051  -0.542  -0.040  0.00  0.00    -0.030 A 
ATOM      4  C   LIG    1        3.474   0.701  -0.027  0.00  0.00    +0.170 A 
ATOM      5  C   LIG    1        2.078   0.786  -0.014  0.00  0.00    -0.030 A 
ATOM      6  N   LIG    1        1.199   1.821   0.000  0.00  0.00    -0.440 NA
ATOM      7  C   LIG    1       -0.016   1.358   0.009  0.00  0.00    +0.250 A 
ATOM      8  N   LIG    1        0.002  -0.004   0.002  0.00  0.00    -0.570 N 
ATOM      9  H   LIG    1       -0.772  -0.589   0.006  0.00  0.00    +0.430 HD
ATOM     10  C   LIG    1        1.322  -0.399  -0.013  0.00  0.00    +0.290 A 
ATOM     11  N   LIG    1        1.926  -1.578  -0.025  0.00  0.00    -0.550 NA
BRANCH   2  13
ATOM     12  C   LIG    1        2.943  -4.032  -0.048  0.00  0.00    +0.260 C 
ATOM     13  O   LIG    1        3.820  -2.904  -0.050  0.00  0.00    -0.300 OA
ENDBRANCH   2  13
ENDBRANCH   1   7
BRANCH   1  14
ATOM     14  N   LIG    1       -1.216   3.128   1.157  0.00  0.00    -0.290 N 
ATOM     15  C   LIG    1       -1.338   4.474   1.090  0.00  0.00    +0.160 A 
ATOM     16  C   LIG    1       -1.236   4.926   2.362  0.00  0.00    -0.050 A 
ATOM     17  N   LIG    1       -1.058   3.848   3.134  0.00  0.00    -0.250 NA
ATOM     18  N   LIG    1       -1.057   2.799   2.390  0.00  0.00    -0.070 NA
BRANCH  16  19
ATOM     19  C   LIG    1       -1.309   6.360   2.818  0.00  0.00    +0.340 C 
BRANCH  19  20
ATOM     20  N   LIG    1       -2.683   6.673   3.232  0.00  0.00    -0.520 NA
ATOM     21  C   LIG    1       -3.061   5.906   4.428  0.00  0.00    +0.160 C 
ATOM     22  C   LIG    1       -4.474   6.306   4.859  0.00  0.00    +0.220 C 
ATOM     23  O   LIG    1       -5.377   6.092   3.771  0.00  0.00    -0.390 OA
ATOM     24  C   LIG    1       -5.040   6.825   2.590  0.00  0.00    +0.230 C 
ATOM     25  C   LIG    1       -3.632   6.430   2.136  0.00  0.00    +0.090 C 
ATOM     26  C   LIG    1       -3.233   7.268   0.920  0.00  0.00    +0.040 C 
ENDBRANCH  19  20
ENDBRANCH  16  19
ENDBRANCH   1  14
TORSDOF 5
