REMARK  Name = ZINCtV000002H7Wg.0
REMARK                            x       y       z     vdW  Elec       q    Type
REMARK                         _______ _______ _______ _____ _____    ______ ____
ROOT
ATOM      1  C   LIG    1        4.090   4.550  -0.471  0.00  0.00    +0.210 A 
ATOM      2  N   LIG    1        3.321   5.049   0.467  0.00  0.00    -0.460 NA
ATOM      3  C   LIG    1        2.355   4.161   0.782  0.00  0.00    +0.110 A 
ATOM      4  C   LIG    1        2.546   3.037  -0.006  0.00  0.00    +0.080 A 
ATOM      5  N   LIG    1        3.650   3.303  -0.799  0.00  0.00    -0.540 N 
ATOM      6  H   LIG    1        4.037   2.712  -1.464  0.00  0.00    +0.430 HD
ENDROOT
BRANCH   4   7
ATOM      7  C   LIG    1        1.736   1.812  -0.005  0.00  0.00    -0.140 A 
ATOM      8  C   LIG    1        2.229   0.541  -0.016  0.00  0.00    +0.030 A 
ATOM      9  C   LIG    1        1.263  -0.444  -0.012  0.00  0.00    +0.020 A 
ATOM     10  C   LIG    1        0.002  -0.004   0.002  0.00  0.00    -0.040 A 
ATOM     11  S   LIG    1       -0.022   1.754   0.012  0.00  0.00    +0.180 S 
ENDBRANCH   4   7
BRANCH   3  12
ATOM     12  C   LIG    1        1.292   4.350   1.787  0.00  0.00    -0.120 A 
ATOM     13  C   LIG    1        1.427   5.025   2.948  0.00  0.00    +0.040 A 
ATOM     14  C   LIG    1        0.288   5.066   3.726  0.00  0.00    +0.010 A 
ATOM     15  C   LIG    1       -0.771   4.435   3.213  0.00  0.00    -0.050 A 
ATOM     16  S   LIG    1       -0.352   3.738   1.654  0.00  0.00    +0.130 S 
ENDBRANCH   3  12
BRANCH   1  17
ATOM     17  S   LIG    1        5.474   5.366  -1.195  0.00  0.00    +0.030 S 
BRANCH  17  18
ATOM     18  C   LIG    1        5.433   6.927  -0.279  0.00  0.00    +0.270 C 
BRANCH  18  22
ATOM     19  C   LIG    1        8.478   8.774  -0.943  0.00  0.00    +0.230 A 
ATOM     20  N   LIG    1        7.651   9.256  -1.841  0.00  0.00    -0.270 NA
ATOM     21  N   LIG    1        6.510   8.674  -1.721  0.00  0.00    -0.250 NA
ATOM     22  C   LIG    1        6.561   7.812  -0.745  0.00  0.00    +0.160 A 
ATOM     23  O   LIG    1        7.802   7.850  -0.232  0.00  0.00    -0.210 OA
BRANCH  19  28
ATOM     24  C   LIG    1       13.970  10.318  -0.187  0.00  0.00    +0.100 C 
ATOM     25  C   LIG    1       12.532   9.914  -0.384  0.00  0.00    -0.050 A 
ATOM     26  C   LIG    1       11.778  10.514  -1.377  0.00  0.00    +0.020 A 
ATOM     27  C   LIG    1       10.461  10.148  -1.564  0.00  0.00    +0.080 A 
ATOM     28  C   LIG    1        9.889   9.171  -0.749  0.00  0.00    -0.040 A 
ATOM     29  C   LIG    1       10.653   8.574   0.256  0.00  0.00    +0.050 A 
ATOM     30  C   LIG    1       11.971   8.945   0.428  0.00  0.00    +0.010 A 
ENDBRANCH  19  28
ENDBRANCH  18  22
ENDBRANCH  17  18
ENDBRANCH   1  17
TORSDOF 6
