REMARK  Name = ZINCqH00000052I8.1
REMARK                            x       y       z     vdW  Elec       q    Type
REMARK                         _______ _______ _______ _____ _____    ______ ____
ROOT
ATOM      1  N   LIG    1        0.058   6.031   1.199  0.00  0.00    -0.670 N 
ATOM      2  H   LIG    1       -0.417   5.552   0.503  0.00  0.00    +0.410 HD
ATOM      3  C   LIG    1        0.782   5.353   2.111  0.00  0.00    +0.630 C 
ATOM      4  O   LIG    1        1.455   5.956   2.925  0.00  0.00    -0.540 OA
ENDROOT
BRANCH   3   5
ATOM      5  C   LIG    1        0.759   3.883   2.122  0.00  0.00    -0.370 A 
ATOM      6  C   LIG    1       -0.184   3.190   2.882  0.00  0.00    +0.310 A 
ATOM      7  C   LIG    1       -0.199   1.794   2.888  0.00  0.00    -0.070 A 
ATOM      8  C   LIG    1        0.690   1.066   2.164  0.00  0.00    +0.040 A 
ATOM      9  C   LIG    1        1.671   1.700   1.379  0.00  0.00    -0.130 A 
ATOM     10  C   LIG    1        2.599   0.956   0.633  0.00  0.00    +0.040 A 
ATOM     11  C   LIG    1        3.536   1.603  -0.115  0.00  0.00    -0.070 A 
ATOM     12  C   LIG    1        3.589   2.994  -0.152  0.00  0.00    +0.010 A 
ATOM     13  C   LIG    1        2.696   3.747   0.552  0.00  0.00    -0.050 A 
ATOM     14  O   LIG    1       -1.090   3.877   3.620  0.00  0.00    -0.700 OA
ATOM     15  C   LIG    1        1.724   3.114   1.336  0.00  0.00    +0.050 A 
ENDBRANCH   3   5
BRANCH   1  20
ATOM     16  C   LIG    1       -0.042   9.457   2.538  0.00  0.00    +0.130 A 
ATOM     17  C   LIG    1       -0.139  10.192   1.365  0.00  0.00    -0.120 A 
ATOM     18  C   LIG    1       -0.171   9.546   0.143  0.00  0.00    +0.070 A 
ATOM     19  C   LIG    1       -0.100   8.168   0.086  0.00  0.00    -0.050 A 
ATOM     20  C   LIG    1       -0.008   7.427   1.257  0.00  0.00    +0.210 A 
ATOM     21  C   LIG    1        0.024   8.074   2.485  0.00  0.00    +0.000 A 
BRANCH  16  22
ATOM     22  O   LIG    1       -0.011  10.094   3.739  0.00  0.00    -0.330 OA
BRANCH  22  23
ATOM     23  C   LIG    1       -0.083  11.521   3.719  0.00  0.00    +0.220 C 
BRANCH  23  24
ATOM     24  C   LIG    1       -0.034  12.054   5.152  0.00  0.00    +0.290 C 
BRANCH  24  26
ATOM     25  C   LIG    1        2.326  12.464   5.027  0.00  0.00    +0.320 C 
ATOM     26  N   LIG    1        1.271  11.739   5.748  0.00  0.00    -0.390 N 
ATOM     27  C   LIG    1        1.275  12.144   7.160  0.00  0.00    +0.310 C 
ATOM     28  H   LIG    1        1.440  10.746   5.682  0.00  0.00    +0.440 HD
ENDBRANCH  24  26
ENDBRANCH  23  24
ENDBRANCH  22  23
ENDBRANCH  16  22
ENDBRANCH   1  20
TORSDOF 6
