REMARK  Name = ZINCvU00000003OX.0
REMARK                            x       y       z     vdW  Elec       q    Type
REMARK                         _______ _______ _______ _____ _____    ______ ____
ROOT
ATOM      1  N   LIG    1       -0.533   1.464   5.306  0.00  0.00    -0.510 N 
ATOM      2  C   LIG    1       -1.292   1.982   6.290  0.00  0.00    +0.570 A 
ATOM      3  C   LIG    1       -2.439   2.756   5.940  0.00  0.00    -0.230 A 
ATOM      4  C   LIG    1       -2.717   2.939   4.591  0.00  0.00    +0.090 A 
ATOM      5  S   LIG    1       -4.165   3.918   4.416  0.00  0.00    +0.200 S 
ATOM      6  C   LIG    1       -4.368   4.064   6.154  0.00  0.00    -0.200 A 
ATOM      7  C   LIG    1       -5.495   4.832   6.823  0.00  0.00    +0.120 C 
ATOM      8  C   LIG    1       -5.584   4.400   8.289  0.00  0.00    -0.010 C 
ATOM      9  C   LIG    1       -6.534   5.331   9.043  0.00  0.00    +0.030 C 
ATOM     10  C   LIG    1       -4.188   4.474   8.915  0.00  0.00    +0.020 C 
ATOM     11  C   LIG    1       -3.317   3.362   8.330  0.00  0.00    +0.110 C 
ATOM     12  N   LIG    1       -1.907   2.394   3.661  0.00  0.00    -0.500 NA
ATOM     13  C   LIG    1       -3.406   3.415   6.810  0.00  0.00    -0.030 A 
ATOM     14  O   LIG    1       -1.006   1.792   7.460  0.00  0.00    -0.510 OA
ATOM     15  C   LIG    1       -0.859   1.680   3.998  0.00  0.00    +0.370 A 
ENDROOT
BRANCH   1  16
ATOM     16  C   LIG    1        0.649   0.665   5.639  0.00  0.00    +0.340 C 
BRANCH  16  18
ATOM     17  C   LIG    1        2.573   1.567   6.843  0.00  0.00    +0.070 C 
ATOM     18  C   LIG    1        1.851   1.567   5.750  0.00  0.00    -0.070 C 
ENDBRANCH  16  18
ENDBRANCH   1  16
BRANCH  15  19
ATOM     19  S   LIG    1        0.154   0.990   2.733  0.00  0.00    +0.010 S 
BRANCH  19  20
ATOM     20  C   LIG    1       -0.727   1.581   1.267  0.00  0.00    +0.120 C 
BRANCH  20  21
ATOM     21  C   LIG    1       -0.009   1.091   0.008  0.00  0.00    +0.090 C 
BRANCH  21  22
ATOM     22  C   LIG    1       -0.742   1.583  -1.213  0.00  0.00    +0.520 C 
ATOM     23  N   LIG    1       -0.288   1.272  -2.443  0.00  0.00    -0.670 N 
ATOM     24  H   LIG    1        0.546   0.789  -2.544  0.00  0.00    +0.410 HD
ATOM     25  O   LIG    1       -1.742   2.260  -1.088  0.00  0.00    -0.510 OA
BRANCH  23  26
ATOM     26  C   LIG    1       -1.022   1.647  -3.575  0.00  0.00    +0.130 A 
ATOM     27  C   LIG    1       -1.045   0.822  -4.693  0.00  0.00    +0.030 A 
ATOM     28  C   LIG    1       -1.773   1.191  -5.807  0.00  0.00    +0.010 A 
ATOM     29  C   LIG    1       -2.471   2.387  -5.814  0.00  0.00    +0.090 A 
ATOM     30  C   LIG    1       -2.445   3.213  -4.703  0.00  0.00    +0.010 A 
ATOM     31  F   LIG    1       -3.178   2.749  -6.907  0.00  0.00    -0.140 F 
ATOM     32  C   LIG    1       -1.723   2.845  -3.585  0.00  0.00    +0.060 A 
ENDBRANCH  23  26
ENDBRANCH  21  22
ENDBRANCH  20  21
ENDBRANCH  19  20
ENDBRANCH  15  19
TORSDOF 7
