REMARK  Name = ZINCue00000005xQ.0
REMARK                            x       y       z     vdW  Elec       q    Type
REMARK                         _______ _______ _______ _____ _____    ______ ____
ROOT
ATOM      1  C   LIG    1       -6.723  -1.885  -2.224  0.00  0.00    +0.130 C 
ATOM      2  C   LIG    1       -6.068  -1.399  -0.957  0.00  0.00    +0.010 A 
ATOM      3  C   LIG    1       -4.744  -1.371  -0.722  0.00  0.00    -0.010 A 
ATOM      4  C   LIG    1       -4.575  -0.827   0.630  0.00  0.00    -0.210 A 
ATOM      5  C   LIG    1       -5.835  -0.563   1.094  0.00  0.00    +0.110 A 
ATOM      6  C   LIG    1       -6.174   0.015   2.444  0.00  0.00    +0.150 C 
ATOM      7  N   LIG    1       -6.721  -0.908   0.138  0.00  0.00    -0.400 N 
ENDROOT
BRANCH   7   8
ATOM      8  C   LIG    1       -8.114  -0.781   0.252  0.00  0.00    +0.130 A 
ATOM      9  C   LIG    1       -8.806  -1.537   1.188  0.00  0.00    +0.040 A 
ATOM     10  C   LIG    1      -10.176  -1.409   1.303  0.00  0.00    +0.040 A 
ATOM     11  C   LIG    1      -10.866  -0.534   0.477  0.00  0.00    +0.060 A 
ATOM     12  O   LIG    1      -12.219  -0.430   0.598  0.00  0.00    -0.300 OA
ATOM     13  C   LIG    1      -12.829   0.727   0.017  0.00  0.00    +0.220 C 
ATOM     14  C   LIG    1      -12.252   0.918  -1.392  0.00  0.00    +0.220 C 
ATOM     15  O   LIG    1      -10.835   1.092  -1.277  0.00  0.00    -0.300 OA
ATOM     16  C   LIG    1      -10.176   0.222  -0.464  0.00  0.00    +0.060 A 
ATOM     17  C   LIG    1       -8.801   0.096  -0.576  0.00  0.00    +0.040 A 
ENDBRANCH   7   8
BRANCH   4  18
ATOM     18  C   LIG    1       -3.306  -0.604   1.341  0.00  0.00    +0.610 C 
ATOM     19  N   LIG    1       -2.136  -0.705   0.680  0.00  0.00    -0.600 N 
ATOM     20  C   LIG    1       -1.925  -1.028  -0.751  0.00  0.00    +0.240 C 
ATOM     21  C   LIG    1       -0.773  -0.102  -1.194  0.00  0.00    +0.030 C 
ATOM     22  C   LIG    1       -0.010   0.234   0.105  0.00  0.00    -0.140 C 
ATOM     23  C   LIG    1       -0.766  -0.520   1.220  0.00  0.00    +0.280 C 
ATOM     24  O   LIG    1       -3.313  -0.328   2.526  0.00  0.00    -0.560 OA
BRANCH  22  25
ATOM     25  C   LIG    1       -0.040   1.718   0.362  0.00  0.00    +0.510 C 
ATOM     26  O   LIG    1       -1.108   2.296   0.473  0.00  0.00    -0.680 OA
ATOM     27  O   LIG    1        1.003   2.342   0.454  0.00  0.00    -0.690 OA
ENDBRANCH  22  25
BRANCH  22  28
ATOM     28  C   LIG    1        1.436  -0.260   0.015  0.00  0.00    +0.050 C 
BRANCH  28  29
ATOM     29  C   LIG    1        2.163   0.049   1.325  0.00  0.00    +0.180 C 
BRANCH  29  30
ATOM     30  O   LIG    1        3.513  -0.412   1.241  0.00  0.00    -0.590 OA
ATOM     31  H   LIG    1        4.035  -0.249   2.039  0.00  0.00    +0.370 HD
ENDBRANCH  29  30
ENDBRANCH  28  29
ENDBRANCH  22  28
ENDBRANCH   4  18
TORSDOF 6
