REMARK  Name = ZINCb70000003WJI.0
REMARK                            x       y       z     vdW  Elec       q    Type
REMARK                         _______ _______ _______ _____ _____    ______ ____
ROOT
ATOM      1  C   LIG    1       -0.013   1.086   0.008  0.00  0.00    +0.110 C 
ATOM      2  C   LIG    1       -0.729   1.579   1.267  0.00  0.00    +0.100 C 
ATOM      3  C   LIG    1       -0.752   3.110   1.275  0.00  0.00    +0.250 C 
ATOM      4  N   LIG    1       -1.491   3.580   2.455  0.00  0.00    -0.510 N 
ATOM      5  C   LIG    1       -2.867   3.068   2.406  0.00  0.00    +0.250 C 
ATOM      6  C   LIG    1       -2.840   1.538   2.395  0.00  0.00    +0.160 C 
ATOM      7  H   LIG    1       -1.507   4.589   2.462  0.00  0.00    +0.440 HD
ATOM      8  H   LIG    1       -1.037   3.245   3.292  0.00  0.00    +0.430 HD
ATOM      9  C   LIG    1        0.011   1.073   2.507  0.00  0.00    +0.050 C 
ATOM     10  O   LIG    1       -2.071   1.086   1.277  0.00  0.00    -0.340 OA
ENDROOT
BRANCH   6  11
ATOM     11  C   LIG    1       -4.269   1.002   2.283  0.00  0.00    +0.080 C 
BRANCH  11  12
ATOM     12  C   LIG    1       -4.252  -0.523   2.398  0.00  0.00    +0.190 C 
BRANCH  12  13
ATOM     13  O   LIG    1       -5.587  -1.024   2.293  0.00  0.00    -0.570 OA
ATOM     14  H   LIG    1       -5.652  -1.986   2.358  0.00  0.00    +0.390 HD
ENDBRANCH  12  13
ENDBRANCH  11  12
ENDBRANCH   6  11
TORSDOF 3
