REMARK  Name = ZINCvU00000006v8.0
REMARK                            x       y       z     vdW  Elec       q    Type
REMARK                         _______ _______ _______ _____ _____    ______ ____
ROOT
ATOM      1  C   LIG    1        1.205  -2.188  -0.017  0.00  0.00    +0.120 C 
ATOM      2  C   LIG    1        1.201  -0.681  -0.008  0.00  0.00    -0.010 A 
ATOM      3  C   LIG    1        0.002  -0.004   0.002  0.00  0.00    +0.030 A 
ATOM      4  C   LIG    1       -0.017   1.391   0.010  0.00  0.00    +0.150 A 
ATOM      5  C   LIG    1        1.205   2.082   0.002  0.00  0.00    -0.210 A 
ATOM      6  C   LIG    1        1.193   3.567  -0.006  0.00  0.00    +0.460 A 
ATOM      7  C   LIG    1       -0.139   4.142  -0.225  0.00  0.00    -0.240 A 
ATOM      8  C   LIG    1       -1.257   3.357  -0.201  0.00  0.00    +0.090 A 
ATOM      9  C   LIG    1       -2.428   4.213  -0.457  0.00  0.00    +0.570 C 
ATOM     10  N   LIG    1       -2.038   5.493  -0.631  0.00  0.00    -0.590 N 
ATOM     11  O   LIG    1       -3.578   3.824  -0.504  0.00  0.00    -0.480 OA
ATOM     12  C   LIG    1       -0.573   5.544  -0.497  0.00  0.00    +0.360 C 
ATOM     13  O   LIG    1        2.193   4.244   0.153  0.00  0.00    -0.420 OA
ATOM     14  C   LIG    1        2.414   1.387  -0.004  0.00  0.00    +0.140 A 
ATOM     15  O   LIG    1       -1.209   2.030   0.031  0.00  0.00    -0.180 OA
ATOM     16  C   LIG    1        2.407   0.009  -0.009  0.00  0.00    -0.070 A 
ATOM     17 CL   LIG    1        3.906  -0.867  -0.018  0.00  0.00    -0.040 Cl
ENDROOT
BRANCH  12  18
ATOM     18  C   LIG    1       -0.187   6.440   0.652  0.00  0.00    -0.100 A 
ATOM     19  C   LIG    1       -0.949   6.450   1.806  0.00  0.00    +0.040 A 
ATOM     20  C   LIG    1       -0.592   7.267   2.862  0.00  0.00    +0.030 A 
ATOM     21  C   LIG    1        0.520   8.084   2.760  0.00  0.00    -0.010 A 
ATOM     22  C   LIG    1        1.278   8.078   1.603  0.00  0.00    +0.030 A 
ATOM     23 CL   LIG    1        0.963   9.117   4.083  0.00  0.00    -0.060 Cl
ATOM     24  C   LIG    1        0.924   7.255   0.550  0.00  0.00    +0.070 A 
ENDBRANCH  12  18
BRANCH  10  25
ATOM     25  C   LIG    1       -2.918   6.631  -0.905  0.00  0.00    +0.410 C 
BRANCH  25  26
ATOM     26  C   LIG    1       -3.356   7.252   0.397  0.00  0.00    -0.180 A 
ATOM     27  C   LIG    1       -4.512   6.819   1.028  0.00  0.00    +0.090 A 
ATOM     28  C   LIG    1       -4.873   7.415   2.226  0.00  0.00    -0.040 A 
ATOM     29  C   LIG    1       -4.081   8.423   2.743  0.00  0.00    +0.270 A 
ATOM     30  N   LIG    1       -2.990   8.814   2.112  0.00  0.00    -0.480 NA
ATOM     31  C   LIG    1       -2.613   8.265   0.974  0.00  0.00    +0.280 A 
ENDBRANCH  25  26
ENDBRANCH  10  25
TORSDOF 3
