REMARK  Name = ZINCrD0000072kVD.0
REMARK                            x       y       z     vdW  Elec       q    Type
REMARK                         _______ _______ _______ _____ _____    ______ ____
ROOT
ATOM      1  C   LIG    1        5.797   2.496   0.488  0.00  0.00    +0.280 A 
ATOM      2  N   LIG    1        4.958   1.532   0.707  0.00  0.00    -0.470 NA
ATOM      3  C   LIG    1        3.857   1.836   1.368  0.00  0.00    +0.090 A 
ATOM      4  C   LIG    1        3.759   3.120   1.721  0.00  0.00    -0.070 A 
ATOM      5  S   LIG    1        5.203   3.954   1.154  0.00  0.00    +0.150 S 
ENDROOT
BRANCH   1   6
ATOM      6  N   LIG    1        7.005   2.363  -0.189  0.00  0.00    -0.480 N 
ATOM      7  C   LIG    1        7.380   1.160  -0.668  0.00  0.00    +0.510 C 
ATOM      8  O   LIG    1        6.625   0.214  -0.590  0.00  0.00    -0.470 OA
ATOM      9  C   LIG    1        8.737   0.990  -1.300  0.00  0.00    +0.110 C 
BRANCH   6  13
ATOM     10  C   LIG    1        9.464   5.682  -0.738  0.00  0.00    -0.060 A 
ATOM     11  C   LIG    1        9.609   4.894   0.389  0.00  0.00    +0.020 A 
ATOM     12  C   LIG    1        8.796   3.794   0.574  0.00  0.00    +0.030 A 
ATOM     13  C   LIG    1        7.831   3.478  -0.374  0.00  0.00    +0.090 A 
ATOM     14  C   LIG    1        7.691   4.268  -1.507  0.00  0.00    +0.040 A 
ATOM     15  C   LIG    1        8.504   5.370  -1.684  0.00  0.00    +0.020 A 
BRANCH  10  17
ATOM     16  C   LIG    1       11.611   6.463  -1.704  0.00  0.00    +0.030 C 
ATOM     17  C   LIG    1       10.354   6.881  -0.938  0.00  0.00    +0.070 C 
ENDBRANCH  10  17
ENDBRANCH   6  13
ENDBRANCH   1   6
BRANCH   3  18
ATOM     18  C   LIG    1        2.795   0.819   1.693  0.00  0.00    +0.350 C 
BRANCH  18  19
ATOM     19  O   LIG    1        1.733   1.451   2.411  0.00  0.00    -0.350 OA
BRANCH  19  20
ATOM     20  C   LIG    1        0.695   0.672   2.780  0.00  0.00    +0.530 C 
ATOM     21  O   LIG    1        0.691  -0.511   2.499  0.00  0.00    -0.480 OA
BRANCH  20  22
ATOM     22  C   LIG    1       -0.430   1.252   3.513  0.00  0.00    -0.070 C 
ATOM     23  C   LIG    1       -0.408   2.558   3.820  0.00  0.00    +0.250 C 
ATOM     24  O   LIG    1       -1.418   3.144   4.496  0.00  0.00    -0.300 OA
ATOM     25  C   LIG    1       -2.658   2.430   4.553  0.00  0.00    +0.230 C 
ATOM     26  C   LIG    1       -2.349   0.963   4.886  0.00  0.00    +0.230 C 
ATOM     27  O   LIG    1       -1.473   0.454   3.873  0.00  0.00    -0.290 OA
ENDBRANCH  20  22
ENDBRANCH  19  20
ENDBRANCH  18  19
ENDBRANCH   3  18
TORSDOF 7
