REMARK  Name = ZINCqH0000000MeA.0
REMARK                            x       y       z     vdW  Elec       q    Type
REMARK                         _______ _______ _______ _____ _____    ______ ____
ROOT
ATOM      1  C   LIG    1       -0.419   1.362  -2.458  0.00  0.00    +0.680 C 
ATOM      2  N   LIG    1       -0.738   1.580  -1.167  0.00  0.00    -0.600 N 
ATOM      3  C   LIG    1       -1.877   2.357  -0.667  0.00  0.00    +0.330 C 
ATOM      4  C   LIG    1       -1.828   2.324   0.840  0.00  0.00    -0.100 A 
ATOM      5  C   LIG    1       -2.660   2.892   1.790  0.00  0.00    +0.040 A 
ATOM      6  C   LIG    1       -2.403   2.718   3.138  0.00  0.00    +0.030 A 
ATOM      7  C   LIG    1       -1.314   1.975   3.544  0.00  0.00    +0.040 A 
ATOM      8  C   LIG    1       -0.473   1.401   2.593  0.00  0.00    -0.020 A 
ATOM      9  C   LIG    1       -0.735   1.580   1.235  0.00  0.00    -0.100 A 
ATOM     10  C   LIG    1       -0.013   1.086   0.008  0.00  0.00    +0.340 C 
ATOM     11  O   LIG    1        0.558   0.696  -2.738  0.00  0.00    -0.560 OA
ENDROOT
BRANCH   8  12
ATOM     12  C   LIG    1        0.700   0.602   3.023  0.00  0.00    -0.040 A 
ATOM     13  C   LIG    1        0.518  -0.594   3.714  0.00  0.00    +0.050 A 
ATOM     14  C   LIG    1        1.611  -1.337   4.114  0.00  0.00    +0.030 A 
ATOM     15  C   LIG    1        2.893  -0.903   3.834  0.00  0.00    +0.030 A 
ATOM     16  C   LIG    1        3.091   0.286   3.147  0.00  0.00    +0.090 A 
ATOM     17  N   LIG    1        4.231   0.968   2.728  0.00  0.00    -0.640 N 
ATOM     18  H   LIG    1        5.148   0.684   2.870  0.00  0.00    +0.440 HD
ATOM     19  C   LIG    1        3.843   2.091   2.094  0.00  0.00    +0.680 A 
ATOM     20  O   LIG    1        4.593   2.915   1.604  0.00  0.00    -0.550 OA
ATOM     21  N   LIG    1        2.499   2.163   2.084  0.00  0.00    -0.640 N 
ATOM     22  H   LIG    1        1.972   2.875   1.690  0.00  0.00    +0.430 HD
ATOM     23  C   LIG    1        1.994   1.041   2.733  0.00  0.00    +0.110 A 
ENDBRANCH   8  12
BRANCH   1  24
ATOM     24  O   LIG    1       -1.183   1.882  -3.437  0.00  0.00    -0.360 OA
BRANCH  24  26
ATOM     25  C   LIG    1       -0.780   0.095  -5.042  0.00  0.00    +0.040 C 
ATOM     26  C   LIG    1       -0.779   1.606  -4.805  0.00  0.00    +0.140 C 
ATOM     27  C   LIG    1        0.627   2.159  -5.043  0.00  0.00    +0.030 C 
ATOM     28  C   LIG    1       -1.760   2.274  -5.770  0.00  0.00    +0.080 C 
ENDBRANCH  24  26
ENDBRANCH   1  24
TORSDOF 3
