REMARK  Name = ZINC650000002GS6.1
REMARK                            x       y       z     vdW  Elec       q    Type
REMARK                         _______ _______ _______ _____ _____    ______ ____
ROOT
ATOM      1  O   LIG    1       -0.602   3.877  -1.950  0.00  0.00    -0.440 OA
ATOM      2  C   LIG    1       -0.093   2.959  -1.352  0.00  0.00    +0.370 C 
ATOM      3  C   LIG    1        1.199   2.987  -0.556  0.00  0.00    +0.020 C 
ATOM      4  C   LIG    1        1.369   1.556  -0.003  0.00  0.00    +0.170 C 
ATOM      5  N   LIG    1       -0.012   1.005   0.008  0.00  0.00    -0.660 NA
ATOM      6  H   LIG    1        0.002  -0.004   0.002  0.00  0.00    +0.350 HD
ATOM      7  C   LIG    1       -0.614   1.536  -1.242  0.00  0.00    +0.160 C 
ENDROOT
TORSDOF 0
