REMARK  Name = ZINC650000002GS6.0
REMARK                            x       y       z     vdW  Elec       q    Type
REMARK                         _______ _______ _______ _____ _____    ______ ____
ROOT
ATOM      1  O   LIG    1       -1.459   3.826   1.548  0.00  0.00    -0.370 OA
ATOM      2  C   LIG    1       -1.192   2.916   0.801  0.00  0.00    +0.360 C 
ATOM      3  C   LIG    1       -1.216   2.939  -0.717  0.00  0.00    +0.080 C 
ATOM      4  C   LIG    1       -0.783   1.523  -1.153  0.00  0.00    +0.290 C 
ATOM      5  N   LIG    1       -0.012   1.005   0.008  0.00  0.00    -0.510 N 
ATOM      6  H   LIG    1        0.928   1.372   0.001  0.00  0.00    +0.440 HD
ATOM      7  H   LIG    1        0.002  -0.004   0.002  0.00  0.00    +0.440 HD
ATOM      8  C   LIG    1       -0.760   1.510   1.187  0.00  0.00    +0.270 C 
ENDROOT
TORSDOF 0
