REMARK  Name = ZINCqH0000038A7f.1
REMARK                            x       y       z     vdW  Elec       q    Type
REMARK                         _______ _______ _______ _____ _____    ______ ____
ROOT
ATOM      1  C   LIG    1       -0.013   1.086   0.008  0.00  0.00    +0.170 C 
ENDROOT
BRANCH   1   2
ATOM      2  C   LIG    1        1.401   1.607  -0.003  0.00  0.00    -0.090 A 
ATOM      3  C   LIG    1        1.663   2.902   0.406  0.00  0.00    +0.090 A 
ATOM      4  C   LIG    1        2.960   3.380   0.402  0.00  0.00    -0.020 A 
ATOM      5  C   LIG    1        3.996   2.564  -0.022  0.00  0.00    +0.100 A 
ATOM      6  C   LIG    1        3.732   1.270  -0.436  0.00  0.00    -0.020 A 
ATOM      7  F   LIG    1        5.263   3.032  -0.032  0.00  0.00    -0.140 F 
ATOM      8  C   LIG    1        2.435   0.793  -0.426  0.00  0.00    +0.050 A 
ENDBRANCH   1   2
BRANCH   1   9
ATOM      9  N   LIG    1       -0.700   1.560   1.217  0.00  0.00    -0.680 NA
ATOM     10  H   LIG    1       -1.692   1.651   1.056  0.00  0.00    +0.350 HD
BRANCH   9  11
ATOM     11  C   LIG    1       -0.432   0.673   2.357  0.00  0.00    +0.260 C 
BRANCH  11  18
ATOM     12  C   LIG    1       -3.503   0.261   3.020  0.00  0.00    +0.160 C 
ATOM     13  C   LIG    1       -2.507   1.009   3.869  0.00  0.00    +0.090 A 
ATOM     14  N   LIG    1       -2.761   1.600   5.008  0.00  0.00    -0.290 NA
ATOM     15  N   LIG    1       -1.574   2.176   5.476  0.00  0.00    -0.480 N 
ATOM     16  H   LIG    1       -1.469   2.678   6.300  0.00  0.00    +0.440 HD
ATOM     17  C   LIG    1       -0.600   1.906   4.582  0.00  0.00    +0.260 A 
ATOM     18  C   LIG    1       -1.152   1.190   3.575  0.00  0.00    -0.240 A 
ENDBRANCH  11  18
ENDBRANCH   9  11
ENDBRANCH   1   9
BRANCH   1  19
ATOM     19  C   LIG    1       -0.753   1.593  -1.232  0.00  0.00    +0.320 C 
BRANCH  19  20
ATOM     20  N   LIG    1       -2.087   0.991  -1.284  0.00  0.00    -0.500 N 
ATOM     21  C   LIG    1       -2.441  -0.128  -1.972  0.00  0.00    +0.470 A 
ATOM     22  N   LIG    1       -3.705  -0.380  -1.797  0.00  0.00    -0.490 NA
ATOM     23  C   LIG    1       -4.250   0.560  -0.984  0.00  0.00    +0.050 A 
ATOM     24  C   LIG    1       -5.535   0.769  -0.477  0.00  0.00    +0.070 A 
ATOM     25  C   LIG    1       -5.777   1.828   0.352  0.00  0.00    +0.000 A 
ATOM     26  C   LIG    1       -4.759   2.708   0.691  0.00  0.00    +0.040 A 
ATOM     27  C   LIG    1       -3.483   2.524   0.200  0.00  0.00    +0.010 A 
ATOM     28  C   LIG    1       -3.218   1.450  -0.638  0.00  0.00    +0.040 A 
ENDBRANCH  19  20
ENDBRANCH   1  19
TORSDOF 6
