REMARK  Name = ZINCpk000000nuiW.0
REMARK                            x       y       z     vdW  Elec       q    Type
REMARK                         _______ _______ _______ _____ _____    ______ ____
ROOT
ATOM      1  C   LIG    1       -2.755   4.882   4.792  0.00  0.00    -0.650 A 
ATOM      2  C   LIG    1       -2.228   5.741   3.843  0.00  0.00    +0.120 A 
ATOM      3  C   LIG    1       -1.592   5.235   2.728  0.00  0.00    +0.080 A 
ATOM      4  C   LIG    1       -1.482   3.853   2.558  0.00  0.00    -0.070 A 
ATOM      5  C   LIG    1       -2.021   2.993   3.516  0.00  0.00    +0.070 A 
ATOM      6  C   LIG    1       -2.649   3.512   4.629  0.00  0.00    +0.120 A 
ENDROOT
BRANCH   1   7
ATOM      7  S   LIG    1       -3.564   5.537   6.213  0.00  0.00    +2.690 S 
ATOM      8  O   LIG    1       -3.055   6.851   6.395  0.00  0.00    -0.950 OA
ATOM      9  O   LIG    1       -3.494   4.531   7.214  0.00  0.00    -0.950 OA
BRANCH   7  10
ATOM     10  N   LIG    1       -5.166   5.705   5.831  0.00  0.00    -1.110 NA
ATOM     11  H   LIG    1       -5.566   6.588   5.795  0.00  0.00    +0.420 HD
BRANCH  10  12
ATOM     12  C   LIG    1       -5.980   4.521   5.548  0.00  0.00    +0.270 C 
BRANCH  12  14
ATOM     13  C   LIG    1       -7.775   5.882   4.467  0.00  0.00    +0.030 C 
ATOM     14  C   LIG    1       -7.462   4.897   5.595  0.00  0.00    -0.020 C 
ATOM     15  C   LIG    1       -8.314   3.637   5.423  0.00  0.00    +0.030 C 
ENDBRANCH  12  14
ENDBRANCH  10  12
ENDBRANCH   7  10
ENDBRANCH   1   7
BRANCH   4  16
ATOM     16  C   LIG    1       -0.803   3.304   1.366  0.00  0.00    +0.510 C 
ATOM     17  O   LIG    1       -0.339   4.055   0.531  0.00  0.00    -0.490 OA
BRANCH  16  18
ATOM     18  O   LIG    1       -0.698   1.971   1.205  0.00  0.00    -0.330 OA
BRANCH  18  19
ATOM     19  C   LIG    1       -0.018   1.503   0.010  0.00  0.00    +0.270 C 
BRANCH  19  20
ATOM     20  C   LIG    1        0.002  -0.004   0.002  0.00  0.00    +0.530 C 
ATOM     21  N   LIG    1        0.585  -0.664  -1.018  0.00  0.00    -0.620 N 
ATOM     22  C   LIG    1        1.230  -0.043  -2.184  0.00  0.00    +0.230 C 
ATOM     23  C   LIG    1        1.730  -1.185  -3.094  0.00  0.00    +0.040 C 
ATOM     24  C   LIG    1        0.834  -2.380  -2.673  0.00  0.00    +0.040 C 
ATOM     25  C   LIG    1        0.676  -2.130  -1.152  0.00  0.00    +0.260 C 
ATOM     26  O   LIG    1       -0.506  -0.622   0.913  0.00  0.00    -0.510 OA
ENDBRANCH  19  20
ENDBRANCH  18  19
ENDBRANCH  16  18
ENDBRANCH   4  16
TORSDOF 8
