REMARK  Name = ZINCvU0000000CrP.0
REMARK                            x       y       z     vdW  Elec       q    Type
REMARK                         _______ _______ _______ _____ _____    ______ ____
ROOT
ATOM      1  N   LIG    1        0.403   1.435  -1.588  0.00  0.00    -0.720 N 
ATOM      2  H   LIG    1        0.558   0.626  -2.100  0.00  0.00    +0.410 HD
ATOM      3  C   LIG    1       -0.752   2.115  -1.734  0.00  0.00    +0.520 C 
ATOM      4  O   LIG    1       -0.945   3.126  -1.093  0.00  0.00    -0.510 OA
ENDROOT
BRANCH   3   5
ATOM      5  C   LIG    1       -1.802   1.618  -2.694  0.00  0.00    +0.010 C 
ATOM      6  C   LIG    1       -2.260   0.219  -2.277  0.00  0.00    +0.090 C 
ATOM      7  C   LIG    1       -3.480  -0.179  -3.054  0.00  0.00    -0.040 C 
ATOM      8  C   LIG    1       -4.233   0.654  -3.699  0.00  0.00    -0.040 C 
ATOM      9  C   LIG    1       -3.984   2.132  -3.767  0.00  0.00    +0.080 C 
ATOM     10  C   LIG    1       -3.013   2.559  -2.665  0.00  0.00    +0.110 C 
BRANCH  10  11
ATOM     11  C   LIG    1       -2.560   3.976  -2.904  0.00  0.00    +0.120 A 
ATOM     12  N   LIG    1       -2.732   4.936  -2.075  0.00  0.00    -0.440 NA
ATOM     13  C   LIG    1       -2.275   6.154  -2.421  0.00  0.00    +0.090 A 
ATOM     14  C   LIG    1       -2.327   7.370  -1.711  0.00  0.00    +0.070 A 
ATOM     15  C   LIG    1       -1.798   8.505  -2.246  0.00  0.00    +0.020 A 
ATOM     16  C   LIG    1       -1.197   8.488  -3.497  0.00  0.00    +0.030 A 
ATOM     17  C   LIG    1       -1.131   7.314  -4.213  0.00  0.00    +0.060 A 
ATOM     18  C   LIG    1       -1.668   6.143  -3.682  0.00  0.00    -0.180 A 
ATOM     19  S   LIG    1       -1.747   4.500  -4.310  0.00  0.00    +0.070 S 
ENDBRANCH  10  11
ENDBRANCH   3   5
BRANCH   1  20
ATOM     20  C   LIG    1        1.426   1.921  -0.659  0.00  0.00    +0.300 C 
BRANCH  20  23
ATOM     21  N   LIG    1        3.683   1.241   0.092  0.00  0.00    -0.670 N 
ATOM     22  H   LIG    1        3.712   2.047   0.632  0.00  0.00    +0.410 HD
ATOM     23  C   LIG    1        2.612   0.992  -0.687  0.00  0.00    +0.510 C 
ATOM     24  O   LIG    1        2.604   0.019  -1.412  0.00  0.00    -0.510 OA
BRANCH  21  29
ATOM     25  C   LIG    1        8.017  -2.418   0.217  0.00  0.00    +0.090 C 
ATOM     26  C   LIG    1        6.865  -1.446   0.185  0.00  0.00    -0.080 A 
ATOM     27  C   LIG    1        7.101  -0.105  -0.062  0.00  0.00    +0.010 A 
ATOM     28  C   LIG    1        6.048   0.788  -0.094  0.00  0.00    -0.090 A 
ATOM     29  C   LIG    1        4.752   0.339   0.123  0.00  0.00    +0.130 A 
ATOM     30  C   LIG    1        4.519  -1.006   0.377  0.00  0.00    -0.060 A 
ATOM     31  C   LIG    1        3.115  -1.497   0.619  0.00  0.00    +0.080 C 
ATOM     32  C   LIG    1        6.305   2.248  -0.363  0.00  0.00    +0.080 C 
ATOM     33  C   LIG    1        5.576  -1.896   0.401  0.00  0.00    +0.010 A 
ENDBRANCH  21  29
ENDBRANCH  20  23
ENDBRANCH   1  20
TORSDOF 5
