REMARK  Name = ZINCvU0000000HpJ.0
REMARK                            x       y       z     vdW  Elec       q    Type
REMARK                         _______ _______ _______ _____ _____    ______ ____
ROOT
ATOM      1  C   LIG    1       -2.499   1.499   0.045  0.00  0.00    +0.430 C 
ATOM      2  C   LIG    1       -1.306   2.147  -0.187  0.00  0.00    -0.310 C 
ATOM      3  C   LIG    1       -1.274   3.578  -0.513  0.00  0.00    +0.580 C 
ATOM      4  N   LIG    1       -0.107   4.204  -0.734  0.00  0.00    -0.510 N 
ATOM      5  C   LIG    1        1.079   3.577  -0.676  0.00  0.00    +0.570 C 
ATOM      6  C   LIG    1        1.166   2.145  -0.364  0.00  0.00    -0.160 A 
ATOM      7  C   LIG    1        2.395   1.487  -0.303  0.00  0.00    +0.110 A 
ATOM      8  C   LIG    1        2.434   0.142  -0.006  0.00  0.00    -0.020 A 
ATOM      9  C   LIG    1        1.266  -0.566   0.233  0.00  0.00    +0.060 A 
ATOM     10  C   LIG    1        0.040   0.065   0.177  0.00  0.00    -0.010 A 
ATOM     11  O   LIG    1        2.099   4.206  -0.887  0.00  0.00    -0.490 OA
ATOM     12  O   LIG    1       -2.316   4.204  -0.579  0.00  0.00    -0.520 OA
ATOM     13  C   LIG    1       -0.021   1.421  -0.121  0.00  0.00    +0.050 A 
ENDROOT
BRANCH   4  14
ATOM     14  C   LIG    1       -0.128   5.572  -1.037  0.00  0.00    +0.110 A 
ATOM     15  C   LIG    1       -0.219   5.990  -2.357  0.00  0.00    +0.030 A 
ATOM     16  C   LIG    1       -0.239   7.339  -2.653  0.00  0.00    +0.010 A 
ATOM     17  C   LIG    1       -0.169   8.273  -1.635  0.00  0.00    -0.070 A 
ATOM     18  C   LIG    1       -0.077   7.859  -0.319  0.00  0.00    +0.020 A 
ATOM     19  C   LIG    1       -0.191   9.744  -1.961  0.00  0.00    +0.090 C 
ATOM     20  C   LIG    1       -0.063   6.511  -0.016  0.00  0.00    -0.060 A 
ATOM     21  C   LIG    1        0.030   6.061   1.419  0.00  0.00    +0.090 C 
ENDBRANCH   4  14
BRANCH   1  22
ATOM     22  N   LIG    1       -3.649   2.215   0.168  0.00  0.00    -0.620 N 
ATOM     23  H   LIG    1       -3.619   3.184   0.174  0.00  0.00    +0.430 HD
BRANCH  22  28
ATOM     24  C   LIG    1       -7.269   1.616   0.530  0.00  0.00    -0.130 A 
ATOM     25  C   LIG    1       -7.300   0.218   0.520  0.00  0.00    +0.040 A 
ATOM     26  C   LIG    1       -6.127  -0.497   0.395  0.00  0.00    +0.050 A 
ATOM     27  C   LIG    1       -4.918   0.163   0.273  0.00  0.00    -0.010 A 
ATOM     28  C   LIG    1       -4.875   1.553   0.287  0.00  0.00    +0.140 A 
ATOM     29  C   LIG    1       -6.046   2.283   0.412  0.00  0.00    +0.050 A 
BRANCH  24  31
ATOM     30  C   LIG    1       -9.835   1.660   0.791  0.00  0.00    +0.080 C 
ATOM     31  C   LIG    1       -8.518   2.382   0.664  0.00  0.00    +0.390 C 
ATOM     32  O   LIG    1       -8.488   3.594   0.673  0.00  0.00    -0.450 OA
ENDBRANCH  24  31
ENDBRANCH  22  28
ENDBRANCH   1  22
TORSDOF 4
