REMARK  Name = ZINCah0000006lD7.0
REMARK                            x       y       z     vdW  Elec       q    Type
REMARK                         _______ _______ _______ _____ _____    ______ ____
ROOT
ATOM      1  CA  LIG    1       -1.298   1.795   0.018  0.00  0.00    +0.020 A 
ATOM      2  N   LIG    1       -2.439   1.110   0.014  0.00  0.00    -0.420 NA
ATOM      3  C   LIG    1       -3.607   1.712   0.029  0.00  0.00    +0.310 A 
ATOM      4  C   LIG    1       -3.697   3.095   0.036  0.00  0.00    +0.020 A 
ATOM      5  C   LIG    1       -2.537   3.854   0.035  0.00  0.00    +0.100 A 
ATOM      6  F   LIG    1       -2.593   5.204   0.042  0.00  0.00    -0.110 F 
ATOM      7  C   LIG    1       -1.312   3.192   0.026  0.00  0.00    +0.070 A 
ATOM      8  F   LIG    1       -0.155   3.890   0.024  0.00  0.00    -0.100 F 
ENDROOT
BRANCH   1  10
ATOM      9  O   LIG    1        1.029   1.696   0.001  0.00  0.00    -0.430 OA
ATOM     10  C   LIG    1       -0.013   1.076   0.008  0.00  0.00    +0.540 C 
ENDBRANCH   1  10
TORSDOF 1
