REMARK  Name = ZINCrH00000No4VB.0
REMARK                            x       y       z     vdW  Elec       q    Type
REMARK                         _______ _______ _______ _____ _____    ______ ____
ROOT
ATOM      1  C   LIG    1        4.497   4.061   1.199  0.00  0.00    +0.460 C 
ATOM      2  O   LIG    1        5.554   3.478   1.260  0.00  0.00    -0.480 OA
ENDROOT
BRANCH   1   3
ATOM      3  O   LIG    1        3.456   3.498   0.567  0.00  0.00    -0.340 OA
BRANCH   3   4
ATOM      4  C   LIG    1        3.671   2.187  -0.021  0.00  0.00    +0.380 C 
BRANCH   4   5
ATOM      5  C   LIG    1        2.377   1.415  -0.013  0.00  0.00    -0.120 A 
ATOM      6  C   LIG    1        1.171   2.087   0.002  0.00  0.00    +0.100 A 
ATOM      7  C   LIG    1       -0.017   1.379   0.010  0.00  0.00    +0.030 A 
ATOM      8  C   LIG    1        0.002  -0.004   0.002  0.00  0.00    -0.000 A 
ATOM      9  C   LIG    1        1.209  -0.679  -0.013  0.00  0.00    +0.000 A 
ATOM     10 CL   LIG    1       -1.489  -0.892   0.012  0.00  0.00    -0.050 Cl
ATOM     11  C   LIG    1        2.398   0.030  -0.021  0.00  0.00    +0.130 A 
ATOM     12  F   LIG    1        3.578  -0.628  -0.035  0.00  0.00    -0.120 F 
ENDBRANCH   4   5
BRANCH   4  14
ATOM     13  C   LIG    1        4.517   2.466  -2.513  0.00  0.00    +0.100 C 
ATOM     14  C   LIG    1        4.141   2.343  -1.407  0.00  0.00    -0.230 C 
ENDBRANCH   4  14
ENDBRANCH   3   4
ENDBRANCH   1   3
BRANCH   1  15
ATOM     15  C   LIG    1        4.348   5.420   1.833  0.00  0.00    +0.160 C 
BRANCH  15  16
ATOM     16  C   LIG    1        5.653   5.821   2.473  0.00  0.00    -0.060 A 
ATOM     17  C   LIG    1        5.864   5.586   3.818  0.00  0.00    +0.030 A 
ATOM     18  C   LIG    1        7.063   5.950   4.403  0.00  0.00    +0.020 A 
ATOM     19  C   LIG    1        8.046   6.558   3.645  0.00  0.00    +0.020 A 
ATOM     20  C   LIG    1        7.832   6.798   2.300  0.00  0.00    +0.030 A 
ATOM     21  C   LIG    1        6.636   6.429   1.714  0.00  0.00    -0.090 A 
BRANCH  21  22
ATOM     22  C   LIG    1        6.403   6.691   0.248  0.00  0.00    +0.310 C 
BRANCH  22  23
ATOM     23  N   LIG    1        5.587   7.897   0.091  0.00  0.00    -0.720 N 
ATOM     24  H   LIG    1        5.289   8.386   0.874  0.00  0.00    +0.400 HD
ATOM     25  C   LIG    1        5.250   8.327  -1.141  0.00  0.00    +0.540 C 
ATOM     26  O   LIG    1        5.623   7.713  -2.122  0.00  0.00    -0.540 OA
BRANCH  25  27
ATOM     27  C   LIG    1        4.430   9.538  -1.299  0.00  0.00    -0.090 C 
ATOM     28  C   LIG    1        4.098   9.962  -2.515  0.00  0.00    +0.140 C 
ENDBRANCH  25  27
ENDBRANCH  22  23
ENDBRANCH  21  22
ENDBRANCH  15  16
ENDBRANCH   1  15
TORSDOF 9
