REMARK  Name = ZINCb80000003K7K.0
REMARK                            x       y       z     vdW  Elec       q    Type
REMARK                         _______ _______ _______ _____ _____    ______ ____
ROOT
ATOM      1  C   LIG    1       -0.534   3.857   2.165  0.00  0.00    +0.560 C 
ATOM      2  S   LIG    1        0.026   3.197   3.643  0.00  0.00    -0.640 S 
ENDROOT
BRANCH   1   3
ATOM      3  N   LIG    1       -0.904   3.039   1.160  0.00  0.00    -0.580 N 
ATOM      4  C   LIG    1       -0.730   1.581   1.267  0.00  0.00    +0.300 C 
ATOM      5  C   LIG    1       -0.009   1.087   0.008  0.00  0.00    +0.230 C 
ATOM      6  O   LIG    1       -0.701   1.561  -1.149  0.00  0.00    -0.370 OA
ATOM      7  C   LIG    1       -0.731   2.985  -1.270  0.00  0.00    +0.220 C 
ATOM      8  C   LIG    1       -1.491   3.577  -0.078  0.00  0.00    +0.240 C 
ENDBRANCH   1   3
BRANCH   1   9
ATOM      9  N   LIG    1       -0.606   5.193   2.008  0.00  0.00    -0.690 N 
ATOM     10  H   LIG    1       -0.992   5.566   1.200  0.00  0.00    +0.390 HD
BRANCH   9  12
ATOM     11  C   LIG    1       -0.301   7.538   2.631  0.00  0.00    +0.030 C 
ATOM     12  C   LIG    1       -0.101   6.082   3.057  0.00  0.00    +0.300 C 
ENDBRANCH   9  12
ENDBRANCH   1   9
TORSDOF 3
