REMARK  Name = ZINCpe00000MJLxk.0
REMARK                            x       y       z     vdW  Elec       q    Type
REMARK                         _______ _______ _______ _____ _____    ______ ____
ROOT
ATOM      1  C   LIG    1       -2.289   6.741   3.306  0.00  0.00    +0.610 C 
ATOM      2  N   LIG    1       -2.467   6.691   1.971  0.00  0.00    -0.700 N 
ATOM      3  H   LIG    1       -2.017   7.330   1.397  0.00  0.00    +0.410 HD
ATOM      4  O   LIG    1       -2.854   5.939   4.025  0.00  0.00    -0.530 OA
ENDROOT
BRANCH   1   7
ATOM      5  N   LIG    1       -0.297   8.971   5.335  0.00  0.00    -0.300 N 
ATOM      6  C   LIG    1       -1.144   7.925   5.226  0.00  0.00    +0.310 A 
ATOM      7  C   LIG    1       -1.408   7.767   3.895  0.00  0.00    -0.100 A 
ATOM      8  N   LIG    1       -0.726   8.702   3.212  0.00  0.00    -0.200 NA
ATOM      9  N   LIG    1       -0.060   9.437   4.033  0.00  0.00    -0.050 NA
BRANCH   5  16
ATOM     10  C   LIG    1        1.671  11.018   5.134  0.00  0.00    +0.120 C 
ATOM     11  C   LIG    1        1.205  10.491   6.467  0.00  0.00    -0.060 A 
ATOM     12  C   LIG    1        1.734  11.001   7.636  0.00  0.00    +0.040 A 
ATOM     13  C   LIG    1        1.306  10.517   8.859  0.00  0.00    +0.040 A 
ATOM     14  C   LIG    1        0.348   9.522   8.915  0.00  0.00    +0.040 A 
ATOM     15  C   LIG    1       -0.189   9.012   7.749  0.00  0.00    +0.020 A 
ATOM     16  C   LIG    1        0.242   9.491   6.520  0.00  0.00    +0.120 A 
ENDBRANCH   5  16
ENDBRANCH   1   7
BRANCH   2  17
ATOM     17  C   LIG    1       -3.342   5.672   1.386  0.00  0.00    +0.250 C 
ATOM     18  C   LIG    1       -4.675   6.231   0.862  0.00  0.00    +0.030 C 
ATOM     19  C   LIG    1       -4.516   5.276  -0.332  0.00  0.00    +0.180 C 
ATOM     20  C   LIG    1       -3.001   5.331  -0.074  0.00  0.00    +0.270 C 
BRANCH  20  21
ATOM     21  N   LIG    1       -2.330   4.039  -0.234  0.00  0.00    -0.360 N 
ATOM     22  C   LIG    1       -2.934   2.833  -0.288  0.00  0.00    +0.220 A 
ATOM     23  C   LIG    1       -1.969   1.896  -0.438  0.00  0.00    -0.120 A 
ATOM     24  C   LIG    1       -0.735   2.552  -0.486  0.00  0.00    +0.230 A 
ATOM     25  N   LIG    1       -0.950   3.837  -0.364  0.00  0.00    -0.290 NA
ENDBRANCH  20  21
BRANCH  19  26
ATOM     26  O   LIG    1       -4.905   5.849  -1.582  0.00  0.00    -0.550 OA
ATOM     27  H   LIG    1       -5.857   5.817  -1.750  0.00  0.00    +0.390 HD
ENDBRANCH  19  26
ENDBRANCH   2  17
TORSDOF 5
