REMARK  Name = ZINCqH0000008TJT.0
REMARK                            x       y       z     vdW  Elec       q    Type
REMARK                         _______ _______ _______ _____ _____    ______ ____
ROOT
ATOM      1  C   LIG    1        1.156  -1.732   0.379  0.00  0.00    +0.060 C 
ATOM      2  C   LIG    1        1.303  -0.612  -0.653  0.00  0.00    +0.180 C 
ATOM      3  C   LIG    1        1.569  -1.219  -2.031  0.00  0.00    +0.230 C 
ATOM      4  O   LIG    1        0.403  -1.918  -2.473  0.00  0.00    -0.370 OA
ATOM      5  C   LIG    1       -0.748  -1.086  -2.644  0.00  0.00    +0.220 C 
ATOM      6  C   LIG    1       -1.134  -0.474  -1.293  0.00  0.00    +0.250 C 
ATOM      7  N   LIG    1        0.058   0.170  -0.717  0.00  0.00    -0.600 N 
ATOM      8  C   LIG    1        0.012   1.439  -0.267  0.00  0.00    +0.570 C 
ATOM      9  O   LIG    1        0.975   1.919   0.300  0.00  0.00    -0.490 OA
ENDROOT
BRANCH   8  10
ATOM     10  C   LIG    1       -1.204   2.248  -0.467  0.00  0.00    -0.170 A 
ATOM     11  C   LIG    1       -2.467   1.674  -0.411  0.00  0.00    +0.290 A 
ATOM     12  N   LIG    1       -3.560   2.398  -0.585  0.00  0.00    -0.500 NA
ATOM     13  C   LIG    1       -3.548   3.687  -0.831  0.00  0.00    +0.360 A 
ATOM     14  C   LIG    1       -2.338   4.393  -0.919  0.00  0.00    -0.130 A 
ATOM     15  C   LIG    1       -2.296   5.772  -1.182  0.00  0.00    +0.100 A 
ATOM     16  C   LIG    1       -1.092   6.404  -1.258  0.00  0.00    +0.000 A 
ATOM     17  C   LIG    1        0.102   5.704  -1.079  0.00  0.00    +0.130 A 
ATOM     18  C   LIG    1        0.096   4.361  -0.822  0.00  0.00    +0.010 A 
ATOM     19  F   LIG    1        1.279   6.362  -1.160  0.00  0.00    -0.130 F 
ATOM     20  C   LIG    1       -1.122   3.684  -0.738  0.00  0.00    +0.040 A 
ENDBRANCH   8  10
BRANCH   2  21
ATOM     21  C   LIG    1        2.448   0.288  -0.267  0.00  0.00    -0.050 A 
ATOM     22  C   LIG    1        3.024   1.118  -1.212  0.00  0.00    +0.000 A 
ATOM     23  C   LIG    1        4.071   1.947  -0.857  0.00  0.00    +0.010 A 
ATOM     24  C   LIG    1        4.550   1.940   0.440  0.00  0.00    +0.000 A 
ATOM     25  C   LIG    1        3.978   1.107   1.383  0.00  0.00    +0.010 A 
ATOM     26  C   LIG    1        2.927   0.281   1.029  0.00  0.00    +0.020 A 
ENDBRANCH   2  21
TORSDOF 2
