REMARK  Name = ZINCbw0000000rbE.0
REMARK                            x       y       z     vdW  Elec       q    Type
REMARK                         _______ _______ _______ _____ _____    ______ ____
ROOT
ATOM      1  C   LIG    1        0.002  -0.004   0.002  0.00  0.00    +0.250 A 
ATOM      2  C   LIG    1        1.216  -0.680  -0.013  0.00  0.00    -0.080 A 
ATOM      3  C   LIG    1        2.401   0.030  -0.021  0.00  0.00    +0.090 A 
ATOM      4  C   LIG    1        2.381   1.413  -0.013  0.00  0.00    -0.090 A 
ATOM      5  C   LIG    1        1.173   2.090   0.002  0.00  0.00    +0.150 A 
ATOM      6  F   LIG    1        1.156   3.441   0.009  0.00  0.00    -0.140 F 
ATOM      7  C   LIG    1       -0.017   1.385   0.010  0.00  0.00    -0.110 A 
ENDROOT
BRANCH   1   8
ATOM      8  N   LIG    1       -1.197  -0.720   0.010  0.00  0.00    -0.740 N 
ATOM      9  H   LIG    1       -2.044  -0.247   0.021  0.00  0.00    +0.400 HD
BRANCH   8  11
ATOM     10  C   LIG    1       -1.028  -2.701   1.435  0.00  0.00    +0.020 C 
ATOM     11  C   LIG    1       -1.176  -2.185   0.002  0.00  0.00    +0.220 C 
ATOM     12  C   LIG    1       -2.481  -2.711  -0.598  0.00  0.00    +0.030 C 
ENDBRANCH   8  11
ENDBRANCH   1   8
TORSDOF 2
