REMARK  Name = ZINCrD00000l687R.0
REMARK                            x       y       z     vdW  Elec       q    Type
REMARK                         _______ _______ _______ _____ _____    ______ ____
ROOT
ATOM      1  C   LIG    1       -0.693   3.087   1.310  0.00  0.00    +0.480 C 
ATOM      2  O   LIG    1       -0.146   3.703   0.426  0.00  0.00    -0.490 OA
ENDROOT
BRANCH   1   3
ATOM      3  C   LIG    1       -0.732   1.581   1.266  0.00  0.00    -0.000 C 
ATOM      4  C   LIG    1       -0.013   1.086   0.008  0.00  0.00    +0.040 C 
ATOM      5  C   LIG    1       -0.756   1.594  -1.230  0.00  0.00    +0.220 C 
ATOM      6  O   LIG    1       -2.111   1.144  -1.189  0.00  0.00    -0.380 OA
ATOM      7  C   LIG    1       -2.849   1.615  -0.059  0.00  0.00    +0.220 C 
ATOM      8  C   LIG    1       -2.190   1.107   1.226  0.00  0.00    +0.050 C 
BRANCH   3   9
ATOM      9  C   LIG    1       -0.052   1.022   2.489  0.00  0.00    -0.080 A 
ATOM     10  C   LIG    1       -0.528   1.334   3.749  0.00  0.00    +0.060 A 
ATOM     11  C   LIG    1        0.095   0.820   4.871  0.00  0.00    +0.030 A 
ATOM     12  C   LIG    1        1.195  -0.004   4.734  0.00  0.00    +0.060 A 
ATOM     13  C   LIG    1        1.673  -0.317   3.474  0.00  0.00    -0.090 A 
ATOM     14 BR   LIG    1        3.179  -1.445   3.285  0.00  0.00    -0.040 Br
ATOM     15  C   LIG    1        1.045   0.192   2.351  0.00  0.00    +0.060 A 
ENDBRANCH   3   9
ENDBRANCH   1   3
BRANCH   1  16
ATOM     16  O   LIG    1       -1.266   3.744   2.330  0.00  0.00    -0.330 OA
BRANCH  16  17
ATOM     17  C   LIG    1       -1.189   5.194   2.307  0.00  0.00    +0.240 C 
BRANCH  17  19
ATOM     18  O   LIG    1       -2.389   5.003   4.331  0.00  0.00    -0.410 OA
ATOM     19  C   LIG    1       -1.881   5.753   3.523  0.00  0.00    +0.400 C 
BRANCH  19  20
ATOM     20  C   LIG    1       -1.941   7.202   3.730  0.00  0.00    -0.210 A 
ATOM     21  C   LIG    1       -1.351   8.071   2.803  0.00  0.00    +0.100 A 
ATOM     22  C   LIG    1       -1.411   9.421   2.995  0.00  0.00    -0.030 A 
ATOM     23  C   LIG    1       -2.050   9.944   4.117  0.00  0.00    +0.170 A 
ATOM     24  C   LIG    1       -2.635   9.099   5.049  0.00  0.00    -0.040 A 
ATOM     25  C   LIG    1       -2.586   7.728   4.864  0.00  0.00    +0.190 A 
BRANCH  23  26
ATOM     26  O   LIG    1       -2.099  11.288   4.300  0.00  0.00    -0.490 OA
ATOM     27  H   LIG    1       -1.353  11.644   4.801  0.00  0.00    +0.400 HD
ENDBRANCH  23  26
BRANCH  25  28
ATOM     28  O   LIG    1       -3.156   6.897   5.772  0.00  0.00    -0.480 OA
ATOM     29  H   LIG    1       -2.561   6.623   6.483  0.00  0.00    +0.400 HD
ENDBRANCH  25  28
ENDBRANCH  19  20
ENDBRANCH  17  19
ENDBRANCH  16  17
ENDBRANCH   1  16
TORSDOF 8
