REMARK  Name = ZINCpk00001AZiwJ.0
REMARK                            x       y       z     vdW  Elec       q    Type
REMARK                         _______ _______ _______ _____ _____    ______ ____
ROOT
ATOM      1  C   LIG    1        3.660   3.389  -0.014  0.00  0.00    +0.250 C 
ATOM      2  C   LIG    1        3.580   3.946  -1.451  0.00  0.00    +0.240 C 
ATOM      3  N   LIG    1        4.515   5.077  -1.533  0.00  0.00    -0.620 N 
ATOM      4  C   LIG    1        5.149   5.263  -0.215  0.00  0.00    +0.280 C 
ATOM      5  C   LIG    1        4.754   5.820  -2.632  0.00  0.00    +0.530 C 
ATOM      6  O   LIG    1        5.551   6.734  -2.584  0.00  0.00    -0.530 OA
ATOM      7  C   LIG    1        5.050   3.879   0.472  0.00  0.00    +0.090 C 
ENDROOT
BRANCH   7   8
ATOM      8  C   LIG    1        5.080   4.017   1.972  0.00  0.00    +0.010 A 
ATOM      9  C   LIG    1        4.673   5.090   2.677  0.00  0.00    +0.120 A 
ATOM     10  N   LIG    1        4.872   4.795   3.998  0.00  0.00    -0.460 N 
ATOM     11  C   LIG    1        5.394   3.551   4.056  0.00  0.00    +0.400 A 
ATOM     12  C   LIG    1        4.575   5.667   5.138  0.00  0.00    +0.330 C 
ATOM     13  N   LIG    1        5.511   3.090   2.841  0.00  0.00    -0.480 NA
ENDBRANCH   7   8
BRANCH   1  14
ATOM     14  N   LIG    1        3.599   1.925  -0.021  0.00  0.00    -0.690 N 
ATOM     15  H   LIG    1        4.418   1.406  -0.031  0.00  0.00    +0.420 HD
BRANCH  14  18
ATOM     16  C   LIG    1       -0.016   1.326   0.009  0.00  0.00    +0.390 A 
ATOM     17  C   LIG    1        1.188   2.017   0.002  0.00  0.00    -0.180 A 
ATOM     18  C   LIG    1        2.371   1.282  -0.013  0.00  0.00    +0.470 A 
ATOM     19  N   LIG    1        2.305  -0.047  -0.020  0.00  0.00    -0.590 NA
ATOM     20  C   LIG    1        1.141  -0.665  -0.012  0.00  0.00    +0.580 A 
ATOM     21  N   LIG    1        0.002  -0.004   0.002  0.00  0.00    -0.610 NA
BRANCH  16  22
ATOM     22  O   LIG    1       -1.194   1.997   0.019  0.00  0.00    -0.300 OA
BRANCH  22  24
ATOM     23  C   LIG    1       -3.606   2.138   0.031  0.00  0.00    +0.060 C 
ATOM     24  C   LIG    1       -2.388   1.212   0.020  0.00  0.00    +0.210 C 
ENDBRANCH  22  24
ENDBRANCH  16  22
ENDBRANCH  14  18
ENDBRANCH   1  14
BRANCH   5  25
ATOM     25  C   LIG    1        4.032   5.517  -3.919  0.00  0.00    +0.040 C 
ATOM     26  C   LIG    1        4.482   6.500  -5.001  0.00  0.00    +0.040 C 
ENDBRANCH   5  25
TORSDOF 6
