REMARK  Name = ZINCpk00000KfL68.0
REMARK                            x       y       z     vdW  Elec       q    Type
REMARK                         _______ _______ _______ _____ _____    ______ ____
ROOT
ATOM      1  N   LIG    1       -1.246   0.844   1.425  0.00  0.00    -0.690 NA
ATOM      2  H   LIG    1       -2.053   1.379   1.369  0.00  0.00    +0.410 HD
ENDROOT
BRANCH   1   7
ATOM      3  N   LIG    1       -0.676   1.668   3.657  0.00  0.00    -0.370 N 
ATOM      4  N   LIG    1        0.392   1.382   4.526  0.00  0.00    -0.090 NA
ATOM      5  N   LIG    1        1.143   0.524   3.925  0.00  0.00    -0.010 NA
ATOM      6  N   LIG    1        0.658   0.236   2.771  0.00  0.00    -0.360 NA
ATOM      7  C   LIG    1       -0.454   0.904   2.558  0.00  0.00    +0.510 C 
BRANCH   3  12
ATOM      8  C   LIG    1       -4.990   5.244   4.557  0.00  0.00    +0.100 C 
ATOM      9  C   LIG    1       -3.845   4.295   4.318  0.00  0.00    -0.070 A 
ATOM     10  C   LIG    1       -3.480   3.392   5.300  0.00  0.00    +0.040 A 
ATOM     11  C   LIG    1       -2.431   2.521   5.084  0.00  0.00    +0.050 A 
ATOM     12  C   LIG    1       -1.742   2.551   3.879  0.00  0.00    +0.120 A 
ATOM     13  C   LIG    1       -2.108   3.462   2.897  0.00  0.00    +0.010 A 
ATOM     14  C   LIG    1       -3.161   4.327   3.117  0.00  0.00    +0.040 A 
ENDBRANCH   3  12
ENDBRANCH   1   7
BRANCH   1  15
ATOM     15  C   LIG    1       -0.864  -0.026   0.310  0.00  0.00    +0.330 C 
BRANCH  15  16
ATOM     16  C   LIG    1       -1.901   0.093  -0.808  0.00  0.00    +0.040 C 
BRANCH  16  17
ATOM     17  C   LIG    1       -1.509  -0.803  -1.955  0.00  0.00    +0.520 C 
ATOM     18  N   LIG    1       -2.280  -0.861  -3.059  0.00  0.00    -0.610 N 
ATOM     19  C   LIG    1       -3.513  -0.064  -3.165  0.00  0.00    +0.250 C 
ATOM     20  C   LIG    1       -3.478   0.695  -4.501  0.00  0.00    +0.140 C 
ATOM     21  O   LIG    1       -3.229  -0.231  -5.561  0.00  0.00    -0.370 OA
ATOM     22  C   LIG    1       -1.964  -0.892  -5.475  0.00  0.00    +0.190 C 
ATOM     23  C   LIG    1       -0.844   0.150  -5.447  0.00  0.00    +0.020 C 
ATOM     24  C   LIG    1       -4.826   1.383  -4.730  0.00  0.00    +0.060 C 
ATOM     25  C   LIG    1       -1.917  -1.728  -4.191  0.00  0.00    +0.270 C 
ATOM     26  O   LIG    1       -0.499  -1.471  -1.884  0.00  0.00    -0.530 OA
ENDBRANCH  16  17
ENDBRANCH  15  16
ENDBRANCH   1  15
TORSDOF 5
