REMARK  Name = ZINCqH00000h4iyE.1
REMARK                            x       y       z     vdW  Elec       q    Type
REMARK                         _______ _______ _______ _____ _____    ______ ____
ROOT
ATOM      1  C   LIG    1        0.001  -0.002   0.008  0.00  0.00    +0.170 A 
ATOM      2  C   LIG    1       -0.012   1.378   0.201  0.00  0.00    +0.030 A 
ATOM      3  C   LIG    1        1.152   2.091   0.202  0.00  0.00    +0.100 A 
ATOM      4  C   LIG    1        2.373   1.436   0.007  0.00  0.00    +0.040 A 
ATOM      5  N   LIG    1        3.658   1.863  -0.042  0.00  0.00    -0.460 NA
ATOM      6  C   LIG    1        4.456   0.842  -0.253  0.00  0.00    +0.360 A 
ATOM      7  N   LIG    1        3.716  -0.310  -0.351  0.00  0.00    -0.590 N 
ATOM      8  H   LIG    1        4.059  -1.204  -0.506  0.00  0.00    +0.430 HD
ATOM      9  C   LIG    1        2.389   0.043  -0.189  0.00  0.00    +0.080 A 
ATOM     10  C   LIG    1        1.200  -0.669  -0.188  0.00  0.00    -0.010 A 
ENDROOT
BRANCH   6  11
ATOM     11  C   LIG    1        5.920   0.920  -0.367  0.00  0.00    +0.020 A 
ATOM     12  C   LIG    1        6.670   2.054  -0.278  0.00  0.00    +0.030 A 
ATOM     13  C   LIG    1        8.012   1.665  -0.441  0.00  0.00    -0.060 A 
ATOM     14  C   LIG    1        8.018   0.329  -0.629  0.00  0.00    +0.200 A 
ATOM     15  O   LIG    1        6.753  -0.117  -0.584  0.00  0.00    -0.170 OA
ENDBRANCH   6  11
BRANCH   1  18
ATOM     16  O   LIG    1       -2.276   0.950  -0.992  0.00  0.00    -0.510 OA
ATOM     17  C   LIG    1       -2.325  -0.147  -0.470  0.00  0.00    +0.580 C 
ATOM     18  N   LIG    1       -1.202  -0.717   0.010  0.00  0.00    -0.660 N 
ATOM     19  H   LIG    1       -1.227  -1.623   0.356  0.00  0.00    +0.410 HD
BRANCH  17  20
ATOM     20  C   LIG    1       -3.616  -0.855  -0.361  0.00  0.00    -0.170 A 
ATOM     21  C   LIG    1       -4.755  -0.276  -0.842  0.00  0.00    +0.330 A 
ATOM     22  N   LIG    1       -5.948  -0.921  -0.751  0.00  0.00    -0.370 N 
ATOM     23  C   LIG    1       -7.215  -0.581  -1.145  0.00  0.00    +0.100 A 
ATOM     24  C   LIG    1       -8.027  -1.601  -0.798  0.00  0.00    +0.230 A 
ATOM     25  N   LIG    1       -7.294  -2.549  -0.207  0.00  0.00    -0.480 NA
ATOM     26  C   LIG    1       -6.029  -2.160  -0.166  0.00  0.00    +0.230 A 
ATOM     27  C   LIG    1       -4.865  -2.776   0.342  0.00  0.00    +0.090 A 
ATOM     28  C   LIG    1       -3.674  -2.134   0.247  0.00  0.00    +0.060 A 
ENDBRANCH  17  20
ENDBRANCH   1  18
TORSDOF 3
