REMARK  Name = ZINCqH00000h4iyE.0
REMARK                            x       y       z     vdW  Elec       q    Type
REMARK                         _______ _______ _______ _____ _____    ______ ____
ROOT
ATOM      1  C   LIG    1       -1.260   1.599  -0.029  0.00  0.00    +0.140 A 
ATOM      2  C   LIG    1       -1.331   2.985  -0.149  0.00  0.00    +0.060 A 
ATOM      3  C   LIG    1       -2.554   3.620  -0.186  0.00  0.00    +0.040 A 
ATOM      4  C   LIG    1       -3.723   2.878  -0.104  0.00  0.00    +0.050 A 
ATOM      5  N   LIG    1       -5.067   3.207  -0.112  0.00  0.00    -0.590 N 
ATOM      6  H   LIG    1       -5.442   4.098  -0.184  0.00  0.00    +0.430 HD
ATOM      7  C   LIG    1       -5.771   2.035   0.001  0.00  0.00    +0.370 A 
ATOM      8  N   LIG    1       -4.936   1.023   0.077  0.00  0.00    -0.470 NA
ATOM      9  C   LIG    1       -3.661   1.478   0.018  0.00  0.00    +0.070 A 
ATOM     10  C   LIG    1       -2.415   0.844   0.049  0.00  0.00    +0.050 A 
ENDROOT
BRANCH   7  11
ATOM     11  C   LIG    1       -7.237   1.928   0.034  0.00  0.00    +0.020 A 
ATOM     12  C   LIG    1       -7.952   0.773   0.141  0.00  0.00    +0.040 A 
ATOM     13  C   LIG    1       -9.311   1.137   0.136  0.00  0.00    -0.060 A 
ATOM     14  C   LIG    1       -9.361   2.480   0.019  0.00  0.00    +0.200 A 
ATOM     15  O   LIG    1       -8.107   2.954  -0.043  0.00  0.00    -0.170 OA
ENDBRANCH   7  11
BRANCH   1  18
ATOM     16  O   LIG    1        0.910   2.692   1.059  0.00  0.00    -0.520 OA
ATOM     17  C   LIG    1        1.032   1.567   0.613  0.00  0.00    +0.580 C 
ATOM     18  N   LIG    1       -0.011   0.966   0.007  0.00  0.00    -0.660 N 
ATOM     19  H   LIG    1        0.104   0.096  -0.407  0.00  0.00    +0.410 HD
BRANCH  17  20
ATOM     20  C   LIG    1        2.321   0.861   0.736  0.00  0.00    -0.170 A 
ATOM     21  C   LIG    1        3.380   1.472   1.345  0.00  0.00    +0.330 A 
ATOM     22  N   LIG    1        4.571   0.829   1.467  0.00  0.00    -0.370 N 
ATOM     23  C   LIG    1        5.767   1.197   2.023  0.00  0.00    +0.100 A 
ATOM     24  C   LIG    1        6.618   0.162   1.859  0.00  0.00    +0.230 A 
ATOM     25  N   LIG    1        5.977  -0.821   1.221  0.00  0.00    -0.490 NA
ATOM     26  C   LIG    1        4.733  -0.441   0.972  0.00  0.00    +0.230 A 
ATOM     27  C   LIG    1        3.654  -1.090   0.334  0.00  0.00    +0.090 A 
ATOM     28  C   LIG    1        2.464  -0.450   0.216  0.00  0.00    +0.060 A 
ENDBRANCH  17  20
ENDBRANCH   1  18
TORSDOF 3
