REMARK  Name = ZINCrH000004tLWd.0
REMARK                            x       y       z     vdW  Elec       q    Type
REMARK                         _______ _______ _______ _____ _____    ______ ____
ROOT
ATOM      1  N   LIG    1        6.073   2.257   0.001  0.00  0.00    -0.520 NA
ATOM      2  C   LIG    1        6.260   3.176   1.130  0.00  0.00    +0.170 C 
ATOM      3  C   LIG    1        7.242   4.281   0.734  0.00  0.00    +0.040 C 
ATOM      4  C   LIG    1        8.580   3.650   0.339  0.00  0.00    +0.020 C 
ATOM      5  C   LIG    1        8.351   2.661  -0.807  0.00  0.00    +0.010 C 
ATOM      6  C   LIG    1        7.336   1.603  -0.366  0.00  0.00    +0.220 C 
ENDROOT
BRANCH   5   7
ATOM      7  C   LIG    1        9.653   1.993  -1.163  0.00  0.00    +0.520 C 
ATOM      8  N   LIG    1       10.700   2.734  -1.577  0.00  0.00    -0.670 N 
ATOM      9  H   LIG    1       10.640   3.702  -1.574  0.00  0.00    +0.410 HD
ATOM     10  O   LIG    1        9.760   0.788  -1.076  0.00  0.00    -0.520 OA
BRANCH   8  11
ATOM     11  C   LIG    1       11.873   2.107  -2.013  0.00  0.00    +0.140 A 
ATOM     12  C   LIG    1       13.105   2.706  -1.791  0.00  0.00    -0.020 A 
ATOM     13  C   LIG    1       14.262   2.082  -2.217  0.00  0.00    +0.030 A 
ATOM     14  C   LIG    1       14.192   0.867  -2.873  0.00  0.00    -0.010 A 
ATOM     15  C   LIG    1       12.965   0.270  -3.100  0.00  0.00    +0.030 A 
ATOM     16  C   LIG    1       11.806   0.886  -2.672  0.00  0.00    +0.010 A 
ENDBRANCH   8  11
ENDBRANCH   5   7
BRANCH   1  17
ATOM     17  C   LIG    1        5.033   1.263   0.297  0.00  0.00    +0.220 C 
BRANCH  17  19
ATOM     18  O   LIG    1        3.623   3.156   0.276  0.00  0.00    -0.490 OA
ATOM     19  C   LIG    1        3.699   1.954   0.420  0.00  0.00    +0.520 C 
ATOM     20  N   LIG    1        2.591   1.236   0.691  0.00  0.00    -0.670 N 
ATOM     21  H   LIG    1        2.663   0.288   0.884  0.00  0.00    +0.420 HD
BRANCH  20  22
ATOM     22  C   LIG    1        1.337   1.859   0.695  0.00  0.00    +0.140 A 
ATOM     23  C   LIG    1        1.159   3.067   0.037  0.00  0.00    +0.070 A 
ATOM     24  C   LIG    1       -0.081   3.680   0.041  0.00  0.00    -0.020 A 
ATOM     25  C   LIG    1       -1.144   3.089   0.700  0.00  0.00    +0.050 A 
ATOM     26  C   LIG    1       -0.972   1.881   1.352  0.00  0.00    +0.030 A 
ATOM     27 CL   LIG    1       -0.303   5.192  -0.781  0.00  0.00    -0.050 Cl
ATOM     28  C   LIG    1        0.266   1.267   1.357  0.00  0.00    +0.070 A 
ATOM     29  F   LIG    1        0.435   0.090   1.998  0.00  0.00    -0.130 F 
ENDBRANCH  20  22
ENDBRANCH  17  19
ENDBRANCH   1  17
TORSDOF 5
