REMARK  Name = ZINCvU00000007Yn.0
REMARK                            x       y       z     vdW  Elec       q    Type
REMARK                         _______ _______ _______ _____ _____    ______ ____
ROOT
ATOM      1  C   LIG    1       -1.333   2.337   1.014  0.00  0.00    -0.220 A 
ATOM      2  C   LIG    1       -2.424   2.041   1.721  0.00  0.00    +0.030 A 
ATOM      3  C   LIG    1       -2.185   1.393   2.921  0.00  0.00    -0.150 A 
ATOM      4  C   LIG    1       -0.891   1.163   3.187  0.00  0.00    +0.060 A 
ATOM      5  S   LIG    1        0.099   1.778   1.869  0.00  0.00    +0.220 S 
ENDROOT
BRANCH   4   6
ATOM      6  N   LIG    1       -0.404   0.527   4.331  0.00  0.00    -0.620 N 
ATOM      7  H   LIG    1       -1.013   0.281   5.045  0.00  0.00    +0.420 HD
ATOM      8  C   LIG    1        0.911   0.256   4.443  0.00  0.00    +0.550 C 
ATOM      9  O   LIG    1        1.687   0.646   3.592  0.00  0.00    -0.510 OA
BRANCH   8  10
ATOM     10  C   LIG    1        1.411  -0.515   5.601  0.00  0.00    -0.140 A 
ATOM     11  C   LIG    1        0.513  -1.052   6.525  0.00  0.00    +0.050 A 
ATOM     12  C   LIG    1        0.986  -1.775   7.601  0.00  0.00    +0.000 A 
ATOM     13  C   LIG    1        2.347  -1.959   7.771  0.00  0.00    +0.040 A 
ATOM     14  C   LIG    1        3.242  -1.425   6.861  0.00  0.00    +0.000 A 
ATOM     15  C   LIG    1        2.782  -0.705   5.778  0.00  0.00    +0.090 A 
ENDBRANCH   8  10
ENDBRANCH   4   6
BRANCH   1  17
ATOM     16  C   LIG    1       -1.236   4.549  -0.102  0.00  0.00    +0.030 C 
ATOM     17  C   LIG    1       -1.327   3.037  -0.321  0.00  0.00    +0.100 C 
ENDBRANCH   1  17
BRANCH   3  18
ATOM     18  C   LIG    1       -3.293   0.980   3.855  0.00  0.00    +0.280 C 
BRANCH  18  19
ATOM     19  N   LIG    1       -3.454  -0.480   3.807  0.00  0.00    -0.520 NA
ATOM     20  C   LIG    1       -3.741  -0.933   2.439  0.00  0.00    +0.180 C 
ATOM     21  C   LIG    1       -3.822  -2.462   2.418  0.00  0.00    +0.180 C 
ATOM     22  N   LIG    1       -4.870  -2.907   3.348  0.00  0.00    -0.540 NA
ATOM     23  C   LIG    1       -4.583  -2.453   4.716  0.00  0.00    +0.180 C 
ATOM     24  C   LIG    1       -5.031  -4.366   3.300  0.00  0.00    +0.200 C 
ATOM     25  C   LIG    1       -4.501  -0.925   4.737  0.00  0.00    +0.180 C 
ENDBRANCH  18  19
BRANCH  18  26
ATOM     26  C   LIG    1       -4.579   1.641   3.433  0.00  0.00    -0.100 A 
ATOM     27  C   LIG    1       -5.060   1.462   2.150  0.00  0.00    +0.040 A 
ATOM     28  C   LIG    1       -6.240   2.069   1.763  0.00  0.00    +0.010 A 
ATOM     29  C   LIG    1       -6.940   2.855   2.658  0.00  0.00    +0.030 A 
ATOM     30  C   LIG    1       -6.460   3.036   3.942  0.00  0.00    +0.020 A 
ATOM     31  C   LIG    1       -5.282   2.423   4.332  0.00  0.00    -0.020 A 
ATOM     32 CL   LIG    1       -4.683   2.643   5.947  0.00  0.00    -0.070 Cl
ENDBRANCH  18  26
ENDBRANCH   3  18
TORSDOF 6
