REMARK  Name = ZINCnE000001TyNp.0
REMARK                            x       y       z     vdW  Elec       q    Type
REMARK                         _______ _______ _______ _____ _____    ______ ____
ROOT
ATOM      1  N   LIG    1       -3.669   1.676   0.028  0.00  0.00    -0.670 N 
ATOM      2  H   LIG    1       -2.906   1.330  -0.461  0.00  0.00    +0.410 HD
ATOM      3  C   LIG    1       -3.598   2.885   0.620  0.00  0.00    +0.560 C 
ATOM      4  O   LIG    1       -4.580   3.356   1.161  0.00  0.00    -0.520 OA
ENDROOT
BRANCH   3   5
ATOM      5  C   LIG    1       -2.328   3.638   0.611  0.00  0.00    -0.170 A 
ATOM      6  C   LIG    1       -1.198   3.098  -0.019  0.00  0.00    +0.060 A 
ATOM      7  C   LIG    1       -0.016   3.778  -0.030  0.00  0.00    +0.000 A 
ATOM      8  C   LIG    1        0.081   5.026   0.581  0.00  0.00    +0.120 A 
ATOM      9  N   LIG    1        1.109   5.925   0.728  0.00  0.00    -0.590 N 
ATOM     10  H   LIG    1        2.010   5.801   0.389  0.00  0.00    +0.420 HD
ATOM     11  C   LIG    1        0.676   7.022   1.422  0.00  0.00    +0.220 A 
ATOM     12  C   LIG    1       -0.619   6.879   1.744  0.00  0.00    -0.040 A 
ATOM     13  C   LIG    1       -1.050   5.583   1.211  0.00  0.00    -0.120 A 
ATOM     14  C   LIG    1       -2.255   4.886   1.222  0.00  0.00    +0.140 A 
ENDBRANCH   3   5
BRANCH   1  18
ATOM     15  C   LIG    1       -7.164  -0.574   0.302  0.00  0.00    -0.070 A 
ATOM     16  C   LIG    1       -7.236   0.804   0.214  0.00  0.00    +0.020 A 
ATOM     17  C   LIG    1       -6.079   1.553   0.123  0.00  0.00    +0.020 A 
ATOM     18  C   LIG    1       -4.842   0.921   0.120  0.00  0.00    +0.120 A 
ATOM     19  C   LIG    1       -4.774  -0.464   0.202  0.00  0.00    -0.020 A 
ATOM     20  C   LIG    1       -5.934  -1.207   0.299  0.00  0.00    +0.030 A 
BRANCH  15  21
ATOM     21  C   LIG    1       -8.428  -1.388   0.401  0.00  0.00    +0.080 C 
BRANCH  21  22
ATOM     22  C   LIG    1       -8.908  -1.758  -1.004  0.00  0.00    -0.050 C 
BRANCH  22  24
ATOM     23  O   LIG    1      -10.646  -2.832   0.189  0.00  0.00    -0.700 OA
ATOM     24  C   LIG    1      -10.172  -2.572  -0.904  0.00  0.00    +0.490 C 
ATOM     25  O   LIG    1      -10.722  -2.970  -1.917  0.00  0.00    -0.710 OA
ENDBRANCH  22  24
ENDBRANCH  21  22
ENDBRANCH  15  21
ENDBRANCH   1  18
TORSDOF 5
