REMARK  Name = ZINCrH000004tMmu.0
REMARK                            x       y       z     vdW  Elec       q    Type
REMARK                         _______ _______ _______ _____ _____    ______ ____
ROOT
ATOM      1  N   LIG    1        6.290   4.601   3.661  0.00  0.00    -0.520 NA
ATOM      2  C   LIG    1        6.934   3.502   2.927  0.00  0.00    +0.200 C 
ATOM      3  C   LIG    1        6.285   3.365   1.548  0.00  0.00    +0.200 C 
ATOM      4  N   LIG    1        4.846   3.115   1.708  0.00  0.00    -0.540 NA
ATOM      5  C   LIG    1        4.202   4.214   2.442  0.00  0.00    +0.190 C 
ATOM      6  C   LIG    1        4.851   4.351   3.822  0.00  0.00    +0.190 C 
ENDROOT
BRANCH   1   7
ATOM      7  C   LIG    1        6.936   4.814   4.963  0.00  0.00    +0.220 C 
BRANCH   7   9
ATOM      8  O   LIG    1        5.596   6.756   4.988  0.00  0.00    -0.490 OA
ATOM      9  C   LIG    1        6.420   6.090   5.577  0.00  0.00    +0.510 C 
ATOM     10  N   LIG    1        6.875   6.490   6.781  0.00  0.00    -0.680 N 
ATOM     11  H   LIG    1        7.476   5.920   7.287  0.00  0.00    +0.410 HD
BRANCH  10  12
ATOM     12  C   LIG    1        6.481   7.728   7.302  0.00  0.00    +0.160 A 
ATOM     13  C   LIG    1        6.251   8.800   6.449  0.00  0.00    +0.020 A 
ATOM     14  C   LIG    1        5.856  10.019   6.965  0.00  0.00    +0.050 A 
ATOM     15  C   LIG    1        5.700  10.176   8.330  0.00  0.00    +0.010 A 
ATOM     16  C   LIG    1        5.935   9.112   9.183  0.00  0.00    -0.020 A 
ATOM     17 CL   LIG    1        5.739   9.314  10.896  0.00  0.00    -0.060 Cl
ATOM     18  C   LIG    1        6.324   7.888   8.672  0.00  0.00    +0.000 A 
ENDBRANCH  10  12
ENDBRANCH   7   9
ENDBRANCH   1   7
BRANCH   4  19
ATOM     19  C   LIG    1        4.200   2.903   0.406  0.00  0.00    +0.300 C 
BRANCH  19  20
ATOM     20  C   LIG    1        2.792   2.411   0.618  0.00  0.00    +0.100 A 
ATOM     21  N   LIG    1        1.772   3.175   0.729  0.00  0.00    -0.460 NA
ATOM     22  C   LIG    1        0.570   2.596   0.916  0.00  0.00    +0.080 A 
ATOM     23  C   LIG    1       -0.700   3.188   1.067  0.00  0.00    +0.070 A 
ATOM     24  C   LIG    1       -1.805   2.413   1.247  0.00  0.00    +0.030 A 
ATOM     25  C   LIG    1       -1.704   1.029   1.282  0.00  0.00    +0.040 A 
ATOM     26  C   LIG    1       -0.475   0.424   1.142  0.00  0.00    +0.060 A 
ATOM     27  C   LIG    1        0.666   1.201   0.956  0.00  0.00    -0.190 A 
ATOM     28  S   LIG    1        2.358   0.765   0.741  0.00  0.00    +0.120 S 
ENDBRANCH  19  20
ENDBRANCH   4  19
TORSDOF 5
