REMARK  Name = ZINCvU0000000FAH.0
REMARK                            x       y       z     vdW  Elec       q    Type
REMARK                         _______ _______ _______ _____ _____    ______ ____
ROOT
ATOM      1  C   LIG    1        3.749   6.786  -0.879  0.00  0.00    +0.560 C 
ATOM      2  N   LIG    1        2.453   6.750  -1.246  0.00  0.00    -0.660 N 
ATOM      3  H   LIG    1        2.019   5.899  -1.413  0.00  0.00    +0.410 HD
ATOM      4  O   LIG    1        4.257   7.838  -0.544  0.00  0.00    -0.490 OA
ENDROOT
BRANCH   1  13
ATOM      5  C   LIG    1        6.586   8.120  -0.274  0.00  0.00    +0.210 C 
ATOM      6  C   LIG    1        6.901   6.650  -0.382  0.00  0.00    +0.160 A 
ATOM      7  N   LIG    1        8.072   6.103  -0.252  0.00  0.00    -0.270 NA
ATOM      8  O   LIG    1        7.965   4.704  -0.421  0.00  0.00    -0.080 OA
ATOM      9  C   LIG    1        6.679   4.379  -0.665  0.00  0.00    +0.310 A 
ATOM     10  N   LIG    1        6.066   3.227  -0.884  0.00  0.00    -0.460 NA
ATOM     11  C   LIG    1        4.761   3.158  -1.109  0.00  0.00    +0.290 A 
ATOM     12  C   LIG    1        3.961   4.307  -1.113  0.00  0.00    -0.020 A 
ATOM     13  C   LIG    1        4.553   5.544  -0.883  0.00  0.00    +0.000 A 
ATOM     14  C   LIG    1        5.946   5.579  -0.653  0.00  0.00    -0.200 A 
BRANCH  11  15
ATOM     15  C   LIG    1        4.138   1.843  -1.353  0.00  0.00    -0.190 A 
ATOM     16  C   LIG    1        4.792   0.663  -1.375  0.00  0.00    +0.100 A 
ATOM     17  C   LIG    1        3.995  -0.433  -1.624  0.00  0.00    +0.010 A 
ATOM     18  C   LIG    1        2.697  -0.161  -1.805  0.00  0.00    -0.020 A 
ATOM     19  S   LIG    1        2.428   1.571  -1.660  0.00  0.00    +0.150 S 
ENDBRANCH  11  15
ENDBRANCH   1  13
BRANCH   2  20
ATOM     20  C   LIG    1        1.732   7.942  -1.386  0.00  0.00    +0.140 A 
ATOM     21  C   LIG    1        2.403   9.139  -1.602  0.00  0.00    +0.080 A 
ATOM     22  C   LIG    1        1.692  10.314  -1.740  0.00  0.00    +0.000 A 
ATOM     23  C   LIG    1        0.305  10.300  -1.662  0.00  0.00    +0.200 A 
ATOM     24  C   LIG    1       -0.366   9.104  -1.446  0.00  0.00    +0.010 A 
ATOM     25  C   LIG    1        0.344   7.928  -1.314  0.00  0.00    -0.160 A 
BRANCH  25  26
ATOM     26  C   LIG    1       -0.384   6.628  -1.085  0.00  0.00    +0.510 C 
ATOM     27  F   LIG    1        0.023   6.073   0.132  0.00  0.00    -0.170 F 
ATOM     28  F   LIG    1       -0.090   5.740  -2.125  0.00  0.00    -0.180 F 
ATOM     29  F   LIG    1       -1.763   6.867  -1.052  0.00  0.00    -0.170 F 
ENDBRANCH  25  26
BRANCH  23  30
ATOM     30  N   LIG    1       -0.415  11.491  -1.803  0.00  0.00    -0.630 N 
ATOM     31  C   LIG    1       -1.866  11.498  -1.599  0.00  0.00    +0.290 C 
ATOM     32  C   LIG    1        0.281  12.731  -2.154  0.00  0.00    +0.280 C 
ENDBRANCH  23  30
ENDBRANCH   2  20
TORSDOF 5
