REMARK  Name = ZINCpk00000KfL1H.0
REMARK                            x       y       z     vdW  Elec       q    Type
REMARK                         _______ _______ _______ _____ _____    ______ ____
ROOT
ATOM      1  C   LIG    1        0.002  -0.004   0.002  0.00  0.00    +0.120 A 
ATOM      2  C   LIG    1       -0.017   1.385   0.010  0.00  0.00    -0.010 A 
ATOM      3  C   LIG    1        1.171   2.090   0.002  0.00  0.00    +0.060 A 
ATOM      4  C   LIG    1        2.377   1.415  -0.013  0.00  0.00    -0.140 A 
ATOM      5  C   LIG    1        2.400   0.032  -0.021  0.00  0.00    +0.060 A 
ATOM      6  C   LIG    1        1.216  -0.679  -0.013  0.00  0.00    -0.040 A 
ENDROOT
BRANCH   1  11
ATOM      7  C   LIG    1       -2.273  -2.916  -0.138  0.00  0.00    +0.000 C 
ATOM      8  C   LIG    1       -3.186  -2.546   1.034  0.00  0.00    +0.030 C 
ATOM      9  C   LIG    1       -3.393  -1.029   1.051  0.00  0.00    +0.040 C 
ATOM     10  C   LIG    1       -2.033  -0.335   1.154  0.00  0.00    +0.190 C 
ATOM     11  N   LIG    1       -1.197  -0.720   0.010  0.00  0.00    -0.490 N 
ATOM     12  C   LIG    1       -0.946  -2.167  -0.000  0.00  0.00    +0.220 C 
BRANCH   7  16
ATOM     13  N   LIG    1       -3.047  -5.263  -0.236  0.00  0.00    -0.850 N 
ATOM     14  H   LIG    1       -2.882  -6.219  -0.229  0.00  0.00    +0.400 HD
ATOM     15  H   LIG    1       -3.953  -4.928  -0.322  0.00  0.00    +0.400 HD
ATOM     16  C   LIG    1       -2.017  -4.401  -0.127  0.00  0.00    +0.520 C 
ATOM     17  O   LIG    1       -0.884  -4.820  -0.019  0.00  0.00    -0.540 OA
ENDBRANCH   7  16
ENDBRANCH   1  11
BRANCH   4  18
ATOM     18  C   LIG    1        3.671   2.188  -0.020  0.00  0.00    +0.340 C 
BRANCH  18  19
ATOM     19  N   LIG    1        4.077   2.446  -1.404  0.00  0.00    -0.740 N 
ATOM     20  H   LIG    1        3.529   2.127  -2.138  0.00  0.00    +0.400 HD
ATOM     21  C   LIG    1        5.213   3.127  -1.657  0.00  0.00    +0.710 C 
ATOM     22  N   LIG    1        5.586   3.365  -2.930  0.00  0.00    -0.660 N 
ATOM     23  H   LIG    1        5.038   3.046  -3.664  0.00  0.00    +0.410 HD
ATOM     24  O   LIG    1        5.900   3.527  -0.737  0.00  0.00    -0.580 OA
BRANCH  22  25
ATOM     25  C   LIG    1        6.773   4.076  -3.194  0.00  0.00    +0.020 A 
ATOM     26  C   LIG    1        7.264   4.384  -4.422  0.00  0.00    +0.200 A 
ATOM     27  N   LIG    1        8.420   5.073  -4.240  0.00  0.00    -0.480 N 
ATOM     28  H   LIG    1        8.992   5.423  -4.941  0.00  0.00    +0.440 HD
ATOM     29  N   LIG    1        8.640   5.189  -2.861  0.00  0.00    -0.280 NA
ATOM     30  C   LIG    1        7.653   4.599  -2.236  0.00  0.00    +0.270 A 
ENDBRANCH  22  25
ENDBRANCH  18  19
ENDBRANCH   4  18
TORSDOF 5
