REMARK  Name = ZINCpe000000TU47.0
REMARK                            x       y       z     vdW  Elec       q    Type
REMARK                         _______ _______ _______ _____ _____    ______ ____
ROOT
ATOM      1  N   LIG    1        1.296   6.056  -1.884  0.00  0.00    -0.720 N 
ATOM      2  H   LIG    1        0.838   6.638  -1.257  0.00  0.00    +0.400 HD
ATOM      3  C   LIG    1        1.179   6.269  -3.210  0.00  0.00    +0.720 C 
ATOM      4  N   LIG    1        0.425   7.289  -3.665  0.00  0.00    -0.750 N 
ATOM      5  H   LIG    1       -0.034   7.870  -3.038  0.00  0.00    +0.400 HD
ATOM      6  O   LIG    1        1.754   5.540  -3.995  0.00  0.00    -0.590 OA
ENDROOT
BRANCH   4   7
ATOM      7  C   LIG    1        0.298   7.519  -5.106  0.00  0.00    +0.300 C 
ATOM      8  C   LIG    1       -0.005   8.993  -5.358  0.00  0.00    +0.040 C 
ATOM      9  C   LIG    1       -1.163   9.464  -4.485  0.00  0.00    +0.070 C 
ATOM     10  C   LIG    1       -2.470   8.829  -4.966  0.00  0.00    -0.430 C 
ATOM     11  S   LIG    1       -2.365   7.028  -4.756  0.00  0.00    +2.420 S 
ATOM     12  O   LIG    1       -2.161   6.741  -3.380  0.00  0.00    -0.920 OA
ATOM     13  O   LIG    1       -3.456   6.426  -5.440  0.00  0.00    -0.940 OA
ATOM     14  C   LIG    1       -3.637   9.373  -4.140  0.00  0.00    +0.090 C 
ATOM     15  C   LIG    1       -0.835   6.652  -5.661  0.00  0.00    -0.340 C 
ENDBRANCH   4   7
BRANCH   1  18
ATOM     16  C   LIG    1        3.201   4.314   0.317  0.00  0.00    +0.170 C 
ATOM     17  C   LIG    1        3.439   5.398  -0.748  0.00  0.00    +0.030 C 
ATOM     18  C   LIG    1        2.116   4.947  -1.389  0.00  0.00    +0.270 C 
ATOM     19  C   LIG    1        1.701   4.449   0.005  0.00  0.00    +0.260 C 
BRANCH  19  20
ATOM     20  N   LIG    1        0.989   3.168  -0.018  0.00  0.00    -0.360 N 
ATOM     21  C   LIG    1        1.558   1.944  -0.032  0.00  0.00    +0.220 A 
ATOM     22  C   LIG    1        0.562   1.028  -0.051  0.00  0.00    -0.120 A 
ATOM     23  C   LIG    1       -0.656   1.715  -0.054  0.00  0.00    +0.220 A 
ATOM     24  N   LIG    1       -0.401   2.998  -0.028  0.00  0.00    -0.290 NA
ENDBRANCH  19  20
BRANCH  16  25
ATOM     25  O   LIG    1        3.549   4.726   1.640  0.00  0.00    -0.370 OA
BRANCH  25  27
ATOM     26  C   LIG    1        4.955   4.554   3.598  0.00  0.00    +0.040 C 
ATOM     27  C   LIG    1        4.675   4.035   2.187  0.00  0.00    +0.150 C 
ENDBRANCH  25  27
ENDBRANCH  16  25
ENDBRANCH   1  18
TORSDOF 5
