REMARK  Name = ZINCnE000001PsuL.0
REMARK                            x       y       z     vdW  Elec       q    Type
REMARK                         _______ _______ _______ _____ _____    ______ ____
ROOT
ATOM      1  C   LIG    1        0.002  -0.004   0.002  0.00  0.00    -0.090 A 
ATOM      2  C   LIG    1        0.787  -0.686  -0.926  0.00  0.00    +0.060 A 
ATOM      3  C   LIG    1        0.808  -2.065  -0.928  0.00  0.00    -0.030 A 
ATOM      4  C   LIG    1        0.040  -2.774  -0.013  0.00  0.00    +0.180 A 
ATOM      5  C   LIG    1       -0.748  -2.096   0.910  0.00  0.00    +0.000 A 
ATOM      6  C   LIG    1       -0.768  -0.718   0.919  0.00  0.00    +0.040 A 
ENDROOT
BRANCH   1  12
ATOM      7  C   LIG    1       -2.558   4.282   0.012  0.00  0.00    +0.090 C 
ATOM      8  C   LIG    1       -1.245   3.542   0.015  0.00  0.00    -0.090 A 
ATOM      9  C   LIG    1       -0.056   4.247   0.024  0.00  0.00    +0.000 A 
ATOM     10  C   LIG    1        1.153   3.575   0.026  0.00  0.00    +0.000 A 
ATOM     11  C   LIG    1        1.178   2.195   0.019  0.00  0.00    -0.080 A 
ATOM     12  C   LIG    1       -0.018   1.479   0.010  0.00  0.00    -0.030 A 
ATOM     13  C   LIG    1        2.495   1.464   0.021  0.00  0.00    +0.080 C 
ATOM     14  C   LIG    1       -1.233   2.162   0.003  0.00  0.00    +0.010 A 
ENDBRANCH   1  12
BRANCH   4  15
ATOM     15  N   LIG    1        0.060  -4.172  -0.020  0.00  0.00    -0.560 N 
ATOM     16  C   LIG    1        0.752  -4.986  -1.027  0.00  0.00    +0.290 C 
ATOM     17  C   LIG    1        0.156  -6.403  -0.895  0.00  0.00    -0.080 C 
ATOM     18  C   LIG    1       -0.335  -6.406   0.572  0.00  0.00    +0.080 C 
ATOM     19  C   LIG    1       -0.557  -4.944   0.891  0.00  0.00    +0.520 C 
ATOM     20  O   LIG    1       -1.199  -4.529   1.833  0.00  0.00    -0.530 OA
BRANCH  17  21
ATOM     21  C   LIG    1        1.209  -7.458  -1.114  0.00  0.00    +0.510 C 
ATOM     22  O   LIG    1        2.331  -7.136  -1.465  0.00  0.00    -0.690 OA
ATOM     23  O   LIG    1        0.939  -8.634  -0.940  0.00  0.00    -0.690 OA
ENDBRANCH  17  21
ENDBRANCH   4  15
TORSDOF 3
