REMARK  Name = ZINCpk00000j9jaK.2
REMARK                            x       y       z     vdW  Elec       q    Type
REMARK                         _______ _______ _______ _____ _____    ______ ____
ROOT
ATOM      1  C   LIG    1        1.500  -0.388   0.018  0.00  0.00    +0.180 C 
ATOM      2  C   LIG    1        0.002  -0.004   0.002  0.00  0.00    +0.010 C 
ATOM      3  C   LIG    1       -0.019   1.536   0.011  0.00  0.00    +0.180 C 
ATOM      4  N   LIG    1        1.389   1.989  -0.001  0.00  0.00    -0.500 NA
ATOM      5  C   LIG    1        2.176   0.880   0.598  0.00  0.00    +0.210 C 
ENDROOT
BRANCH   1   6
ATOM      6  O   LIG    1        1.724  -1.514   0.867  0.00  0.00    -0.300 OA
BRANCH   6   9
ATOM      7  C   LIG    1        1.815  -5.124   0.420  0.00  0.00    +0.140 A 
ATOM      8  C   LIG    1        1.883  -3.894   1.043  0.00  0.00    -0.050 A 
ATOM      9  C   LIG    1        1.671  -2.742   0.290  0.00  0.00    +0.170 A 
ATOM     10  C   LIG    1        1.407  -2.880  -1.070  0.00  0.00    -0.120 A 
ATOM     11  C   LIG    1        1.362  -4.146  -1.619  0.00  0.00    +0.300 A 
ATOM     12  N   LIG    1        1.563  -5.214  -0.872  0.00  0.00    -0.490 NA
BRANCH   7  13
ATOM     13  C   LIG    1        2.038  -6.378   1.225  0.00  0.00    +0.350 C 
BRANCH  13  16
ATOM     14  C   LIG    1       -0.630  -8.603   2.833  0.00  0.00    +0.110 C 
ATOM     15  C   LIG    1        0.699  -8.046   2.392  0.00  0.00    +0.510 C 
ATOM     16  N   LIG    1        0.746  -6.919   1.654  0.00  0.00    -0.730 N 
ATOM     17  H   LIG    1       -0.075  -6.466   1.408  0.00  0.00    +0.400 HD
ATOM     18  O   LIG    1        1.726  -8.613   2.700  0.00  0.00    -0.540 OA
ENDBRANCH  13  16
ENDBRANCH   7  13
ENDBRANCH   6   9
ENDBRANCH   1   6
BRANCH   4  19
ATOM     19  C   LIG    1        1.550   3.226   0.775  0.00  0.00    +0.340 C 
BRANCH  19  20
ATOM     20  C   LIG    1        1.367   2.928   2.240  0.00  0.00    -0.040 A 
ATOM     21  C   LIG    1        2.340   2.570   3.098  0.00  0.00    -0.050 A 
ATOM     22  C   LIG    1        1.728   2.393   4.360  0.00  0.00    -0.030 A 
ATOM     23  C   LIG    1        0.417   2.646   4.197  0.00  0.00    -0.020 A 
ATOM     24  O   LIG    1        0.204   2.969   2.911  0.00  0.00    -0.170 OA
BRANCH  23  25
ATOM     25  C   LIG    1       -0.634   2.578   5.275  0.00  0.00    +0.300 C 
BRANCH  25  26
ATOM     26  O   LIG    1       -0.752   3.855   5.906  0.00  0.00    -0.570 OA
ATOM     27  H   LIG    1       -1.413   3.885   6.612  0.00  0.00    +0.390 HD
ENDBRANCH  25  26
ENDBRANCH  23  25
ENDBRANCH  19  20
ENDBRANCH   4  19
TORSDOF 8
