REMARK  Name = ZINCrD00000F5LBe.0
REMARK                            x       y       z     vdW  Elec       q    Type
REMARK                         _______ _______ _______ _____ _____    ______ ____
ROOT
ATOM      1  C   LIG    1       -3.152   1.020   1.602  0.00  0.00    +0.170 C 
ATOM      2  C   LIG    1       -2.922   1.261   3.095  0.00  0.00    +0.040 C 
ENDROOT
BRANCH   1   3
ATOM      3  C   LIG    1       -2.186   1.887   0.791  0.00  0.00    +0.250 C 
ATOM      4  C   LIG    1       -0.734   1.428   1.040  0.00  0.00    +0.060 C 
ATOM      5  C   LIG    1        0.051   2.766   1.079  0.00  0.00    +0.040 C 
ATOM      6  C   LIG    1       -0.973   3.708   1.759  0.00  0.00    +0.250 C 
ATOM      7  N   LIG    1       -2.284   3.290   1.229  0.00  0.00    -0.600 N 
ATOM      8  C   LIG    1       -3.386   4.062   1.159  0.00  0.00    +0.670 C 
ATOM      9  O   LIG    1       -4.440   3.586   0.786  0.00  0.00    -0.560 OA
BRANCH   8  10
ATOM     10  O   LIG    1       -3.319   5.363   1.501  0.00  0.00    -0.360 OA
BRANCH  10  11
ATOM     11  C   LIG    1       -4.545   6.135   1.401  0.00  0.00    +0.140 C 
ATOM     12  C   LIG    1       -5.043   6.116  -0.046  0.00  0.00    +0.040 C 
ATOM     13  C   LIG    1       -4.275   7.579   1.828  0.00  0.00    +0.080 C 
ATOM     14  C   LIG    1       -5.609   5.523   2.314  0.00  0.00    +0.040 C 
ENDBRANCH  10  11
ENDBRANCH   8  10
ENDBRANCH   1   3
BRANCH   1  15
ATOM     15  O   LIG    1       -2.923  -0.358   1.301  0.00  0.00    -0.340 OA
BRANCH  15  16
ATOM     16  C   LIG    1       -3.983  -1.188   1.389  0.00  0.00    +0.500 C 
ATOM     17  O   LIG    1       -5.072  -0.753   1.712  0.00  0.00    -0.510 OA
BRANCH  16  19
ATOM     18  C   LIG    1       -4.890  -3.398   1.192  0.00  0.00    +0.190 C 
ATOM     19  C   LIG    1       -3.828  -2.567   1.104  0.00  0.00    -0.080 C 
BRANCH  18  27
ATOM     20  C   LIG    1       -3.520  -4.614  -1.399  0.00  0.00    +0.160 C 
ATOM     21  C   LIG    1       -4.121  -5.386  -0.253  0.00  0.00    +0.110 A 
ATOM     22  N   LIG    1       -4.170  -6.685  -0.146  0.00  0.00    -0.300 NA
ATOM     23  N   LIG    1       -4.809  -7.019   1.053  0.00  0.00    -0.360 N 
ATOM     24  C   LIG    1       -5.149  -5.883   1.686  0.00  0.00    +0.120 A 
ATOM     25  C   LIG    1       -5.856  -5.778   3.013  0.00  0.00    +0.160 C 
ATOM     26  C   LIG    1       -5.065  -8.378   1.537  0.00  0.00    +0.360 C 
ATOM     27  C   LIG    1       -4.729  -4.829   0.896  0.00  0.00    -0.250 A 
ENDBRANCH  18  27
ENDBRANCH  16  19
ENDBRANCH  15  16
ENDBRANCH   1  15
TORSDOF 7
