REMARK  Name = ZINC670000002kys.0
REMARK                            x       y       z     vdW  Elec       q    Type
REMARK                         _______ _______ _______ _____ _____    ______ ____
ROOT
ATOM      1  C   LIG    1        3.559   0.806  -0.029  0.00  0.00    +0.200 C 
ATOM      2  C   LIG    1        2.055   0.723  -0.014  0.00  0.00    +0.230 A 
ATOM      3  N   LIG    1        1.355  -0.381  -0.013  0.00  0.00    -0.320 NA
ATOM      4  N   LIG    1        0.002  -0.004   0.002  0.00  0.00    -0.490 N 
ATOM      5  H   LIG    1       -0.766  -0.596   0.006  0.00  0.00    +0.440 HD
ATOM      6  C   LIG    1       -0.016   1.340   0.009  0.00  0.00    +0.480 A 
ATOM      7  N   LIG    1        1.222   1.763  -0.000  0.00  0.00    -0.550 NA
ENDROOT
TORSDOF 0
