REMARK  Name = ZINC670000002kys.1
REMARK                            x       y       z     vdW  Elec       q    Type
REMARK                         _______ _______ _______ _____ _____    ______ ____
ROOT
ATOM      1  C   LIG    1       -1.242   2.227   0.020  0.00  0.00    +0.200 C 
ATOM      2  C   LIG    1       -0.016   1.351   0.009  0.00  0.00    +0.180 A 
ATOM      3  N   LIG    1        1.224   1.756  -0.000  0.00  0.00    -0.290 NA
ATOM      4  N   LIG    1        2.012   0.739  -0.013  0.00  0.00    -0.300 NA
ATOM      5  C   LIG    1        1.309  -0.361  -0.012  0.00  0.00    +0.370 A 
ATOM      6  N   LIG    1        0.002  -0.004   0.002  0.00  0.00    -0.580 N 
ATOM      7  H   LIG    1       -0.765  -0.598   0.006  0.00  0.00    +0.430 HD
ENDROOT
TORSDOF 0
