REMARK  Name = ZINCpe000000VZdq.0
REMARK                            x       y       z     vdW  Elec       q    Type
REMARK                         _______ _______ _______ _____ _____    ______ ____
ROOT
ATOM      1  C   LIG    1        6.440   1.494   0.042  0.00  0.00    +0.520 C 
ATOM      2  N   LIG    1        5.116   1.245  -0.001  0.00  0.00    -0.620 N 
ATOM      3  C   LIG    1        4.358   1.408  -1.251  0.00  0.00    +0.300 C 
ATOM      4  C   LIG    1        3.133   2.284  -0.966  0.00  0.00    +0.190 C 
ATOM      5  N   LIG    1        2.372   1.708   0.151  0.00  0.00    -0.500 N 
ATOM      6  C   LIG    1        3.165   1.701   1.388  0.00  0.00    +0.190 C 
ATOM      7  C   LIG    1        4.391   0.802   1.200  0.00  0.00    +0.280 C 
ATOM      8  O   LIG    1        7.021   1.859  -0.958  0.00  0.00    -0.520 OA
ENDROOT
BRANCH   5   9
ATOM      9  C   LIG    1        1.162   2.385   0.336  0.00  0.00    +0.050 A 
ATOM     10  C   LIG    1        1.162   3.742   0.625  0.00  0.00    +0.010 A 
ATOM     11  C   LIG    1       -0.036   4.408   0.807  0.00  0.00    +0.010 A 
ATOM     12  C   LIG    1       -1.232   3.724   0.701  0.00  0.00    +0.050 A 
ATOM     13  C   LIG    1       -1.237   2.373   0.407  0.00  0.00    -0.010 A 
ATOM     14  C   LIG    1       -0.043   1.699   0.229  0.00  0.00    +0.130 A 
ATOM     15  F   LIG    1       -0.048   0.378  -0.053  0.00  0.00    -0.130 F 
ENDBRANCH   5   9
BRANCH   1  16
ATOM     16  C   LIG    1        7.197   1.321   1.333  0.00  0.00    +0.220 C 
BRANCH  16  19
ATOM     17  C   LIG    1       10.859   1.833   2.051  0.00  0.00    +0.180 C 
ATOM     18  C   LIG    1        9.380   1.580   2.352  0.00  0.00    +0.170 C 
ATOM     19  N   LIG    1        8.633   1.506   1.087  0.00  0.00    -0.520 NA
ATOM     20  C   LIG    1        9.164   0.435   0.231  0.00  0.00    +0.150 C 
ATOM     21  C   LIG    1       10.646   0.700  -0.048  0.00  0.00    +0.230 C 
ATOM     22  O   LIG    1       11.350   0.799   1.193  0.00  0.00    -0.370 OA
BRANCH  17  23
ATOM     23  C   LIG    1       11.655   1.832   3.358  0.00  0.00    +0.200 C 
BRANCH  23  25
ATOM     24  C   LIG    1       13.848   2.206   4.249  0.00  0.00    +0.200 C 
ATOM     25  O   LIG    1       13.014   2.178   3.089  0.00  0.00    -0.380 OA
ENDBRANCH  23  25
ENDBRANCH  17  23
ENDBRANCH  16  19
ENDBRANCH   1  16
TORSDOF 5
