REMARK  Name = ZINCrD00000F5LHB.0
REMARK                            x       y       z     vdW  Elec       q    Type
REMARK                         _______ _______ _______ _____ _____    ______ ____
ROOT
ATOM      1  N   LIG    1        3.843  -3.675   2.626  0.00  0.00    -0.980 NA
ENDROOT
BRANCH   1   2
ATOM      2  S   LIG    1        3.958  -5.040   1.696  0.00  0.00    +2.670 S 
ATOM      3  O   LIG    1        2.694  -5.684   1.770  0.00  0.00    -0.950 OA
ATOM      4  O   LIG    1        5.176  -5.673   2.062  0.00  0.00    -0.950 OA
BRANCH   2   6
ATOM      5  C   LIG    1        5.209  -4.883  -0.658  0.00  0.00    +0.220 C 
ATOM      6  C   LIG    1        4.152  -4.516   0.024  0.00  0.00    -0.580 C 
ENDBRANCH   2   6
ENDBRANCH   1   2
BRANCH   1   7
ATOM      7  C   LIG    1        2.526  -3.137   2.978  0.00  0.00    +0.410 C 
BRANCH   7   8
ATOM      8  C   LIG    1        2.143  -2.063   1.992  0.00  0.00    +0.050 A 
ATOM      9  N   LIG    1        2.489  -0.801   2.059  0.00  0.00    -0.270 NA
ATOM     10  N   LIG    1        1.934  -0.140   0.961  0.00  0.00    -0.370 N 
ATOM     11  C   LIG    1        2.055   1.280   0.619  0.00  0.00    +0.300 C 
ATOM     12  C   LIG    1        1.670   1.469  -0.852  0.00  0.00    +0.030 C 
ATOM     13  C   LIG    1        0.321   0.794  -1.119  0.00  0.00    +0.020 C 
ATOM     14  C   LIG    1        0.492  -0.728  -1.035  0.00  0.00    +0.120 C 
ATOM     15  C   LIG    1        1.243  -1.048   0.234  0.00  0.00    +0.090 A 
ATOM     16  C   LIG    1        1.356  -2.242   0.848  0.00  0.00    -0.120 A 
ENDBRANCH   7   8
ENDBRANCH   1   7
BRANCH   1  17
ATOM     17  C   LIG    1        5.057  -3.005   3.098  0.00  0.00    +0.360 C 
BRANCH  17  18
ATOM     18  C   LIG    1        5.400  -3.500   4.479  0.00  0.00    -0.130 A 
ATOM     19  C   LIG    1        6.365  -4.472   4.641  0.00  0.00    +0.120 A 
ATOM     20  C   LIG    1        6.687  -4.934   5.904  0.00  0.00    -0.120 A 
ATOM     21  C   LIG    1        6.033  -4.421   7.011  0.00  0.00    +0.110 A 
ATOM     22  C   LIG    1        5.067  -3.452   6.851  0.00  0.00    -0.180 A 
ATOM     23  C   LIG    1        4.186  -2.719   7.844  0.00  0.00    +0.080 C 
ATOM     24  C   LIG    1        3.105  -2.106   6.923  0.00  0.00    +0.240 C 
ATOM     25  O   LIG    1        3.783  -2.010   5.658  0.00  0.00    -0.290 OA
ATOM     26 BR   LIG    1        8.016  -6.263   6.119  0.00  0.00    -0.040 Br
ATOM     27  C   LIG    1        4.744  -2.971   5.589  0.00  0.00    +0.140 A 
ENDBRANCH  17  18
ENDBRANCH   1  17
TORSDOF 6
