REMARK  Name = ZINCrD0000075Uec.0
REMARK                            x       y       z     vdW  Elec       q    Type
REMARK                         _______ _______ _______ _____ _____    ______ ____
ROOT
ATOM      1  C   LIG    1       -2.083   2.119   1.443  0.00  0.00    -0.030 C 
ATOM      2  C   LIG    1       -0.553   2.166   1.359  0.00  0.00    +0.050 C 
ATOM      3  C   LIG    1       -0.092   1.363   0.139  0.00  0.00    +0.290 C 
ATOM      4  N   LIG    1       -0.779   1.875  -1.055  0.00  0.00    -0.610 N 
ATOM      5  C   LIG    1       -2.246   1.957  -1.044  0.00  0.00    +0.280 C 
ATOM      6  C   LIG    1       -0.078   2.260  -2.139  0.00  0.00    +0.570 C 
ATOM      7  O   LIG    1        1.137   2.288  -2.099  0.00  0.00    -0.530 OA
ATOM      8  C   LIG    1       -2.687   2.754   0.188  0.00  0.00    +0.040 C 
ENDROOT
BRANCH   6   9
ATOM      9  C   LIG    1       -0.785   2.650  -3.376  0.00  0.00    -0.140 A 
ATOM     10  C   LIG    1       -1.890   1.916  -3.812  0.00  0.00    +0.080 A 
ATOM     11  C   LIG    1       -2.549   2.287  -4.965  0.00  0.00    -0.020 A 
ATOM     12  C   LIG    1       -2.111   3.381  -5.695  0.00  0.00    +0.120 A 
ATOM     13  C   LIG    1       -1.011   4.110  -5.270  0.00  0.00    -0.020 A 
ATOM     14  F   LIG    1       -2.758   3.737  -6.827  0.00  0.00    -0.130 F 
ATOM     15  C   LIG    1       -0.348   3.751  -4.116  0.00  0.00    +0.100 A 
ENDBRANCH   6   9
BRANCH   1  17
ATOM     16  O   LIG    1       -2.874   4.043   2.559  0.00  0.00    -0.440 OA
ATOM     17  C   LIG    1       -2.542   2.880   2.660  0.00  0.00    +0.410 C 
BRANCH  17  18
ATOM     18  C   LIG    1       -2.587   2.215   3.969  0.00  0.00    -0.170 A 
ATOM     19  C   LIG    1       -2.210   0.872   4.088  0.00  0.00    +0.070 A 
ATOM     20  C   LIG    1       -2.249   0.254   5.316  0.00  0.00    +0.010 A 
ATOM     21  C   LIG    1       -2.673   0.953   6.441  0.00  0.00    +0.090 A 
ATOM     22  O   LIG    1       -2.713   0.318   7.642  0.00  0.00    -0.300 OA
ATOM     23  C   LIG    1       -2.779   1.147   8.807  0.00  0.00    +0.230 C 
ATOM     24  C   LIG    1       -3.848   2.223   8.571  0.00  0.00    +0.230 C 
ATOM     25  O   LIG    1       -3.466   2.989   7.423  0.00  0.00    -0.300 OA
ATOM     26  C   LIG    1       -3.054   2.290   6.330  0.00  0.00    +0.040 A 
ATOM     27  C   LIG    1       -3.012   2.920   5.102  0.00  0.00    +0.100 A 
ENDBRANCH  17  18
ENDBRANCH   1  17
TORSDOF 3
