REMARK  Name = ZINCrH000004jn1M.0
REMARK                            x       y       z     vdW  Elec       q    Type
REMARK                         _______ _______ _______ _____ _____    ______ ____
ROOT
ATOM      1  N   LIG    1       -3.080  -3.447  -7.207  0.00  0.00    -0.510 N 
ATOM      2  C   LIG    1       -2.704  -4.621  -7.758  0.00  0.00    +0.500 A 
ATOM      3  C   LIG    1       -1.842  -5.530  -6.993  0.00  0.00    +0.120 A 
ATOM      4  N   LIG    1       -1.446  -5.203  -5.796  0.00  0.00    -0.400 NA
ATOM      5  C   LIG    1       -1.815  -4.034  -5.237  0.00  0.00    +0.020 A 
ATOM      6  C   LIG    1       -1.373  -3.703  -3.951  0.00  0.00    +0.170 A 
ATOM      7  C   LIG    1       -1.763  -2.497  -3.380  0.00  0.00    -0.160 A 
ATOM      8  C   LIG    1       -2.585  -1.614  -4.092  0.00  0.00    +0.100 A 
ATOM      9  C   LIG    1       -3.016  -1.928  -5.347  0.00  0.00    -0.020 A 
ATOM     10  C   LIG    1       -1.414  -6.844  -7.594  0.00  0.00    +0.180 C 
ATOM     11  O   LIG    1       -3.076  -4.923  -8.878  0.00  0.00    -0.500 OA
ATOM     12  C   LIG    1       -2.642  -3.133  -5.938  0.00  0.00    +0.170 A 
ENDROOT
BRANCH   7  13
ATOM     13  C   LIG    1       -1.304  -2.144  -2.021  0.00  0.00    +0.560 C 
ATOM     14  N   LIG    1       -2.158  -1.571  -1.149  0.00  0.00    -0.610 N 
ATOM     15  C   LIG    1       -3.512  -1.214  -1.578  0.00  0.00    +0.290 C 
ATOM     16  O   LIG    1       -0.156  -2.369  -1.689  0.00  0.00    -0.510 OA
BRANCH  14  17
ATOM     17  C   LIG    1       -1.732  -1.307   0.228  0.00  0.00    +0.360 C 
BRANCH  17  18
ATOM     18  C   LIG    1       -1.122   0.069   0.309  0.00  0.00    -0.150 A 
ATOM     19  C   LIG    1        0.236   0.238   0.103  0.00  0.00    +0.140 A 
ATOM     20  C   LIG    1        0.795   1.503   0.179  0.00  0.00    -0.020 A 
ATOM     21  C   LIG    1       -0.003   2.595   0.461  0.00  0.00    +0.070 A 
ATOM     22  C   LIG    1       -1.360   2.426   0.668  0.00  0.00    +0.010 A 
ATOM     23  F   LIG    1        1.016  -0.830  -0.174  0.00  0.00    -0.110 F 
ATOM     24  C   LIG    1       -1.920   1.163   0.592  0.00  0.00    +0.000 A 
ATOM     25 CL   LIG    1       -3.624   0.953   0.845  0.00  0.00    -0.050 Cl
ENDBRANCH  17  18
ENDBRANCH  14  17
ENDBRANCH   7  13
BRANCH   1  27
ATOM     26  C   LIG    1       -3.072  -1.561  -8.764  0.00  0.00    +0.040 C 
ATOM     27  C   LIG    1       -3.940  -2.520  -7.946  0.00  0.00    +0.290 C 
ENDBRANCH   1  27
TORSDOF 4
