REMARK  Name = ZINCqH0000008w6B.0
REMARK                            x       y       z     vdW  Elec       q    Type
REMARK                         _______ _______ _______ _____ _____    ______ ____
ROOT
ATOM      1  S   LIG    1       -2.674   0.923   0.129  0.00  0.00    +0.080 S 
ENDROOT
BRANCH   1   2
ATOM      2  C   LIG    1       -3.986   2.029   0.529  0.00  0.00    +0.150 A 
ATOM      3  N   LIG    1       -4.034   3.313   0.255  0.00  0.00    -0.290 NA
ATOM      4  N   LIG    1       -5.136   3.815   0.686  0.00  0.00    -0.260 NA
ATOM      5  C   LIG    1       -5.855   2.885   1.269  0.00  0.00    +0.230 A 
ATOM      6  N   LIG    1       -5.141   1.711   1.186  0.00  0.00    -0.460 N 
ATOM      7  C   LIG    1       -5.537   0.396   1.696  0.00  0.00    +0.350 C 
BRANCH   5   8
ATOM      8  C   LIG    1       -7.182   3.063   1.896  0.00  0.00    -0.030 A 
ATOM      9  C   LIG    1       -7.642   2.140   2.837  0.00  0.00    +0.060 A 
ATOM     10  C   LIG    1       -8.879   2.314   3.421  0.00  0.00    -0.010 A 
ATOM     11  C   LIG    1       -9.668   3.397   3.070  0.00  0.00    +0.120 A 
ATOM     12  C   LIG    1       -9.218   4.314   2.134  0.00  0.00    +0.000 A 
ATOM     13  F   LIG    1      -10.881   3.560   3.643  0.00  0.00    -0.130 F 
ATOM     14  C   LIG    1       -7.981   4.152   1.546  0.00  0.00    +0.110 A 
ENDBRANCH   5   8
ENDBRANCH   1   2
BRANCH   1  16
ATOM     15  C   LIG    1       -2.198   2.571  -1.997  0.00  0.00    +0.090 C 
ATOM     16  C   LIG    1       -1.546   2.064  -0.710  0.00  0.00    +0.010 C 
BRANCH  16  17
ATOM     17  C   LIG    1       -0.264   1.347  -1.045  0.00  0.00    +0.540 C 
ATOM     18  N   LIG    1        0.878   2.046  -1.201  0.00  0.00    -0.720 N 
ATOM     19  H   LIG    1        0.875   3.010  -1.094  0.00  0.00    +0.400 HD
ATOM     20  O   LIG    1       -0.260   0.141  -1.179  0.00  0.00    -0.520 OA
BRANCH  18  21
ATOM     21  C   LIG    1        2.124   1.350  -1.532  0.00  0.00    +0.260 C 
BRANCH  21  22
ATOM     22  C   LIG    1        3.260   2.367  -1.653  0.00  0.00    -0.020 C 
ATOM     23  C   LIG    1        2.989   3.297  -2.837  0.00  0.00    +0.010 C 
ATOM     24  C   LIG    1        4.125   4.315  -2.957  0.00  0.00    +0.000 C 
ATOM     25  C   LIG    1        5.448   3.578  -3.179  0.00  0.00    +0.000 C 
ATOM     26  C   LIG    1        5.719   2.648  -1.995  0.00  0.00    +0.000 C 
ATOM     27  C   LIG    1        4.583   1.630  -1.875  0.00  0.00    +0.030 C 
ENDBRANCH  21  22
ENDBRANCH  18  21
ENDBRANCH  16  17
ENDBRANCH   1  16
TORSDOF 6
