REMARK  Name = ZINCvU0000000B3F.0
REMARK                            x       y       z     vdW  Elec       q    Type
REMARK                         _______ _______ _______ _____ _____    ______ ____
ROOT
ATOM      1  N   LIG    1        4.808   0.116  -0.057  0.00  0.00    -0.520 N 
ATOM      2  C   LIG    1        3.698  -0.658  -0.059  0.00  0.00    +0.560 A 
ATOM      3  C   LIG    1        2.395   0.022  -0.052  0.00  0.00    -0.200 A 
ATOM      4  C   LIG    1        1.196  -0.688  -0.053  0.00  0.00    +0.100 A 
ATOM      5  C   LIG    1        0.001  -0.003  -0.047  0.00  0.00    -0.010 A 
ATOM      6  C   LIG    1       -0.018   1.386  -0.039  0.00  0.00    +0.070 A 
ATOM      7  C   LIG    1        1.155   2.107  -0.037  0.00  0.00    +0.030 A 
ATOM      8  C   LIG    1        2.380   1.435  -0.044  0.00  0.00    +0.160 A 
ATOM      9  N   LIG    1        3.556   2.107  -0.043  0.00  0.00    -0.530 NA
ATOM     10  O   LIG    1        3.776  -1.873  -0.066  0.00  0.00    -0.500 OA
ATOM     11  C   LIG    1        4.705   1.478  -0.049  0.00  0.00    +0.360 A 
ENDROOT
BRANCH   1  12
ATOM     12  C   LIG    1        6.132  -0.512  -0.064  0.00  0.00    +0.360 C 
BRANCH  12  17
ATOM     13  C   LIG    1        7.884  -1.369   5.376  0.00  0.00    +0.090 C 
ATOM     14  C   LIG    1        7.427  -1.146   3.957  0.00  0.00    -0.070 A 
ATOM     15  C   LIG    1        6.704  -2.125   3.302  0.00  0.00    -0.010 A 
ATOM     16  C   LIG    1        6.285  -1.920   2.001  0.00  0.00    +0.040 A 
ATOM     17  C   LIG    1        6.588  -0.736   1.355  0.00  0.00    -0.130 A 
ATOM     18  C   LIG    1        7.316   0.241   2.009  0.00  0.00    +0.040 A 
ATOM     19  C   LIG    1        7.732   0.038   3.311  0.00  0.00    +0.010 A 
ENDBRANCH  12  17
ENDBRANCH   1  12
BRANCH  11  20
ATOM     20  S   LIG    1        6.186   2.432  -0.047  0.00  0.00    +0.080 S 
BRANCH  20  21
ATOM     21  C   LIG    1        5.484   4.101  -0.036  0.00  0.00    +0.130 C 
BRANCH  21  22
ATOM     22  C   LIG    1        6.599   5.114  -0.032  0.00  0.00    +0.530 C 
ATOM     23  N   LIG    1        6.312   6.431  -0.024  0.00  0.00    -0.660 N 
ATOM     24  H   LIG    1        5.391   6.728  -0.087  0.00  0.00    +0.420 HD
ATOM     25  O   LIG    1        7.754   4.745  -0.037  0.00  0.00    -0.500 OA
BRANCH  23  26
ATOM     26  C   LIG    1        7.344   7.371   0.077  0.00  0.00    +0.150 A 
ATOM     27  C   LIG    1        7.142   8.553   0.777  0.00  0.00    -0.010 A 
ATOM     28  C   LIG    1        8.164   9.477   0.880  0.00  0.00    +0.050 A 
ATOM     29  C   LIG    1        9.383   9.232   0.278  0.00  0.00    +0.020 A 
ATOM     30  C   LIG    1        9.587   8.057  -0.426  0.00  0.00    -0.020 A 
ATOM     31 CL   LIG    1       11.120   7.752  -1.181  0.00  0.00    -0.060 Cl
ATOM     32  C   LIG    1        8.570   7.126  -0.527  0.00  0.00    +0.040 A 
ENDBRANCH  23  26
ENDBRANCH  21  22
ENDBRANCH  20  21
ENDBRANCH  11  20
TORSDOF 6
