REMARK  Name = ZINCrD0000075MHZ.0
REMARK                            x       y       z     vdW  Elec       q    Type
REMARK                         _______ _______ _______ _____ _____    ______ ____
ROOT
ATOM      1  O   LIG    1       -7.016   5.851  -1.416  0.00  0.00    -0.510 OA
ATOM      2  C   LIG    1       -5.838   6.138  -1.455  0.00  0.00    +0.520 C 
ATOM      3  N   LIG    1       -5.461   7.431  -1.506  0.00  0.00    -0.670 N 
ATOM      4  H   LIG    1       -4.523   7.660  -1.596  0.00  0.00    +0.410 HD
ENDROOT
BRANCH   2   5
ATOM      5  C   LIG    1       -4.796   5.050  -1.447  0.00  0.00    -0.010 C 
ATOM      6  C   LIG    1       -5.485   3.684  -1.382  0.00  0.00    +0.060 C 
ATOM      7  C   LIG    1       -4.429   2.577  -1.406  0.00  0.00    +0.030 C 
ATOM      8  C   LIG    1       -3.518   2.718  -0.188  0.00  0.00    +0.290 C 
ATOM      9  N   LIG    1       -2.965   4.079  -0.159  0.00  0.00    -0.600 N 
ATOM     10  C   LIG    1       -1.634   4.278  -0.081  0.00  0.00    +0.610 C 
ATOM     11  O   LIG    1       -1.193   5.407   0.023  0.00  0.00    -0.520 OA
ATOM     12  C   LIG    1       -3.890   5.219  -0.224  0.00  0.00    +0.300 C 
BRANCH  10  13
ATOM     13  C   LIG    1       -0.718   3.133  -0.120  0.00  0.00    -0.080 A 
ATOM     14  C   LIG    1        0.645   3.198  -0.177  0.00  0.00    +0.050 A 
ATOM     15  C   LIG    1        1.111   1.874  -0.197  0.00  0.00    -0.060 A 
ATOM     16  C   LIG    1        0.026   1.070  -0.153  0.00  0.00    +0.200 A 
ATOM     17  O   LIG    1       -1.074   1.832  -0.113  0.00  0.00    -0.160 OA
ENDBRANCH  10  13
ENDBRANCH   2   5
BRANCH   3  18
ATOM     18  C   LIG    1       -6.425   8.446  -1.429  0.00  0.00    +0.120 A 
ATOM     19  C   LIG    1       -7.678   8.259  -1.993  0.00  0.00    +0.040 A 
ATOM     20  C   LIG    1       -8.627   9.261  -1.915  0.00  0.00    +0.000 A 
ATOM     21  C   LIG    1       -8.332  10.451  -1.276  0.00  0.00    +0.010 A 
ATOM     22  C   LIG    1       -7.085  10.646  -0.711  0.00  0.00    -0.020 A 
ATOM     23  C   LIG    1       -6.129   9.645  -0.780  0.00  0.00    +0.080 A 
BRANCH  23  24
ATOM     24  N   LIG    1       -4.869   9.837  -0.203  0.00  0.00    -0.470 N 
ATOM     25  C   LIG    1       -4.825  11.104   0.571  0.00  0.00    +0.180 C 
ATOM     26  C   LIG    1       -3.622  10.896   1.524  0.00  0.00    +0.040 C 
ATOM     27  C   LIG    1       -3.731   9.400   1.897  0.00  0.00    +0.020 C 
ATOM     28  C   LIG    1       -4.558   8.763   0.765  0.00  0.00    +0.170 C 
ENDBRANCH  23  24
ENDBRANCH   3  18
TORSDOF 4
