REMARK  Name = ZINCpe00000MHToB.0
REMARK                            x       y       z     vdW  Elec       q    Type
REMARK                         _______ _______ _______ _____ _____    ______ ____
ROOT
ATOM      1  C   LIG    1       -3.364  -2.167   1.092  0.00  0.00    +0.240 C 
ATOM      2  C   LIG    1       -1.964  -2.784   1.061  0.00  0.00    +0.010 C 
ATOM      3  C   LIG    1       -1.173  -2.188  -0.108  0.00  0.00    +0.300 C 
ATOM      4  N   LIG    1       -1.185  -0.724   0.010  0.00  0.00    -0.570 N 
ATOM      5  C   LIG    1       -2.477  -0.036   0.143  0.00  0.00    +0.300 C 
ATOM      6  C   LIG    1       -3.253  -0.655   1.304  0.00  0.00    +0.010 C 
ENDROOT
BRANCH   4   7
ATOM      7  C   LIG    1        0.002  -0.004   0.002  0.00  0.00    +0.350 A 
ATOM      8  N   LIG    1        0.000   1.288   0.251  0.00  0.00    -0.510 NA
ATOM      9  C   LIG    1        1.136   1.985   0.244  0.00  0.00    +0.190 A 
ATOM     10  C   LIG    1        2.325   1.401  -0.015  0.00  0.00    +0.160 A 
ATOM     11  N   LIG    1        2.407   0.067  -0.282  0.00  0.00    -0.480 N 
ATOM     12  C   LIG    1        1.276  -0.674  -0.285  0.00  0.00    +0.480 A 
ATOM     13  O   LIG    1        1.314  -1.871  -0.515  0.00  0.00    -0.530 OA
BRANCH  11  14
ATOM     14  C   LIG    1        3.703  -0.556  -0.562  0.00  0.00    +0.280 C 
ATOM     15  C   LIG    1        3.980  -0.503  -2.066  0.00  0.00    +0.030 C 
ENDBRANCH  11  14
ENDBRANCH   4   7
BRANCH   1  17
ATOM     16  C   LIG    1       -5.481  -2.780   2.132  0.00  0.00    +0.600 C 
ATOM     17  N   LIG    1       -4.134  -2.759   2.189  0.00  0.00    -0.720 N 
ATOM     18  H   LIG    1       -3.675  -3.134   2.956  0.00  0.00    +0.400 HD
ATOM     19  O   LIG    1       -6.056  -2.309   1.170  0.00  0.00    -0.550 OA
BRANCH  16  22
ATOM     20  N   LIG    1       -7.926  -4.075   4.476  0.00  0.00    -0.360 N 
ATOM     21  C   LIG    1       -7.630  -3.468   3.315  0.00  0.00    +0.320 A 
ATOM     22  C   LIG    1       -6.255  -3.376   3.236  0.00  0.00    -0.300 A 
ATOM     23  C   LIG    1       -5.729  -3.963   4.408  0.00  0.00    +0.270 A 
ATOM     24  N   LIG    1       -6.730  -4.370   5.140  0.00  0.00    -0.290 NA
BRANCH  20  26
ATOM     25  C   LIG    1       -9.380  -5.870   5.279  0.00  0.00    +0.040 C 
ATOM     26  C   LIG    1       -9.274  -4.377   4.965  0.00  0.00    +0.310 C 
ENDBRANCH  20  26
ENDBRANCH  16  22
ENDBRANCH   1  17
TORSDOF 5
