REMARK  Name = ZINCrg000000s3Zs.0
REMARK                            x       y       z     vdW  Elec       q    Type
REMARK                         _______ _______ _______ _____ _____    ______ ____
ROOT
ATOM      1  N   LIG    1        1.408  -4.730   0.079  0.00  0.00    -0.540 N 
ATOM      2  C   LIG    1        0.173  -4.189  -0.012  0.00  0.00    +0.580 A 
ATOM      3  C   LIG    1        0.055  -2.721  -0.012  0.00  0.00    -0.210 A 
ATOM      4  C   LIG    1       -1.180  -2.081  -0.104  0.00  0.00    +0.210 A 
ATOM      5  C   LIG    1       -1.194  -0.696  -0.090  0.00  0.00    +0.010 A 
ATOM      6  C   LIG    1        0.002  -0.004   0.002  0.00  0.00    +0.120 A 
ATOM      7  N   LIG    1        1.159  -0.633   0.088  0.00  0.00    -0.470 NA
ATOM      8  C   LIG    1        1.229  -1.953   0.085  0.00  0.00    +0.410 A 
ATOM      9  N   LIG    1        2.443  -2.611   0.175  0.00  0.00    -0.520 N 
ATOM     10  C   LIG    1        3.682  -1.836   0.276  0.00  0.00    +0.360 C 
ATOM     11  O   LIG    1       -0.814  -4.895  -0.093  0.00  0.00    -0.470 OA
ATOM     12  C   LIG    1        2.499  -3.954   0.169  0.00  0.00    +0.720 A 
ATOM     13  O   LIG    1        3.588  -4.490   0.250  0.00  0.00    -0.520 OA
ENDROOT
BRANCH   6  14
ATOM     14  C   LIG    1       -0.018   1.503   0.010  0.00  0.00    +0.520 C 
ATOM     15  F   LIG    1       -0.673   1.954   1.161  0.00  0.00    -0.160 F 
ATOM     16  F   LIG    1       -0.695   1.966  -1.123  0.00  0.00    -0.160 F 
ATOM     17  F   LIG    1        1.294   1.987   0.000  0.00  0.00    -0.160 F 
ENDBRANCH   6  14
BRANCH   1  18
ATOM     18  C   LIG    1        1.558  -6.187   0.080  0.00  0.00    +0.390 C 
BRANCH  18  21
ATOM     19  N   LIG    1        1.617  -8.017   1.744  0.00  0.00    -0.620 N 
ATOM     20  H   LIG    1        1.738  -8.639   1.009  0.00  0.00    +0.440 HD
ATOM     21  C   LIG    1        1.500  -6.697   1.497  0.00  0.00    +0.500 C 
ATOM     22  O   LIG    1        1.348  -5.920   2.416  0.00  0.00    -0.480 OA
BRANCH  19  27
ATOM     23  C   LIG    1        1.591 -10.861   5.830  0.00  0.00    +0.160 C 
ATOM     24  C   LIG    1        1.548  -9.710   4.859  0.00  0.00    +0.040 A 
ATOM     25  N   LIG    1        1.394  -8.449   5.151  0.00  0.00    -0.360 NA
ATOM     26  O   LIG    1        1.400  -7.754   4.162  0.00  0.00    +0.110 OA
ATOM     27  C   LIG    1        1.563  -8.486   3.048  0.00  0.00    +0.210 A 
ATOM     28  C   LIG    1        1.660  -9.786   3.456  0.00  0.00    -0.090 A 
ENDBRANCH  19  27
ENDBRANCH  18  21
ENDBRANCH   1  18
TORSDOF 4
