REMARK  Name = ZINCqH0000035kOl.0
REMARK                            x       y       z     vdW  Elec       q    Type
REMARK                         _______ _______ _______ _____ _____    ______ ____
ROOT
ATOM      1  C   LIG    1       -4.569  -0.901  -0.466  0.00  0.00    +0.290 C 
ATOM      2  C   LIG    1       -5.438  -0.036  -1.381  0.00  0.00    +0.040 C 
ENDROOT
BRANCH   1   6
ATOM      3  C   LIG    1       -2.688   1.575   2.471  0.00  0.00    +0.110 A 
ATOM      4  C   LIG    1       -4.006   1.181   2.634  0.00  0.00    -0.030 A 
ATOM      5  C   LIG    1       -4.611   0.380   1.683  0.00  0.00    +0.020 A 
ATOM      6  C   LIG    1       -3.904  -0.029   0.568  0.00  0.00    -0.090 A 
ATOM      7  C   LIG    1       -2.590   0.365   0.397  0.00  0.00    -0.020 A 
ATOM      8  C   LIG    1       -1.976   1.163   1.348  0.00  0.00    +0.110 A 
BRANCH   8   9
ATOM      9  O   LIG    1       -0.682   1.547   1.184  0.00  0.00    -0.300 OA
ATOM     10  C   LIG    1       -0.013   1.086   0.008  0.00  0.00    +0.240 C 
ENDBRANCH   8   9
BRANCH   3  11
ATOM     11  O   LIG    1       -2.092   2.362   3.405  0.00  0.00    -0.290 OA
BRANCH  11  12
ATOM     12  C   LIG    1       -2.884   2.747   4.531  0.00  0.00    +0.210 C 
BRANCH  12  13
ATOM     13  C   LIG    1       -2.049   3.624   5.466  0.00  0.00    +0.190 C 
BRANCH  13  15
ATOM     14  C   LIG    1       -0.932   5.741   5.595  0.00  0.00    +0.200 C 
ATOM     15  O   LIG    1       -1.715   4.845   4.803  0.00  0.00    -0.380 OA
ENDBRANCH  13  15
ENDBRANCH  12  13
ENDBRANCH  11  12
ENDBRANCH   3  11
ENDBRANCH   1   6
BRANCH   1  16
ATOM     16  N   LIG    1       -5.407  -1.899   0.204  0.00  0.00    -0.720 N 
ATOM     17  H   LIG    1       -5.758  -1.722   1.090  0.00  0.00    +0.400 HD
ATOM     18  C   LIG    1       -5.690  -3.063  -0.413  0.00  0.00    +0.600 C 
ATOM     19  O   LIG    1       -5.250  -3.286  -1.524  0.00  0.00    -0.530 OA
BRANCH  18  20
ATOM     20  C   LIG    1       -6.534  -4.067   0.260  0.00  0.00    -0.230 A 
ATOM     21  C   LIG    1       -7.892  -4.176   0.201  0.00  0.00    +0.050 A 
ATOM     22  O   LIG    1       -8.264  -5.220   0.949  0.00  0.00    -0.170 OA
ATOM     23  C   LIG    1       -7.199  -5.808   1.515  0.00  0.00    -0.010 A 
ATOM     24  C   LIG    1       -7.245  -7.007   2.426  0.00  0.00    +0.180 C 
ATOM     25  C   LIG    1       -8.816  -3.276  -0.578  0.00  0.00    +0.180 C 
ATOM     26  C   LIG    1       -6.087  -5.157   1.141  0.00  0.00    -0.150 A 
ATOM     27  C   LIG    1       -4.670  -5.477   1.542  0.00  0.00    +0.120 C 
ENDBRANCH  18  20
ENDBRANCH   1  16
TORSDOF 8
