REMARK  Name = ZINCpe000000XQSJ.0
REMARK                            x       y       z     vdW  Elec       q    Type
REMARK                         _______ _______ _______ _____ _____    ______ ____
ROOT
ATOM      1  C   LIG    1       -1.423   2.820  -2.958  0.00  0.00    +0.170 C 
ATOM      2  N   LIG    1       -2.193   1.569  -2.855  0.00  0.00    -0.710 N 
ATOM      3  H   LIG    1       -2.908   1.278  -3.443  0.00  0.00    +0.440 HD
ATOM      4  C   LIG    1       -1.708   0.905  -1.790  0.00  0.00    +0.710 C 
ATOM      5  N   LIG    1       -0.721   1.571  -1.179  0.00  0.00    -0.560 N 
ATOM      6  O   LIG    1       -2.121  -0.177  -1.422  0.00  0.00    -0.540 OA
ATOM      7  C   LIG    1       -0.664   2.881  -4.285  0.00  0.00    +0.100 C 
ATOM      8  C   LIG    1       -0.456   2.741  -1.793  0.00  0.00    +0.540 C 
ATOM      9  O   LIG    1        0.382   3.559  -1.480  0.00  0.00    -0.460 OA
ENDROOT
BRANCH   1  14
ATOM     10  C   LIG    1       -4.903   7.400  -2.403  0.00  0.00    +0.090 C 
ATOM     11  C   LIG    1       -3.996   6.205  -2.547  0.00  0.00    -0.070 A 
ATOM     12  C   LIG    1       -4.444   5.072  -3.199  0.00  0.00    +0.010 A 
ATOM     13  C   LIG    1       -3.611   3.976  -3.332  0.00  0.00    +0.030 A 
ATOM     14  C   LIG    1       -2.331   4.015  -2.813  0.00  0.00    -0.100 A 
ATOM     15  C   LIG    1       -1.885   5.146  -2.156  0.00  0.00    +0.040 A 
ATOM     16  C   LIG    1       -2.716   6.243  -2.027  0.00  0.00    +0.010 A 
ENDBRANCH   1  14
BRANCH   5  17
ATOM     17  C   LIG    1       -0.013   1.086   0.008  0.00  0.00    +0.360 C 
BRANCH  17  18
ATOM     18  C   LIG    1       -0.718   1.572   1.248  0.00  0.00    +0.500 C 
ATOM     19  N   LIG    1       -0.242   1.246   2.466  0.00  0.00    -0.720 N 
ATOM     20  H   LIG    1        0.555   0.699   2.544  0.00  0.00    +0.400 HD
ATOM     21  O   LIG    1       -1.714   2.256   1.150  0.00  0.00    -0.520 OA
BRANCH  19  22
ATOM     22  C   LIG    1       -0.927   1.718   3.671  0.00  0.00    +0.240 C 
ATOM     23  C   LIG    1       -0.438   3.126   4.018  0.00  0.00    +0.020 C 
BRANCH  22  24
ATOM     24  C   LIG    1       -0.624   0.772   4.834  0.00  0.00    -0.020 C 
ATOM     25  C   LIG    1       -1.114  -0.635   4.488  0.00  0.00    +0.040 C 
BRANCH  24  26
ATOM     26  C   LIG    1       -1.340   1.265   6.093  0.00  0.00    +0.180 C 
BRANCH  26  27
ATOM     27  O   LIG    1       -0.965   0.450   7.205  0.00  0.00    -0.570 OA
ATOM     28  H   LIG    1       -1.383   0.706   8.039  0.00  0.00    +0.380 HD
ENDBRANCH  26  27
ENDBRANCH  24  26
ENDBRANCH  22  24
ENDBRANCH  19  22
ENDBRANCH  17  18
ENDBRANCH   5  17
TORSDOF 7
