REMARK  Name = ZINCpk00000ebHH7.0
REMARK                            x       y       z     vdW  Elec       q    Type
REMARK                         _______ _______ _______ _____ _____    ______ ____
ROOT
ATOM      1  O   LIG    1        1.799  -0.181   3.432  0.00  0.00    -0.520 OA
ATOM      2  C   LIG    1        1.984  -1.374   3.570  0.00  0.00    +0.530 C 
ENDROOT
BRANCH   2   3
ATOM      3  C   LIG    1        1.407  -2.326   2.605  0.00  0.00    -0.220 A 
ATOM      4  C   LIG    1        1.514  -3.702   2.825  0.00  0.00    +0.130 A 
ATOM      5  C   LIG    1        0.978  -4.587   1.915  0.00  0.00    -0.070 A 
ATOM      6  C   LIG    1        0.327  -4.120   0.784  0.00  0.00    +0.100 A 
ATOM      7  C   LIG    1        0.207  -2.764   0.555  0.00  0.00    -0.090 A 
ATOM      8  C   LIG    1        0.741  -1.856   1.461  0.00  0.00    +0.280 A 
BRANCH   8   9
ATOM      9  N   LIG    1        0.623  -0.491   1.233  0.00  0.00    -0.720 N 
ATOM     10  H   LIG    1        0.922   0.140   1.906  0.00  0.00    +0.420 HD
BRANCH   9  11
ATOM     11  C   LIG    1        0.045  -0.006  -0.022  0.00  0.00    +0.260 C 
BRANCH  11  12
ATOM     12  C   LIG    1        0.030   1.524  -0.018  0.00  0.00    +0.170 C 
BRANCH  12  13
ATOM     13  O   LIG    1        1.372   2.014  -0.005  0.00  0.00    -0.570 OA
ATOM     14  H   LIG    1        1.439   2.979  -0.002  0.00  0.00    +0.380 HD
ENDBRANCH  12  13
ENDBRANCH  11  12
ENDBRANCH   9  11
ENDBRANCH   8   9
ENDBRANCH   2   3
BRANCH   2  15
ATOM     15  O   LIG    1        2.717  -1.827   4.606  0.00  0.00    -0.340 OA
BRANCH  15  16
ATOM     16  C   LIG    1        3.255  -0.832   5.517  0.00  0.00    +0.320 C 
BRANCH  16  17
ATOM     17  C   LIG    1        4.040  -1.519   6.604  0.00  0.00    +0.210 A 
ATOM     18  C   LIG    1        5.403  -1.316   6.705  0.00  0.00    -0.150 A 
ATOM     19  C   LIG    1        6.111  -1.965   7.723  0.00  0.00    +0.510 A 
ATOM     20  N   LIG    1        5.440  -2.769   8.576  0.00  0.00    -0.430 N 
ATOM     21  C   LIG    1        6.114  -3.408   9.572  0.00  0.00    +0.280 A 
ATOM     22  C   LIG    1        5.465  -4.218  10.437  0.00  0.00    +0.000 A 
ATOM     23  C   LIG    1        4.082  -4.412  10.318  0.00  0.00    +0.130 A 
ATOM     24  C   LIG    1        3.397  -3.778   9.324  0.00  0.00    +0.040 A 
ATOM     25  C   LIG    1        4.091  -2.938   8.434  0.00  0.00    +0.390 A 
ATOM     26  O   LIG    1        7.315  -1.805   7.840  0.00  0.00    -0.530 OA
ATOM     27  N   LIG    1        3.423  -2.313   7.465  0.00  0.00    -0.530 NA
ENDBRANCH  16  17
ENDBRANCH  15  16
ENDBRANCH   2  15
TORSDOF 8
