REMARK  Name = ZINCvU0000000HkZ.0
REMARK                            x       y       z     vdW  Elec       q    Type
REMARK                         _______ _______ _______ _____ _____    ______ ____
ROOT
ATOM      1  C   LIG    1        2.177   0.452  -0.046  0.00  0.00    +0.110 A 
ATOM      2  C   LIG    1        1.732   1.725  -0.032  0.00  0.00    -0.080 A 
ATOM      3  S   LIG    1       -0.029   1.682  -0.027  0.00  0.00    +0.170 S 
ATOM      4  C   LIG    1       -0.001  -0.027  -0.043  0.00  0.00    +0.050 A 
ATOM      5  N   LIG    1        1.213  -0.458  -0.051  0.00  0.00    -0.450 NA
ENDROOT
BRANCH   1   9
ATOM      6  C   LIG    1        6.310  -0.555  -0.069  0.00  0.00    +0.150 A 
ATOM      7  C   LIG    1        5.920   0.773   0.050  0.00  0.00    -0.020 A 
ATOM      8  C   LIG    1        4.582   1.102   0.058  0.00  0.00    +0.050 A 
ATOM      9  C   LIG    1        3.618   0.101  -0.054  0.00  0.00    -0.040 A 
ATOM     10  C   LIG    1        4.011  -1.232  -0.168  0.00  0.00    +0.070 A 
ATOM     11  C   LIG    1        5.352  -1.555  -0.180  0.00  0.00    +0.020 A 
BRANCH   6  13
ATOM     12  C   LIG    1        8.087  -2.033   0.496  0.00  0.00    +0.510 C 
ATOM     13  N   LIG    1        7.669  -0.887  -0.077  0.00  0.00    -0.680 N 
ATOM     14  H   LIG    1        8.311  -0.292  -0.495  0.00  0.00    +0.410 HD
ATOM     15  O   LIG    1        7.277  -2.817   0.944  0.00  0.00    -0.510 OA
BRANCH  12  16
ATOM     16  C   LIG    1        9.560  -2.341   0.580  0.00  0.00    +0.060 C 
BRANCH  16  18
ATOM     17  C   LIG    1       11.245  -4.062   1.244  0.00  0.00    +0.030 C 
ATOM     18  C   LIG    1        9.761  -3.691   1.270  0.00  0.00    +0.000 C 
ATOM     19  C   LIG    1        9.284  -3.598   2.721  0.00  0.00    +0.010 C 
ENDBRANCH  16  18
ENDBRANCH  12  16
ENDBRANCH   6  13
ENDBRANCH   1   9
BRANCH   4  20
ATOM     20  C   LIG    1       -1.225  -0.906  -0.048  0.00  0.00    +0.270 C 
ATOM     21  C   LIG    1       -1.855  -0.913   1.347  0.00  0.00    +0.180 C 
ATOM     22  N   LIG    1       -3.090  -1.710   1.318  0.00  0.00    -0.530 NA
ATOM     23  C   LIG    1       -4.040  -1.162   0.339  0.00  0.00    +0.160 C 
ATOM     24  C   LIG    1       -3.388  -1.152  -1.047  0.00  0.00    +0.250 C 
ATOM     25  O   LIG    1       -2.172  -0.400  -0.992  0.00  0.00    -0.380 OA
BRANCH  22  26
ATOM     26  C   LIG    1       -3.697  -1.789   2.653  0.00  0.00    +0.230 C 
BRANCH  26  27
ATOM     27  C   LIG    1       -5.073  -2.395   2.544  0.00  0.00    -0.090 A 
ATOM     28  C   LIG    1       -6.173  -1.582   2.351  0.00  0.00    +0.010 A 
ATOM     29  C   LIG    1       -7.434  -2.138   2.247  0.00  0.00    +0.000 A 
ATOM     30  C   LIG    1       -7.596  -3.507   2.344  0.00  0.00    +0.000 A 
ATOM     31  C   LIG    1       -6.496  -4.321   2.542  0.00  0.00    +0.000 A 
ATOM     32  C   LIG    1       -5.234  -3.765   2.642  0.00  0.00    +0.020 A 
ENDBRANCH  26  27
ENDBRANCH  22  26
ENDBRANCH   4  20
TORSDOF 7
