REMARK  Name = ZINCrH000004pTSi.0
REMARK                            x       y       z     vdW  Elec       q    Type
REMARK                         _______ _______ _______ _____ _____    ______ ____
ROOT
ATOM      1  C   LIG    1        1.906  -2.317   1.431  0.00  0.00    -0.010 C 
ATOM      2  C   LIG    1        3.087  -1.589   2.079  0.00  0.00    +0.040 C 
ATOM      3  C   LIG    1        3.292  -2.123   3.498  0.00  0.00    +0.190 C 
ATOM      4  N   LIG    1        3.550  -3.568   3.449  0.00  0.00    -0.490 N 
ATOM      5  C   LIG    1        2.408  -4.291   2.874  0.00  0.00    +0.200 C 
ATOM      6  C   LIG    1        2.179  -3.824   1.435  0.00  0.00    +0.050 C 
ENDROOT
BRANCH   4   7
ATOM      7  C   LIG    1        3.866  -4.056   4.699  0.00  0.00    +0.400 A 
ATOM      8  N   LIG    1        2.995  -3.990   5.697  0.00  0.00    -0.550 NA
ATOM      9  C   LIG    1        3.286  -4.456   6.901  0.00  0.00    +0.510 A 
ATOM     10  N   LIG    1        4.439  -5.009   7.193  0.00  0.00    -0.500 NA
ATOM     11  C   LIG    1        5.393  -5.127   6.257  0.00  0.00    +0.130 A 
ATOM     12  C   LIG    1        6.638  -5.712   6.534  0.00  0.00    +0.110 A 
ATOM     13  C   LIG    1        7.573  -5.806   5.544  0.00  0.00    +0.040 A 
ATOM     14  C   LIG    1        7.310  -5.330   4.263  0.00  0.00    +0.040 A 
ATOM     15  C   LIG    1        6.110  -4.756   3.960  0.00  0.00    +0.090 A 
ATOM     16  F   LIG    1        6.909  -6.180   7.772  0.00  0.00    -0.120 F 
ATOM     17  C   LIG    1        5.128  -4.648   4.951  0.00  0.00    -0.120 A 
ENDBRANCH   4   7
BRANCH   1  18
ATOM     18  C   LIG    1        1.736  -1.833  -0.011  0.00  0.00    +0.200 C 
BRANCH  18  22
ATOM     19  C   LIG    1        1.382   1.740  -0.021  0.00  0.00    +0.210 A 
ATOM     20  N   LIG    1        0.149   1.331   0.015  0.00  0.00    -0.380 NA
ATOM     21  O   LIG    1        0.109   0.118   0.023  0.00  0.00    +0.080 OA
ATOM     22  C   LIG    1        1.350  -0.376  -0.009  0.00  0.00    +0.180 A 
ATOM     23  N   LIG    1        2.168   0.648  -0.037  0.00  0.00    -0.470 NA
BRANCH  19  27
ATOM     24  C   LIG    1        0.489   3.400  -2.268  0.00  0.00    +0.050 C 
ATOM     25  C   LIG    1        1.385   4.048  -1.211  0.00  0.00    -0.010 C 
ATOM     26  C   LIG    1        0.793   4.260   0.184  0.00  0.00    +0.050 C 
ATOM     27  C   LIG    1        1.846   3.174  -0.043  0.00  0.00    +0.060 C 
ENDBRANCH  19  27
ENDBRANCH  18  22
ENDBRANCH   1  18
TORSDOF 4
