REMARK  Name = ZINCrD0000071F0f.0
REMARK                            x       y       z     vdW  Elec       q    Type
REMARK                         _______ _______ _______ _____ _____    ______ ____
ROOT
ATOM      1  C   LIG    1       -2.478  -2.829  -0.206  0.00  0.00    +0.270 C 
ENDROOT
BRANCH   1   2
ATOM      2  C   LIG    1       -1.183  -2.066  -0.100  0.00  0.00    +0.520 C 
ATOM      3  N   LIG    1       -1.200  -0.722   0.009  0.00  0.00    -0.660 N 
ATOM      4  H   LIG    1       -2.045  -0.254   0.100  0.00  0.00    +0.420 HD
ATOM      5  O   LIG    1       -0.126  -2.660  -0.113  0.00  0.00    -0.480 OA
BRANCH   3   6
ATOM      6  C   LIG    1        0.001  -0.003  -0.009  0.00  0.00    +0.120 A 
ATOM      7  C   LIG    1        1.122  -0.537  -0.630  0.00  0.00    +0.140 A 
ATOM      8  C   LIG    1        2.306   0.175  -0.647  0.00  0.00    -0.030 A 
ATOM      9  C   LIG    1        2.376   1.419  -0.047  0.00  0.00    +0.130 A 
ATOM     10  C   LIG    1        1.262   1.955   0.573  0.00  0.00    +0.040 A 
ATOM     11  C   LIG    1        0.074   1.248   0.594  0.00  0.00    +0.120 A 
ATOM     12  F   LIG    1       -1.016   1.774   1.195  0.00  0.00    -0.120 F 
BRANCH   8  13
ATOM     13  N   LIG    1        3.501  -0.394  -1.309  0.00  0.00    +0.030 N 
ATOM     14  O   LIG    1        4.546   0.232  -1.324  0.00  0.00    -0.150 OA
ATOM     15  O   LIG    1        3.441  -1.490  -1.838  0.00  0.00    -0.150 OA
ENDBRANCH   8  13
ENDBRANCH   3   6
ENDBRANCH   1   2
BRANCH   1  16
ATOM     16  O   LIG    1       -2.195  -4.250  -0.312  0.00  0.00    -0.330 OA
BRANCH  16  17
ATOM     17  C   LIG    1       -3.253  -5.078  -0.415  0.00  0.00    +0.520 C 
ATOM     18  O   LIG    1       -4.380  -4.626  -0.416  0.00  0.00    -0.510 OA
BRANCH  17  22
ATOM     19  C   LIG    1       -2.644  -9.267  -0.737  0.00  0.00    +0.170 A 
ATOM     20  C   LIG    1       -3.935  -8.752  -0.738  0.00  0.00    -0.030 A 
ATOM     21  C   LIG    1       -4.137  -7.394  -0.634  0.00  0.00    +0.140 A 
ATOM     22  C   LIG    1       -3.041  -6.533  -0.527  0.00  0.00    -0.170 A 
ATOM     23  C   LIG    1       -1.744  -7.055  -0.532  0.00  0.00    +0.130 A 
ATOM     24  C   LIG    1       -1.551  -8.414  -0.631  0.00  0.00    -0.090 A 
BRANCH  19  25
ATOM     25  O   LIG    1       -2.449 -10.606  -0.841  0.00  0.00    -0.310 OA
BRANCH  25  26
ATOM     26  C   LIG    1       -1.097 -11.068  -0.833  0.00  0.00    +0.190 C 
BRANCH  26  28
ATOM     27  C   LIG    1        0.370 -13.087  -0.950  0.00  0.00    +0.040 C 
ATOM     28  C   LIG    1       -1.078 -12.593  -0.958  0.00  0.00    +0.040 C 
ENDBRANCH  26  28
ENDBRANCH  25  26
ENDBRANCH  19  25
ENDBRANCH  17  22
ENDBRANCH  16  17
ENDBRANCH   1  16
TORSDOF 9
