REMARK  Name = ZINCpe00000yzzzI.0
REMARK                            x       y       z     vdW  Elec       q    Type
REMARK                         _______ _______ _______ _____ _____    ______ ____
ROOT
ATOM      1  N   LIG    1       -1.182  -0.723   0.009  0.00  0.00    -0.470 N 
ATOM      2  C   LIG    1       -1.265  -1.601   1.204  0.00  0.00    +0.190 C 
ATOM      3  C   LIG    1       -2.317  -2.661   0.794  0.00  0.00    +0.180 C 
ATOM      4  C   LIG    1       -2.010  -2.892  -0.704  0.00  0.00    +0.270 C 
ATOM      5  C   LIG    1       -1.261  -1.626  -1.160  0.00  0.00    +0.200 C 
ENDROOT
BRANCH   1   8
ATOM      6  C   LIG    1        1.115   2.015   0.002  0.00  0.00    +0.580 A 
ATOM      7  N   LIG    1       -0.016   1.325   0.009  0.00  0.00    -0.550 NA
ATOM      8  C   LIG    1        0.002  -0.004   0.002  0.00  0.00    +0.390 A 
ATOM      9  C   LIG    1        1.232  -0.665  -0.013  0.00  0.00    -0.180 A 
ATOM     10  C   LIG    1        2.387   0.093  -0.020  0.00  0.00    +0.380 A 
ATOM     11  N   LIG    1        2.295   1.414  -0.012  0.00  0.00    -0.570 NA
BRANCH   6  13
ATOM     12  C   LIG    1        2.300   4.179   0.002  0.00  0.00    +0.300 C 
ATOM     13  N   LIG    1        1.061   3.398   0.010  0.00  0.00    -0.700 N 
ATOM     14  H   LIG    1        0.203   3.850   0.020  0.00  0.00    +0.420 HD
ENDBRANCH   6  13
ENDBRANCH   1   8
BRANCH   4  15
ATOM     15  N   LIG    1       -1.160  -4.073  -0.872  0.00  0.00    -0.710 N 
ATOM     16  H   LIG    1       -0.588  -4.367  -0.146  0.00  0.00    +0.410 HD
BRANCH  15  17
ATOM     17  C   LIG    1       -1.174  -4.770  -2.066  0.00  0.00    +0.410 A 
ATOM     18  C   LIG    1       -1.983  -4.359  -3.081  0.00  0.00    -0.100 A 
ATOM     19  C   LIG    1       -1.999  -5.055  -4.296  0.00  0.00    +0.120 A 
ATOM     20  C   LIG    1       -1.211  -6.155  -4.458  0.00  0.00    +0.000 A 
ATOM     21  C   LIG    1       -0.384  -6.574  -3.400  0.00  0.00    +0.240 A 
ATOM     22  N   LIG    1        0.471  -7.574  -3.254  0.00  0.00    -0.300 NA
ATOM     23  N   LIG    1        0.989  -7.528  -2.077  0.00  0.00    -0.240 NA
ATOM     24  C   LIG    1        0.507  -6.514  -1.407  0.00  0.00    +0.330 A 
ATOM     25  N   LIG    1       -0.380  -5.872  -2.219  0.00  0.00    -0.420 N 
ENDBRANCH  15  17
ENDBRANCH   4  15
BRANCH   3  26
ATOM     26  O   LIG    1       -2.140  -3.865   1.542  0.00  0.00    -0.380 OA
ATOM     27  C   LIG    1       -2.905  -3.919   2.747  0.00  0.00    +0.220 C 
ENDBRANCH   3  26
TORSDOF 5
