REMARK  Name = ZINCrH000004rkN7.0
REMARK                            x       y       z     vdW  Elec       q    Type
REMARK                         _______ _______ _______ _____ _____    ______ ____
ROOT
ATOM      1  C   LIG    1        1.008   3.588   0.201  0.00  0.00    +0.090 C 
ATOM      2  C   LIG    1        1.100   2.088   0.094  0.00  0.00    -0.100 A 
ATOM      3  C   LIG    1       -0.052   1.325   0.076  0.00  0.00    +0.050 A 
ATOM      4  C   LIG    1        0.029  -0.051  -0.022  0.00  0.00    +0.030 A 
ATOM      5  C   LIG    1        1.269  -0.670  -0.104  0.00  0.00    +0.140 A 
ATOM      6  C   LIG    1        2.427   0.094  -0.087  0.00  0.00    +0.030 A 
ATOM      7  C   LIG    1        2.342   1.474   0.012  0.00  0.00    +0.090 A 
ENDROOT
BRANCH   5   8
ATOM      8  N   LIG    1        1.351  -2.066  -0.205  0.00  0.00    -0.520 N 
ATOM      9  C   LIG    1        0.290  -2.897  -0.112  0.00  0.00    +0.540 C 
ATOM     10  C   LIG    1        0.840  -4.286  -0.344  0.00  0.00    +0.240 C 
ATOM     11  C   LIG    1        0.557  -5.191   0.859  0.00  0.00    +0.190 C 
ATOM     12  C   LIG    1        1.439  -6.439   0.753  0.00  0.00    +0.010 C 
ATOM     13  C   LIG    1        2.917  -6.059   0.831  0.00  0.00    +0.030 C 
ATOM     14  C   LIG    1        3.282  -5.151  -0.354  0.00  0.00    +0.330 C 
ATOM     15  N   LIG    1        2.301  -4.063  -0.389  0.00  0.00    -0.610 N 
ATOM     16  O   LIG    1       -0.862  -2.592   0.111  0.00  0.00    -0.450 OA
ATOM     17  C   LIG    1        2.491  -2.741  -0.412  0.00  0.00    +0.710 C 
ATOM     18  O   LIG    1        3.571  -2.213  -0.595  0.00  0.00    -0.530 OA
BRANCH  11  19
ATOM     19  O   LIG    1        0.858  -4.490   2.067  0.00  0.00    -0.560 OA
ATOM     20  H   LIG    1        0.701  -5.005   2.870  0.00  0.00    +0.390 HD
ENDBRANCH  11  19
ENDBRANCH   5   8
BRANCH   7  21
ATOM     21  O   LIG    1        3.475   2.225   0.029  0.00  0.00    -0.250 OA
BRANCH  21  22
ATOM     22  C   LIG    1        3.999   2.562   1.237  0.00  0.00    +0.130 A 
ATOM     23  C   LIG    1        3.440   2.056   2.402  0.00  0.00    -0.040 A 
ATOM     24  C   LIG    1        3.978   2.394   3.629  0.00  0.00    +0.070 A 
ATOM     25  C   LIG    1        5.066   3.246   3.697  0.00  0.00    -0.070 A 
ATOM     26  C   LIG    1        5.621   3.756   2.536  0.00  0.00    +0.070 A 
ATOM     27 CL   LIG    1        5.736   3.675   5.239  0.00  0.00    -0.070 Cl
ATOM     28  C   LIG    1        5.090   3.416   1.308  0.00  0.00    +0.010 A 
ENDBRANCH  21  22
ENDBRANCH   7  21
TORSDOF 4
