REMARK  Name = ZINCqH0000000srZ.0
REMARK                            x       y       z     vdW  Elec       q    Type
REMARK                         _______ _______ _______ _____ _____    ______ ____
ROOT
ATOM      1  C   LIG    1        3.096  -0.539   1.637  0.00  0.00    +0.570 C 
ATOM      2  N   LIG    1        2.244   0.052   0.777  0.00  0.00    -0.610 N 
ATOM      3  C   LIG    1        1.321  -0.747  -0.045  0.00  0.00    +0.240 C 
ATOM      4  C   LIG    1        1.458  -0.297  -1.504  0.00  0.00    +0.220 C 
ATOM      5  O   LIG    1        1.304   1.123  -1.574  0.00  0.00    -0.370 OA
ATOM      6  C   LIG    1        2.303   1.856  -0.861  0.00  0.00    +0.200 C 
ATOM      7  C   LIG    1        2.208   1.516   0.631  0.00  0.00    +0.280 C 
ATOM      8  O   LIG    1        3.923   0.128   2.229  0.00  0.00    -0.530 OA
ENDROOT
BRANCH   6   9
ATOM      9  C   LIG    1        2.078   3.333  -1.055  0.00  0.00    -0.090 A 
ATOM     10  C   LIG    1        3.156   4.178  -1.238  0.00  0.00    +0.080 A 
ATOM     11  C   LIG    1        2.952   5.534  -1.417  0.00  0.00    +0.000 A 
ATOM     12  C   LIG    1        1.666   6.045  -1.413  0.00  0.00    +0.130 A 
ATOM     13  C   LIG    1        0.585   5.198  -1.229  0.00  0.00    -0.140 A 
ATOM     14 BR   LIG    1       -1.173   5.895  -1.224  0.00  0.00    -0.020 Br
ATOM     15  F   LIG    1        1.464   7.370  -1.588  0.00  0.00    -0.120 F 
ATOM     16  C   LIG    1        0.792   3.842  -1.056  0.00  0.00    +0.120 A 
ENDBRANCH   6   9
BRANCH   1  20
ATOM     17  C   LIG    1        2.895  -4.732   2.283  0.00  0.00    +0.170 A 
ATOM     18  C   LIG    1        4.116  -4.072   2.383  0.00  0.00    -0.010 A 
ATOM     19  C   LIG    1        4.184  -2.713   2.174  0.00  0.00    +0.100 A 
ATOM     20  C   LIG    1        3.026  -1.996   1.861  0.00  0.00    -0.150 A 
ATOM     21  C   LIG    1        1.801  -2.661   1.766  0.00  0.00    +0.060 A 
ATOM     22  C   LIG    1        1.740  -4.021   1.971  0.00  0.00    +0.020 A 
BRANCH  17  25
ATOM     23  C   LIG    1        1.972  -8.360   1.931  0.00  0.00    +0.110 C 
ATOM     24  C   LIG    1        1.971  -6.860   1.777  0.00  0.00    +0.510 C 
ATOM     25  N   LIG    1        2.829  -6.109   2.495  0.00  0.00    -0.680 N 
ATOM     26  H   LIG    1        3.400  -6.525   3.159  0.00  0.00    +0.420 HD
ATOM     27  O   LIG    1        1.198  -6.330   1.007  0.00  0.00    -0.520 OA
ENDBRANCH  17  25
ENDBRANCH   1  20
TORSDOF 3
