REMARK  Name = ZINCrg00000SjSBA.0
REMARK                            x       y       z     vdW  Elec       q    Type
REMARK                         _______ _______ _______ _____ _____    ______ ____
ROOT
ATOM      1  N   LIG    1       -0.620   1.584  -1.244  0.00  0.00    -0.440 N 
ATOM      2  C   LIG    1        0.091   1.093  -0.055  0.00  0.00    +0.190 C 
ATOM      3  C   LIG    1       -0.699   1.473   1.200  0.00  0.00    +0.240 C 
ATOM      4  O   LIG    1       -0.888   2.890   1.228  0.00  0.00    -0.370 OA
ATOM      5  C   LIG    1       -1.578   3.402   0.084  0.00  0.00    +0.250 C 
ATOM      6  C   LIG    1       -0.795   3.042  -1.181  0.00  0.00    +0.120 C 
ENDROOT
BRANCH   1  10
ATOM      7  C   LIG    1        1.699   1.009  -3.891  0.00  0.00    +0.270 A 
ATOM      8  N   LIG    1        0.847   0.354  -4.624  0.00  0.00    -0.440 NA
ATOM      9  S   LIG    1       -0.601   0.325  -3.734  0.00  0.00    +0.290 S 
ATOM     10  C   LIG    1        0.038   1.214  -2.403  0.00  0.00    +0.240 A 
ATOM     11  N   LIG    1        1.287   1.468  -2.732  0.00  0.00    -0.530 NA
BRANCH   7  12
ATOM     12  C   LIG    1        3.112   1.240  -4.360  0.00  0.00    +0.270 C 
ATOM     13  C   LIG    1        3.912  -0.058  -4.229  0.00  0.00    +0.040 C 
BRANCH  12  15
ATOM     14  C   LIG    1        4.182   2.514  -6.086  0.00  0.00    +0.210 C 
ATOM     15  O   LIG    1        3.098   1.655  -5.728  0.00  0.00    -0.370 OA
ENDBRANCH  12  15
ENDBRANCH   7  12
ENDBRANCH   1  10
BRANCH   6  16
ATOM     16  C   LIG    1       -1.569   3.517  -2.413  0.00  0.00    +0.280 C 
BRANCH  16  17
ATOM     17  N   LIG    1       -1.635   4.981  -2.414  0.00  0.00    -0.720 N 
ATOM     18  H   LIG    1       -1.156   5.488  -1.740  0.00  0.00    +0.410 HD
ATOM     19  C   LIG    1       -2.359   5.622  -3.352  0.00  0.00    +0.610 C 
ATOM     20  O   LIG    1       -2.959   4.986  -4.197  0.00  0.00    -0.540 OA
BRANCH  19  21
ATOM     21  C   LIG    1       -2.425   7.094  -3.353  0.00  0.00    -0.060 A 
ATOM     22  C   LIG    1       -3.116   7.869  -4.236  0.00  0.00    +0.250 A 
ATOM     23  N   LIG    1       -2.908   9.161  -3.875  0.00  0.00    -0.480 N 
ATOM     24  C   LIG    1       -3.264  10.533  -4.266  0.00  0.00    +0.300 C 
ATOM     25  C   LIG    1       -2.236  11.444  -3.562  0.00  0.00    +0.070 C 
ATOM     26  C   LIG    1       -1.828  10.584  -2.345  0.00  0.00    +0.160 C 
ATOM     27  C   LIG    1       -2.097   9.159  -2.787  0.00  0.00    +0.190 A 
ATOM     28  N   LIG    1       -1.815   7.924  -2.471  0.00  0.00    -0.450 NA
ENDBRANCH  19  21
ENDBRANCH  16  17
ENDBRANCH   6  16
TORSDOF 6
