REMARK  Name = ZINCrD000000AjxD.1
REMARK                            x       y       z     vdW  Elec       q    Type
REMARK                         _______ _______ _______ _____ _____    ______ ____
ROOT
ATOM      1  O   LIG    1       -0.470  -2.660  -0.041  0.00  0.00    -0.530 OA
ATOM      2  C   LIG    1       -1.439  -1.931  -0.023  0.00  0.00    +0.510 C 
ATOM      3  N   LIG    1       -1.277  -0.594  -0.049  0.00  0.00    -0.730 N 
ATOM      4  H   LIG    1       -2.052  -0.011  -0.035  0.00  0.00    +0.400 HD
ENDROOT
BRANCH   3   5
ATOM      5  C   LIG    1        0.070  -0.020  -0.100  0.00  0.00    +0.240 C 
BRANCH   5   6
ATOM      6  C   LIG    1       -0.016   1.499   0.062  0.00  0.00    +0.100 C 
ATOM      7  C   LIG    1       -1.030   2.062  -0.935  0.00  0.00    +0.040 C 
ATOM      8  C   LIG    1       -0.584   1.725  -2.360  0.00  0.00    +0.010 C 
ATOM      9  C   LIG    1        0.789   2.345  -2.624  0.00  0.00    +0.000 C 
ATOM     10  C   LIG    1        1.804   1.782  -1.627  0.00  0.00    +0.020 C 
ATOM     11  C   LIG    1        1.358   2.119  -0.202  0.00  0.00    +0.040 C 
BRANCH   6  12
ATOM     12  N   LIG    1       -0.443   1.822   1.430  0.00  0.00    -0.520 NA
ATOM     13  C   LIG    1        0.595   1.460   2.406  0.00  0.00    +0.150 C 
ATOM     14  C   LIG    1        0.134   1.867   3.808  0.00  0.00    +0.220 C 
ATOM     15  O   LIG    1       -1.120   1.240   4.093  0.00  0.00    -0.380 OA
ATOM     16  C   LIG    1       -2.154   1.571   3.163  0.00  0.00    +0.220 C 
ATOM     17  C   LIG    1       -1.716   1.161   1.754  0.00  0.00    +0.140 C 
ENDBRANCH   6  12
ENDBRANCH   5   6
ENDBRANCH   3   5
BRANCH   2  18
ATOM     18  C   LIG    1       -2.825  -2.522   0.029  0.00  0.00    +0.060 C 
BRANCH  18  19
ATOM     19  C   LIG    1       -2.728  -4.048   0.050  0.00  0.00    +0.180 C 
BRANCH  19  20
ATOM     20  C   LIG    1       -4.114  -4.638   0.102  0.00  0.00    +0.090 A 
ATOM     21  N   LIG    1       -4.810  -4.932  -0.930  0.00  0.00    -0.460 NA
ATOM     22  C   LIG    1       -6.035  -5.458  -0.734  0.00  0.00    +0.080 A 
ATOM     23  C   LIG    1       -6.998  -5.871  -1.676  0.00  0.00    +0.080 A 
ATOM     24  C   LIG    1       -8.193  -6.378  -1.263  0.00  0.00    +0.030 A 
ATOM     25  C   LIG    1       -8.485  -6.498   0.088  0.00  0.00    +0.040 A 
ATOM     26  C   LIG    1       -7.562  -6.104   1.031  0.00  0.00    +0.060 A 
ATOM     27  C   LIG    1       -6.335  -5.582   0.627  0.00  0.00    -0.180 A 
ATOM     28  S   LIG    1       -4.953  -4.992   1.545  0.00  0.00    +0.100 S 
ENDBRANCH  19  20
ENDBRANCH  18  19
ENDBRANCH   2  18
TORSDOF 6
