REMARK  Name = ZINCrg000000rU4L.0
REMARK                            x       y       z     vdW  Elec       q    Type
REMARK                         _______ _______ _______ _____ _____    ______ ____
ROOT
ATOM      1  C   LIG    1       -2.747   0.504  -2.148  0.00  0.00    +0.520 C 
ATOM      2  N   LIG    1       -2.163   1.185  -1.141  0.00  0.00    -0.610 N 
ATOM      3  C   LIG    1       -0.755   1.594  -1.232  0.00  0.00    +0.260 C 
ATOM      4  C   LIG    1       -0.013   1.086   0.008  0.00  0.00    +0.010 C 
ATOM      5  C   LIG    1       -0.730   1.580   1.266  0.00  0.00    +0.030 C 
ATOM      6  C   LIG    1       -2.156   1.023   1.294  0.00  0.00    -0.020 C 
ATOM      7  C   LIG    1       -2.923   1.530   0.068  0.00  0.00    +0.260 C 
ATOM      8  O   LIG    1       -3.910   0.172  -2.061  0.00  0.00    -0.530 OA
ENDROOT
BRANCH   1   9
ATOM      9  C   LIG    1       -1.954   0.157  -3.382  0.00  0.00    +0.160 C 
BRANCH   9  12
ATOM     10  C   LIG    1       -3.320   1.556  -5.471  0.00  0.00    +0.160 C 
ATOM     11  C   LIG    1       -3.478   0.064  -5.335  0.00  0.00    +0.230 A 
ATOM     12  C   LIG    1       -2.832  -0.597  -4.347  0.00  0.00    -0.260 A 
ATOM     13  C   LIG    1       -2.987  -1.992  -4.218  0.00  0.00    +0.580 A 
ATOM     14  N   LIG    1       -3.773  -2.662  -5.084  0.00  0.00    -0.360 N 
ATOM     15  N   LIG    1       -4.107  -4.017  -5.199  0.00  0.00    -0.260 NA
ATOM     16  C   LIG    1       -4.916  -4.159  -6.219  0.00  0.00    +0.290 A 
ATOM     17  C   LIG    1       -5.131  -2.905  -6.795  0.00  0.00    -0.120 A 
ATOM     18  C   LIG    1       -4.417  -1.989  -6.082  0.00  0.00    +0.300 A 
ATOM     19  O   LIG    1       -2.412  -2.591  -3.327  0.00  0.00    -0.490 OA
ATOM     20  N   LIG    1       -4.266  -0.622  -6.209  0.00  0.00    -0.600 N 
ATOM     21  H   LIG    1       -4.726  -0.148  -6.920  0.00  0.00    +0.430 HD
ENDBRANCH   9  12
ENDBRANCH   1   9
BRANCH   6  22
ATOM     22  C   LIG    1       -2.863   1.490   2.567  0.00  0.00    +0.150 C 
BRANCH  22  23
ATOM     23  C   LIG    1       -4.223   0.845   2.653  0.00  0.00    +0.200 A 
ATOM     24  N   LIG    1       -4.489  -0.295   3.228  0.00  0.00    -0.490 NA
ATOM     25  C   LIG    1       -5.799  -0.555   3.111  0.00  0.00    +0.140 A 
ATOM     26  C   LIG    1       -6.367   0.463   2.437  0.00  0.00    +0.110 A 
ATOM     27  N   LIG    1       -5.368   1.355   2.151  0.00  0.00    -0.460 N 
ATOM     28  C   LIG    1       -5.514   2.623   1.433  0.00  0.00    +0.330 C 
ENDBRANCH  22  23
ENDBRANCH   6  22
TORSDOF 4
