REMARK  Name = ZINCvU0000000Eqq.0
REMARK                            x       y       z     vdW  Elec       q    Type
REMARK                         _______ _______ _______ _____ _____    ______ ____
ROOT
ATOM      1  C   LIG    1        1.938   0.536  -2.280  0.00  0.00    +0.560 C 
ATOM      2  N   LIG    1        2.330  -0.134  -3.381  0.00  0.00    -0.600 N 
ATOM      3  C   LIG    1        3.616  -0.844  -3.407  0.00  0.00    +0.260 C 
ATOM      4  C   LIG    1        3.369  -2.297  -3.825  0.00  0.00    +0.030 C 
ATOM      5  C   LIG    1        2.611  -2.320  -5.154  0.00  0.00    +0.030 C 
ATOM      6  C   LIG    1        1.256  -1.629  -4.983  0.00  0.00    +0.080 C 
ATOM      7  C   LIG    1        1.477  -0.173  -4.577  0.00  0.00    +0.290 C 
ATOM      8  O   LIG    1        0.834   1.043  -2.238  0.00  0.00    -0.510 OA
ENDROOT
BRANCH   6   9
ATOM      9  C   LIG    1        0.498  -1.681  -6.284  0.00  0.00    +0.100 A 
ATOM     10  N   LIG    1       -0.642  -2.244  -6.431  0.00  0.00    -0.460 NA
ATOM     11  C   LIG    1       -1.206  -2.214  -7.653  0.00  0.00    +0.080 A 
ATOM     12  C   LIG    1       -2.436  -2.745  -8.091  0.00  0.00    +0.080 A 
ATOM     13  C   LIG    1       -2.826  -2.603  -9.388  0.00  0.00    +0.030 A 
ATOM     14  C   LIG    1       -2.024  -1.935 -10.302  0.00  0.00    +0.040 A 
ATOM     15  C   LIG    1       -0.817  -1.405  -9.903  0.00  0.00    +0.060 A 
ATOM     16  C   LIG    1       -0.402  -1.541  -8.580  0.00  0.00    -0.180 A 
ATOM     17  S   LIG    1        1.048  -0.991  -7.745  0.00  0.00    +0.100 S 
ENDBRANCH   6   9
BRANCH   1  23
ATOM     18  C   LIG    1        2.342   0.584   0.187  0.00  0.00    -0.010 A 
ATOM     19  C   LIG    1        3.212   0.702   1.268  0.00  0.00    +0.040 A 
ATOM     20  C   LIG    1        4.564   0.877   1.050  0.00  0.00    +0.040 A 
ATOM     21  C   LIG    1        5.063   0.946  -0.240  0.00  0.00    +0.010 A 
ATOM     22  C   LIG    1        4.216   0.836  -1.324  0.00  0.00    +0.050 A 
ATOM     23  C   LIG    1        2.849   0.654  -1.124  0.00  0.00    -0.120 A 
BRANCH  18  29
ATOM     24  C   LIG    1        0.264  -0.803   0.015  0.00  0.00    -0.020 A 
ATOM     25  C   LIG    1       -1.104  -0.968   0.232  0.00  0.00    +0.060 A 
ATOM     26  C   LIG    1       -1.830   0.033   0.846  0.00  0.00    +0.010 A 
ATOM     27  C   LIG    1       -1.211   1.207   1.240  0.00  0.00    +0.040 A 
ATOM     28  C   LIG    1        0.141   1.391   1.029  0.00  0.00    +0.030 A 
ATOM     29  C   LIG    1        0.892   0.391   0.416  0.00  0.00    +0.010 A 
BRANCH  24  31
ATOM     30  N   LIG    1        1.626  -2.662  -1.118  0.00  0.00    -0.410 NA
ATOM     31  C   LIG    1        1.023  -1.840  -0.617  0.00  0.00    +0.250 C 
ENDBRANCH  24  31
ENDBRANCH  18  29
ENDBRANCH   1  23
TORSDOF 4
