REMARK  Name = ZINCpk00000xIf4Z.0
REMARK                            x       y       z     vdW  Elec       q    Type
REMARK                         _______ _______ _______ _____ _____    ______ ____
ROOT
ATOM      1  C   LIG    1       -3.005  -5.973  -0.941  0.00  0.00    +0.160 A 
ATOM      2  C   LIG    1       -3.861  -5.657   0.116  0.00  0.00    +0.040 A 
ATOM      3  C   LIG    1       -5.154  -6.138   0.118  0.00  0.00    +0.200 A 
ATOM      4  C   LIG    1       -5.603  -6.931  -0.923  0.00  0.00    -0.670 A 
ATOM      5  C   LIG    1       -4.759  -7.247  -1.974  0.00  0.00    +0.230 A 
ATOM      6  C   LIG    1       -3.465  -6.769  -1.991  0.00  0.00    -0.020 A 
ENDROOT
BRANCH   4   7
ATOM      7  S   LIG    1       -7.256  -7.541  -0.912  0.00  0.00    +2.710 S 
ATOM      8  O   LIG    1       -7.672  -7.547   0.446  0.00  0.00    -0.940 OA
ATOM      9  O   LIG    1       -7.261  -8.702  -1.732  0.00  0.00    -0.950 OA
BRANCH   7  10
ATOM     10  N   LIG    1       -8.197  -6.419  -1.685  0.00  0.00    -1.240 NA
ATOM     11  H   LIG    1       -7.956  -5.480  -1.655  0.00  0.00    +0.420 HD
ATOM     12  H   LIG    1       -8.990  -6.701  -2.167  0.00  0.00    +0.430 HD
ENDBRANCH   7  10
ENDBRANCH   4   7
BRANCH   6  13
ATOM     13  N   LIG    1       -2.566  -7.103  -3.118  0.00  0.00    +0.020 N 
ATOM     14  O   LIG    1       -1.423  -6.684  -3.130  0.00  0.00    -0.110 OA
ATOM     15  O   LIG    1       -2.969  -7.798  -4.034  0.00  0.00    -0.160 OA
ENDBRANCH   6  13
BRANCH   1  17
ATOM     16  N   LIG    1       -1.314  -4.787  -0.017  0.00  0.00    -0.180 NA
ATOM     17  N   LIG    1       -1.719  -5.498  -0.949  0.00  0.00    -0.190 NA
BRANCH  16  18
ATOM     18  C   LIG    1        0.060  -4.280  -0.026  0.00  0.00    +0.280 C 
BRANCH  18  21
ATOM     19  C   LIG    1        0.023  -0.708   1.203  0.00  0.00    +0.100 A 
ATOM     20  C   LIG    1        0.042  -2.093   1.190  0.00  0.00    -0.030 A 
ATOM     21  C   LIG    1        0.040  -2.773  -0.014  0.00  0.00    -0.060 A 
ATOM     22  C   LIG    1        0.018  -2.074  -1.206  0.00  0.00    +0.010 A 
ATOM     23  C   LIG    1       -0.006  -0.692  -1.200  0.00  0.00    +0.030 A 
ATOM     24  C   LIG    1        0.002  -0.004   0.002  0.00  0.00    +0.090 A 
BRANCH  19  26
ATOM     25  C   LIG    1        0.048  -0.825   3.578  0.00  0.00    +0.240 C 
ATOM     26  O   LIG    1        0.025  -0.037   2.386  0.00  0.00    -0.310 OA
ENDBRANCH  19  26
BRANCH  24  27
ATOM     27  O   LIG    1       -0.016   1.356   0.009  0.00  0.00    -0.490 OA
ATOM     28  H   LIG    1        0.862   1.761   0.003  0.00  0.00    +0.390 HD
ENDBRANCH  24  27
ENDBRANCH  18  21
ENDBRANCH  16  18
ENDBRANCH   1  17
TORSDOF 8
