REMARK  Name = ZINCrD0000073z3l.0
REMARK                            x       y       z     vdW  Elec       q    Type
REMARK                         _______ _______ _______ _____ _____    ______ ____
ROOT
ATOM      1  N   LIG    1       -6.835  -5.322   0.590  0.00  0.00    -0.650 N 
ATOM      2  H   LIG    1       -7.259  -4.504   0.893  0.00  0.00    +0.430 HD
ATOM      3  C   LIG    1       -5.560  -5.297   0.152  0.00  0.00    +0.540 C 
ATOM      4  O   LIG    1       -4.996  -6.332  -0.133  0.00  0.00    -0.490 OA
ENDROOT
BRANCH   1  10
ATOM      5  C   LIG    1       -8.615  -6.697   1.484  0.00  0.00    +0.160 A 
ATOM      6  C   LIG    1       -9.315  -7.893   1.496  0.00  0.00    -0.030 A 
ATOM      7  C   LIG    1       -8.953  -8.915   0.638  0.00  0.00    +0.130 A 
ATOM      8  C   LIG    1       -7.892  -8.748  -0.233  0.00  0.00    -0.060 A 
ATOM      9  C   LIG    1       -7.192  -7.556  -0.255  0.00  0.00    +0.140 A 
ATOM     10  C   LIG    1       -7.546  -6.529   0.606  0.00  0.00    +0.120 A 
BRANCH   8  11
ATOM     11  N   LIG    1       -7.510  -9.846  -1.150  0.00  0.00    +0.030 N 
ATOM     12  O   LIG    1       -6.576  -9.700  -1.918  0.00  0.00    -0.150 OA
ATOM     13  O   LIG    1       -8.129 -10.895  -1.135  0.00  0.00    -0.160 OA
ENDBRANCH   8  11
BRANCH   5  15
ATOM     14  C   LIG    1      -10.077  -5.935   3.198  0.00  0.00    +0.270 C 
ATOM     15  O   LIG    1       -8.971  -5.691   2.326  0.00  0.00    -0.310 OA
ENDBRANCH   5  15
ENDBRANCH   1  10
BRANCH   3  16
ATOM     16  C   LIG    1       -4.836  -3.982   0.016  0.00  0.00    +0.010 C 
ATOM     17  C   LIG    1       -5.257  -3.300  -1.288  0.00  0.00    +0.100 C 
BRANCH  16  18
ATOM     18  S   LIG    1       -3.050  -4.277  -0.007  0.00  0.00    +0.160 S 
BRANCH  18  19
ATOM     19  C   LIG    1       -2.466  -2.615  -0.018  0.00  0.00    +0.130 A 
ATOM     20  N   LIG    1       -3.207  -1.531  -0.011  0.00  0.00    -0.280 NA
ATOM     21  N   LIG    1       -2.448  -0.492  -0.023  0.00  0.00    -0.240 NA
ATOM     22  C   LIG    1       -1.190  -0.871  -0.038  0.00  0.00    +0.250 A 
ATOM     23  O   LIG    1       -1.177  -2.223  -0.041  0.00  0.00    -0.190 OA
BRANCH  22  24
ATOM     24  C   LIG    1       -0.015   0.012  -0.054  0.00  0.00    +0.030 A 
ATOM     25  C   LIG    1       -0.038   1.375  -0.057  0.00  0.00    +0.060 A 
ATOM     26  C   LIG    1        1.303   1.802  -0.074  0.00  0.00    -0.050 A 
ATOM     27  C   LIG    1        2.072   0.695  -0.081  0.00  0.00    +0.230 A 
ATOM     28  O   LIG    1        1.273  -0.385  -0.070  0.00  0.00    -0.160 OA
ENDBRANCH  22  24
ENDBRANCH  18  19
ENDBRANCH  16  18
ENDBRANCH   3  16
TORSDOF 7
