REMARK  Name = ZINCqH00000518rX.1
REMARK                            x       y       z     vdW  Elec       q    Type
REMARK                         _______ _______ _______ _____ _____    ______ ____
ROOT
ATOM      1  O   LIG    1        6.212  -7.766   1.504  0.00  0.00    -0.460 OA
ATOM      2  C   LIG    1        5.977  -7.354   2.620  0.00  0.00    +0.510 C 
ATOM      3  N   LIG    1        6.391  -8.051   3.697  0.00  0.00    -0.620 N 
ATOM      4  H   LIG    1        6.204  -7.721   4.590  0.00  0.00    +0.430 HD
ENDROOT
BRANCH   3   5
ATOM      5  C   LIG    1        7.087  -9.242   3.528  0.00  0.00    +0.250 A 
ATOM      6  N   LIG    1        7.401  -9.792   2.390  0.00  0.00    -0.250 NA
ATOM      7  N   LIG    1        8.038 -10.880   2.419  0.00  0.00    -0.210 NA
ATOM      8  C   LIG    1        8.335 -11.376   3.590  0.00  0.00    +0.090 A 
ATOM      9  S   LIG    1        7.706 -10.275   4.818  0.00  0.00    +0.110 S 
BRANCH   8  10
ATOM     10  C   LIG    1        9.069 -12.626   3.841  0.00  0.00    +0.030 A 
ATOM     11  C   LIG    1        9.553 -13.474   2.890  0.00  0.00    +0.040 A 
ATOM     12  C   LIG    1       10.182 -14.532   3.574  0.00  0.00    -0.050 A 
ATOM     13  C   LIG    1       10.047 -14.287   4.893  0.00  0.00    +0.210 A 
ATOM     14  O   LIG    1        9.374 -13.136   5.050  0.00  0.00    -0.170 OA
ENDBRANCH   8  10
ENDBRANCH   3   5
BRANCH   2  15
ATOM     15  C   LIG    1        5.223  -6.062   2.804  0.00  0.00    +0.100 C 
BRANCH  15  16
ATOM     16  C   LIG    1        4.873  -5.477   1.434  0.00  0.00    +0.100 C 
BRANCH  16  17
ATOM     17  S   LIG    1        3.966  -3.922   1.655  0.00  0.00    -0.230 S 
BRANCH  17  18
ATOM     18  C   LIG    1        3.645  -3.391  -0.050  0.00  0.00    +0.200 C 
BRANCH  18  19
ATOM     19  C   LIG    1        2.885  -2.090  -0.037  0.00  0.00    +0.070 A 
ATOM     20  C   LIG    1        3.434  -0.856  -0.035  0.00  0.00    +0.120 A 
ATOM     21  N   LIG    1        2.405   0.045  -0.021  0.00  0.00    -0.360 N 
ATOM     22  C   LIG    1        2.372   1.409  -0.013  0.00  0.00    +0.210 A 
ATOM     23  C   LIG    1        1.194   2.068   0.002  0.00  0.00    +0.010 A 
ATOM     24  C   LIG    1       -0.016   1.356   0.009  0.00  0.00    +0.050 A 
ATOM     25  C   LIG    1        0.002  -0.004   0.002  0.00  0.00    +0.070 A 
ATOM     26  C   LIG    1        1.240  -0.678  -0.013  0.00  0.00    +0.230 A 
ATOM     27  N   LIG    1        1.556  -1.965  -0.023  0.00  0.00    -0.480 NA
ENDBRANCH  18  19
ENDBRANCH  17  18
ENDBRANCH  16  17
ENDBRANCH  15  16
ENDBRANCH   2  15
TORSDOF 7
