REMARK  Name = ZINCrD0000073nBD.0
REMARK                            x       y       z     vdW  Elec       q    Type
REMARK                         _______ _______ _______ _____ _____    ______ ____
ROOT
ATOM      1  C   LIG    1       -1.375   7.752  -4.150  0.00  0.00    +0.550 C 
ATOM      2  O   LIG    1       -2.372   8.354  -3.801  0.00  0.00    -0.520 OA
ENDROOT
BRANCH   1   3
ATOM      3  C   LIG    1       -0.658   6.896  -3.189  0.00  0.00    -0.280 A 
ATOM      4  C   LIG    1       -0.999   6.683  -1.867  0.00  0.00    +0.330 A 
ATOM      5  N   LIG    1       -0.090   5.842  -1.349  0.00  0.00    -0.350 N 
ATOM      6  N   LIG    1        0.839   5.522  -2.346  0.00  0.00    -0.290 NA
ATOM      7  C   LIG    1        0.508   6.140  -3.446  0.00  0.00    +0.300 A 
BRANCH   5   8
ATOM      8  C   LIG    1       -0.070   5.347   0.030  0.00  0.00    +0.380 C 
BRANCH   8   9
ATOM      9  C   LIG    1       -0.050   3.840   0.022  0.00  0.00    -0.120 A 
ATOM     10  C   LIG    1        1.156   3.165   0.008  0.00  0.00    +0.050 A 
ATOM     11  C   LIG    1        1.175   1.783   0.000  0.00  0.00    +0.010 A 
ATOM     12  C   LIG    1       -0.013   1.076   0.008  0.00  0.00    +0.010 A 
ATOM     13  C   LIG    1       -1.219   1.751   0.017  0.00  0.00    +0.010 A 
ATOM     14  C   LIG    1       -1.238   3.133   0.030  0.00  0.00    +0.020 A 
ENDBRANCH   8   9
ENDBRANCH   5   8
ENDBRANCH   1   3
BRANCH   1  15
ATOM     15  O   LIG    1       -0.926   7.868  -5.415  0.00  0.00    -0.330 OA
BRANCH  15  16
ATOM     16  C   LIG    1       -1.683   8.728  -6.307  0.00  0.00    +0.160 C 
ATOM     17  C   LIG    1       -1.133  10.154  -6.228  0.00  0.00    +0.060 C 
BRANCH  16  18
ATOM     18  C   LIG    1       -1.558   8.219  -7.720  0.00  0.00    +0.400 C 
ATOM     19  O   LIG    1       -0.698   7.411  -8.001  0.00  0.00    -0.430 OA
BRANCH  18  23
ATOM     20  C   LIG    1       -4.214   9.610 -10.712  0.00  0.00    +0.170 A 
ATOM     21  C   LIG    1       -3.228   8.684 -11.037  0.00  0.00    -0.020 A 
ATOM     22  C   LIG    1       -2.366   8.230 -10.072  0.00  0.00    +0.130 A 
ATOM     23  C   LIG    1       -2.479   8.701  -8.758  0.00  0.00    -0.210 A 
ATOM     24  C   LIG    1       -3.477   9.630  -8.435  0.00  0.00    +0.110 A 
ATOM     25  C   LIG    1       -4.330  10.081  -9.409  0.00  0.00    -0.080 A 
BRANCH  20  27
ATOM     26  C   LIG    1       -6.053  11.006 -11.269  0.00  0.00    +0.250 C 
ATOM     27  O   LIG    1       -5.065  10.055 -11.670  0.00  0.00    -0.310 OA
ENDBRANCH  20  27
ENDBRANCH  18  23
ENDBRANCH  16  18
ENDBRANCH  15  16
ENDBRANCH   1  15
TORSDOF 8
