REMARK  Name = ZINCpk00000xI7VY.0
REMARK                            x       y       z     vdW  Elec       q    Type
REMARK                         _______ _______ _______ _____ _____    ______ ____
ROOT
ATOM      1  N   LIG    1        0.642  -1.214   1.298  0.00  0.00    -0.480 N 
ATOM      2  C   LIG    1        1.038  -1.094  -0.112  0.00  0.00    +0.200 C 
ATOM      3  C   LIG    1        1.048  -2.484  -0.756  0.00  0.00    +0.300 C 
ATOM      4  N   LIG    1       -0.261  -3.114  -0.529  0.00  0.00    -0.610 N 
ATOM      5  C   LIG    1       -0.788  -3.149   0.844  0.00  0.00    +0.280 C 
ATOM      6  C   LIG    1       -0.960  -3.646  -1.552  0.00  0.00    +0.590 C 
ATOM      7  O   LIG    1       -0.462  -3.709  -2.660  0.00  0.00    -0.530 OA
ATOM      8  C   LIG    1       -0.726  -1.732   1.425  0.00  0.00    +0.190 C 
ENDROOT
BRANCH   1  16
ATOM      9  N   LIG    1        3.898  -0.469   3.934  0.00  0.00    -0.540 NA
ATOM     10  C   LIG    1        3.510   0.353   5.091  0.00  0.00    +0.180 C 
ATOM     11  C   LIG    1        2.930   1.672   4.580  0.00  0.00    +0.130 C 
ATOM     12  C   LIG    1        1.875   1.398   3.541  0.00  0.00    +0.190 A 
ATOM     13  N   LIG    1        1.018   2.360   3.217  0.00  0.00    -0.520 NA
ATOM     14  C   LIG    1        0.084   2.161   2.310  0.00  0.00    +0.510 A 
ATOM     15  N   LIG    1       -0.040   1.010   1.681  0.00  0.00    -0.550 NA
ATOM     16  C   LIG    1        0.777  -0.002   1.956  0.00  0.00    +0.340 A 
ATOM     17  C   LIG    1        1.778   0.177   2.916  0.00  0.00    -0.150 A 
ATOM     18  C   LIG    1        2.705  -0.962   3.236  0.00  0.00    +0.260 C 
BRANCH   9  20
ATOM     19  C   LIG    1        6.094  -1.030   4.861  0.00  0.00    +0.030 C 
ATOM     20  C   LIG    1        4.764  -1.582   4.345  0.00  0.00    +0.170 C 
ENDBRANCH   9  20
ENDBRANCH   1  16
BRANCH   6  21
ATOM     21  C   LIG    1       -2.326  -4.150  -1.327  0.00  0.00    -0.230 A 
ATOM     22  C   LIG    1       -3.264  -3.641  -0.478  0.00  0.00    +0.220 A 
ATOM     23  O   LIG    1       -4.369  -4.386  -0.574  0.00  0.00    -0.170 OA
ATOM     24  C   LIG    1       -4.199  -5.384  -1.455  0.00  0.00    +0.180 A 
ATOM     25  C   LIG    1       -2.961  -5.311  -1.968  0.00  0.00    -0.010 A 
ENDBRANCH   6  21
TORSDOF 3
