REMARK  Name = ZINCpe00000bcWFW.0
REMARK                            x       y       z     vdW  Elec       q    Type
REMARK                         _______ _______ _______ _____ _____    ______ ____
ROOT
ATOM      1  N   LIG    1        3.607  -0.521   0.302  0.00  0.00    -0.660 N 
ATOM      2  H   LIG    1        3.657  -1.486   0.212  0.00  0.00    +0.420 HD
ATOM      3  C   LIG    1        4.734   0.199   0.465  0.00  0.00    +0.510 C 
ATOM      4  O   LIG    1        4.684   1.411   0.471  0.00  0.00    -0.500 OA
ENDROOT
BRANCH   1   7
ATOM      5  C   LIG    1        0.072   0.180  -0.454  0.00  0.00    +0.140 A 
ATOM      6  C   LIG    1        1.302  -0.460  -0.415  0.00  0.00    +0.030 A 
ATOM      7  C   LIG    1        2.365   0.123   0.261  0.00  0.00    +0.160 A 
ATOM      8  C   LIG    1        2.194   1.345   0.897  0.00  0.00    +0.050 A 
ATOM      9  C   LIG    1        0.968   1.982   0.859  0.00  0.00    +0.040 A 
ATOM     10  C   LIG    1       -0.093   1.404   0.186  0.00  0.00    +0.060 A 
ATOM     11  F   LIG    1       -1.288   2.032   0.145  0.00  0.00    -0.140 F 
BRANCH   5  13
ATOM     12  C   LIG    1       -0.779  -1.114  -2.260  0.00  0.00    +0.550 C 
ATOM     13  N   LIG    1       -1.001  -0.405  -1.135  0.00  0.00    -0.670 N 
ATOM     14  H   LIG    1       -1.905  -0.300  -0.798  0.00  0.00    +0.420 HD
ATOM     15  O   LIG    1        0.359  -1.317  -2.636  0.00  0.00    -0.520 OA
BRANCH  12  17
ATOM     16  C   LIG    1       -1.696  -2.342  -4.142  0.00  0.00    +0.160 C 
ATOM     17  C   LIG    1       -1.914  -1.642  -3.032  0.00  0.00    -0.090 C 
ENDBRANCH  12  17
ENDBRANCH   5  13
ENDBRANCH   1   7
BRANCH   3  18
ATOM     18  C   LIG    1        6.057  -0.501   0.641  0.00  0.00    +0.320 C 
BRANCH  18  19
ATOM     19  N   LIG    1        7.120   0.495   0.799  0.00  0.00    -1.110 NA
ATOM     20  H   LIG    1        6.954   1.422   0.566  0.00  0.00    +0.430 HD
BRANCH  19  21
ATOM     21  S   LIG    1        8.604   0.039   1.374  0.00  0.00    +2.620 S 
ATOM     22  O   LIG    1        8.312  -0.682   2.564  0.00  0.00    -0.950 OA
ATOM     23  O   LIG    1        9.351   1.247   1.415  0.00  0.00    -0.940 OA
BRANCH  21  24
ATOM     24  C   LIG    1        9.261  -1.073   0.101  0.00  0.00    -0.350 C 
BRANCH  24  25
ATOM     25  C   LIG    1       10.646  -1.569   0.521  0.00  0.00    +0.070 C 
BRANCH  25  26
ATOM     26  C   LIG    1       11.200  -2.507  -0.553  0.00  0.00    +0.170 C 
BRANCH  26  27
ATOM     27  O   LIG    1       12.494  -2.970  -0.160  0.00  0.00    -0.390 OA
ATOM     28  C   LIG    1       13.104  -3.857  -1.099  0.00  0.00    +0.200 C 
ENDBRANCH  26  27
ENDBRANCH  25  26
ENDBRANCH  24  25
ENDBRANCH  21  24
ENDBRANCH  19  21
ENDBRANCH  18  19
ENDBRANCH   3  18
TORSDOF 10
