REMARK  Name = ZINCwl000000083z.0
REMARK                            x       y       z     vdW  Elec       q    Type
REMARK                         _______ _______ _______ _____ _____    ______ ____
ROOT
ATOM      1  C   LIG    1        4.562   5.141   1.809  0.00  0.00    +0.190 C 
ATOM      2  C   LIG    1        4.649   3.873   1.001  0.00  0.00    +0.410 A 
ATOM      3  N   LIG    1        3.607   3.101   0.950  0.00  0.00    -0.520 NA
ATOM      4  C   LIG    1        3.612   1.944   0.243  0.00  0.00    +0.140 A 
ATOM      5  C   LIG    1        2.486   1.110   0.188  0.00  0.00    +0.140 A 
ATOM      6  C   LIG    1        2.542  -0.064  -0.542  0.00  0.00    +0.080 A 
ATOM      7  C   LIG    1        3.694  -0.418  -1.228  0.00  0.00    +0.030 A 
ATOM      8  C   LIG    1        4.811   0.388  -1.188  0.00  0.00    +0.100 A 
ATOM      9  C   LIG    1        4.782   1.572  -0.455  0.00  0.00    -0.180 A 
ATOM     10  C   LIG    1        5.945   2.468  -0.377  0.00  0.00    +0.550 A 
ATOM     11  O   LIG    1        6.984   2.207  -0.955  0.00  0.00    -0.500 OA
ATOM     12  N   LIG    1        5.816   3.595   0.361  0.00  0.00    -0.530 N 
ENDROOT
BRANCH  12  13
ATOM     13  C   LIG    1        6.944   4.523   0.472  0.00  0.00    +0.250 C 
ATOM     14  C   LIG    1        6.985   5.430  -0.762  0.00  0.00    +0.070 C 
ATOM     15  C   LIG    1        7.261   4.564  -1.995  0.00  0.00    +0.080 C 
ATOM     16  C   LIG    1        8.529   3.782  -1.777  0.00  0.00    +0.550 C 
ATOM     17  N   LIG    1        8.924   3.425  -0.546  0.00  0.00    -0.650 N 
ATOM     18  H   LIG    1        9.744   2.914  -0.449  0.00  0.00    +0.420 HD
ATOM     19  O   LIG    1        9.207   3.470  -2.732  0.00  0.00    -0.500 OA
ATOM     20  C   LIG    1        8.230   3.745   0.557  0.00  0.00    +0.530 C 
ATOM     21  O   LIG    1        8.646   3.400   1.642  0.00  0.00    -0.490 OA
ENDBRANCH  12  13
BRANCH   5  22
ATOM     22  N   LIG    1        1.318   1.459   0.871  0.00  0.00    -0.640 N 
ATOM     23  H   LIG    1        1.105   2.394   1.021  0.00  0.00    +0.420 HD
ATOM     24  C   LIG    1        0.487   0.498   1.322  0.00  0.00    +0.560 C 
ATOM     25  O   LIG    1        0.710  -0.669   1.062  0.00  0.00    -0.510 OA
BRANCH  24  26
ATOM     26  C   LIG    1       -0.697   0.862   2.126  0.00  0.00    -0.130 A 
ATOM     27  C   LIG    1       -0.952   2.201   2.431  0.00  0.00    +0.130 A 
ATOM     28  C   LIG    1       -2.061   2.535   3.178  0.00  0.00    +0.010 A 
ATOM     29  C   LIG    1       -2.917   1.545   3.635  0.00  0.00    +0.140 A 
ATOM     30  C   LIG    1       -2.665   0.214   3.339  0.00  0.00    -0.210 A 
ATOM     31  F   LIG    1       -3.999   1.878   4.372  0.00  0.00    -0.130 F 
ATOM     32  C   LIG    1       -1.562  -0.132   2.589  0.00  0.00    +0.160 A 
BRANCH  30  33
ATOM     33  C   LIG    1       -3.600  -0.857   3.840  0.00  0.00    +0.350 C 
BRANCH  33  34
ATOM     34  N   LIG    1       -3.381  -1.066   5.277  0.00  0.00    -0.640 N 
ATOM     35  H   LIG    1       -4.006  -1.783   5.612  0.00  0.00    +0.440 HD
ATOM     36  H   LIG    1       -3.559  -0.205   5.773  0.00  0.00    +0.430 HD
ATOM     37  H   LIG    1       -2.426  -1.353   5.434  0.00  0.00    +0.440 HD
ENDBRANCH  33  34
ENDBRANCH  30  33
ENDBRANCH  24  26
ENDBRANCH   5  22
TORSDOF 5
