REMARK  Name = ZINCrg000000rgC8.0
REMARK                            x       y       z     vdW  Elec       q    Type
REMARK                         _______ _______ _______ _____ _____    ______ ____
ROOT
ATOM      1  C   LIG    1       -0.860   3.103   1.215  0.00  0.00    +0.040 C 
ATOM      2  C   LIG    1       -0.729   1.579   1.267  0.00  0.00    +0.260 C 
ENDROOT
BRANCH   2   3
ATOM      3  N   LIG    1       -2.062   0.977   1.338  0.00  0.00    -0.720 N 
ATOM      4  H   LIG    1       -2.504   0.679   0.527  0.00  0.00    +0.400 HD
ATOM      5  C   LIG    1       -2.675   0.835   2.530  0.00  0.00    +0.520 C 
ATOM      6  O   LIG    1       -2.123   1.207   3.544  0.00  0.00    -0.530 OA
BRANCH   5   7
ATOM      7  C   LIG    1       -4.047   0.215   2.603  0.00  0.00    +0.050 C 
BRANCH   7   8
ATOM      8  C   LIG    1       -4.510   0.173   4.061  0.00  0.00    +0.370 C 
BRANCH   8   9
ATOM      9  N   LIG    1       -5.844  -0.429   4.132  0.00  0.00    -0.350 N 
ATOM     10  C   LIG    1       -6.196  -1.491   4.887  0.00  0.00    +0.370 A 
ATOM     11  C   LIG    1       -7.509  -1.733   4.671  0.00  0.00    -0.190 A 
ATOM     12  C   LIG    1       -7.976  -0.787   3.753  0.00  0.00    +0.330 A 
ATOM     13  N   LIG    1       -6.980  -0.002   3.433  0.00  0.00    -0.270 NA
BRANCH  11  14
ATOM     14  N   LIG    1       -8.311  -2.810   5.295  0.00  0.00    +0.070 N 
ATOM     15  O   LIG    1       -9.491  -2.928   5.021  0.00  0.00    -0.160 OA
ATOM     16  O   LIG    1       -7.789  -3.577   6.085  0.00  0.00    -0.170 OA
ENDBRANCH  11  14
ENDBRANCH   8   9
ENDBRANCH   7   8
ENDBRANCH   5   7
ENDBRANCH   2   3
BRANCH   2  17
ATOM     17  C   LIG    1       -0.013   1.086   0.008  0.00  0.00    -0.010 C 
ATOM     18  C   LIG    1       -0.753   1.593  -1.232  0.00  0.00    +0.060 C 
BRANCH  17  19
ATOM     19  C   LIG    1        1.401   1.607  -0.003  0.00  0.00    +0.510 C 
ATOM     20  N   LIG    1        2.226   1.299  -1.023  0.00  0.00    -0.660 N 
ATOM     21  H   LIG    1        1.909   0.741  -1.751  0.00  0.00    +0.420 HD
ATOM     22  O   LIG    1        1.797   2.305   0.907  0.00  0.00    -0.460 OA
BRANCH  20  23
ATOM     23  C   LIG    1        3.535   1.782  -1.033  0.00  0.00    +0.340 A 
ATOM     24  N   LIG    1        3.961   2.542  -0.038  0.00  0.00    -0.460 NA
ATOM     25  C   LIG    1        5.191   3.019  -0.008  0.00  0.00    +0.290 A 
ATOM     26  C   LIG    1        6.086   2.740  -1.022  0.00  0.00    -0.050 A 
ATOM     27  C   LIG    1        5.683   1.946  -2.086  0.00  0.00    +0.080 A 
ATOM     28  C   LIG    1        4.385   1.454  -2.089  0.00  0.00    +0.020 A 
BRANCH  28  29
ATOM     29  O   LIG    1        3.948   0.668  -3.109  0.00  0.00    -0.490 OA
ATOM     30  H   LIG    1        3.553   1.159  -3.843  0.00  0.00    +0.390 HD
ENDBRANCH  28  29
ENDBRANCH  20  23
ENDBRANCH  17  19
ENDBRANCH   2  17
TORSDOF 9
