REMARK  Name = ZINCrg00000BrAa6.0
REMARK                            x       y       z     vdW  Elec       q    Type
REMARK                         _______ _______ _______ _____ _____    ______ ____
ROOT
ATOM      1  C   LIG    1       -0.729   1.579   1.267  0.00  0.00    -0.030 C 
ATOM      2  C   LIG    1        0.079   1.178   2.503  0.00  0.00    +0.060 C 
ATOM      3  C   LIG    1       -0.623   1.704   3.759  0.00  0.00    +0.300 C 
ATOM      4  N   LIG    1       -2.011   1.221   3.763  0.00  0.00    -0.610 N 
ATOM      5  C   LIG    1       -2.849   1.474   2.583  0.00  0.00    +0.290 C 
ATOM      6  C   LIG    1       -2.505   0.559   4.828  0.00  0.00    +0.530 C 
ATOM      7  O   LIG    1       -1.803   0.357   5.796  0.00  0.00    -0.520 OA
ATOM      8  C   LIG    1       -2.122   0.951   1.340  0.00  0.00    +0.280 C 
ATOM      9  F   LIG    1       -2.003  -0.441   1.420  0.00  0.00    -0.180 F 
ATOM     10  F   LIG    1       -2.850   1.293   0.195  0.00  0.00    -0.190 F 
ENDROOT
BRANCH   1  11
ATOM     11  C   LIG    1       -0.013   1.086   0.008  0.00  0.00    +0.290 C 
BRANCH  11  14
ATOM     12  O   LIG    1        0.729   0.573  -2.534  0.00  0.00    -0.500 OA
ATOM     13  C   LIG    1       -0.268   1.258  -2.409  0.00  0.00    +0.590 C 
ATOM     14  N   LIG    1       -0.721   1.571  -1.179  0.00  0.00    -0.730 N 
ATOM     15  H   LIG    1       -1.516   2.118  -1.079  0.00  0.00    +0.400 HD
BRANCH  13  16
ATOM     16  C   LIG    1       -0.979   1.746  -3.600  0.00  0.00    -0.030 A 
ATOM     17  C   LIG    1       -0.642   1.512  -4.924  0.00  0.00    -0.080 A 
ATOM     18  C   LIG    1       -1.615   2.179  -5.676  0.00  0.00    +0.220 A 
ATOM     19  N   LIG    1       -2.445   2.750  -4.842  0.00  0.00    -0.250 NA
ATOM     20 CL   LIG    1        0.702   0.590  -5.521  0.00  0.00    +0.000 Cl
ATOM     21  N   LIG    1       -2.110   2.515  -3.624  0.00  0.00    -0.370 N 
ATOM     22  H   LIG    1       -2.584   2.835  -2.842  0.00  0.00    +0.450 HD
ENDBRANCH  13  16
ENDBRANCH  11  14
ENDBRANCH   1  11
BRANCH   6  23
ATOM     23  C   LIG    1       -3.930   0.070   4.816  0.00  0.00    +0.060 C 
BRANCH  23  24
ATOM     24  C   LIG    1       -4.236  -0.643   6.135  0.00  0.00    +0.180 C 
BRANCH  24  25
ATOM     25  C   LIG    1       -5.661  -1.131   6.123  0.00  0.00    +0.000 A 
ATOM     26  N   LIG    1       -6.742  -0.416   5.907  0.00  0.00    -0.280 NA
ATOM     27  N   LIG    1       -7.769  -1.187   5.978  0.00  0.00    -0.250 N 
ATOM     28  H   LIG    1       -8.686  -0.896   5.855  0.00  0.00    +0.470 HD
ATOM     29  N   LIG    1       -7.414  -2.396   6.234  0.00  0.00    -0.280 NA
ATOM     30  C   LIG    1       -6.104  -2.439   6.333  0.00  0.00    +0.190 A 
ENDBRANCH  24  25
ENDBRANCH  23  24
ENDBRANCH   6  23
TORSDOF 6
