REMARK  Name = ZINCrD0000075gra.0
REMARK                            x       y       z     vdW  Elec       q    Type
REMARK                         _______ _______ _______ _____ _____    ______ ____
ROOT
ATOM      1  C   LIG    1       -0.021  -0.003  -0.260  0.00  0.00    +0.260 C 
ENDROOT
BRANCH   1   3
ATOM      2  N   LIG    1       -1.640  -1.854   0.008  0.00  0.00    -0.570 N 
ATOM      3  C   LIG    1       -1.426  -0.547  -0.243  0.00  0.00    +0.520 C 
ATOM      4  O   LIG    1       -2.365   0.191  -0.456  0.00  0.00    -0.480 OA
BRANCH   2   5
ATOM      5  C   LIG    1       -2.947  -2.340   0.123  0.00  0.00    +0.130 A 
ATOM      6  C   LIG    1       -3.738  -1.959   1.199  0.00  0.00    +0.010 A 
ATOM      7  C   LIG    1       -5.030  -2.436   1.308  0.00  0.00    +0.020 A 
ATOM      8  C   LIG    1       -5.532  -3.300   0.352  0.00  0.00    +0.020 A 
ATOM      9  C   LIG    1       -4.745  -3.686  -0.718  0.00  0.00    +0.020 A 
ATOM     10  C   LIG    1       -3.454  -3.208  -0.835  0.00  0.00    +0.010 A 
ENDBRANCH   2   5
BRANCH   2  11
ATOM     11  C   LIG    1       -0.504  -2.766   0.160  0.00  0.00    +0.310 C 
BRANCH  11  12
ATOM     12  C   LIG    1       -0.082  -2.815   1.630  0.00  0.00    +0.180 C 
BRANCH  12  14
ATOM     13  N   LIG    1        1.941  -4.439   1.900  0.00  0.00    -0.420 NA
ATOM     14  C   LIG    1        1.059  -3.732   1.782  0.00  0.00    +0.200 C 
ENDBRANCH  12  14
ENDBRANCH  11  12
ENDBRANCH   2  11
ENDBRANCH   1   3
BRANCH   1  15
ATOM     15  O   LIG    1       -0.056   1.419  -0.551  0.00  0.00    -0.310 OA
BRANCH  15  16
ATOM     16  C   LIG    1        1.126   2.062  -0.602  0.00  0.00    +0.530 C 
ATOM     17  O   LIG    1        2.158   1.452  -0.409  0.00  0.00    -0.490 OA
BRANCH  16  18
ATOM     18  C   LIG    1        1.167   3.514  -0.894  0.00  0.00    +0.120 A 
ATOM     19  N   LIG    1        0.038   4.161  -1.107  0.00  0.00    -0.410 NA
ATOM     20  C   LIG    1        0.027   5.468  -1.367  0.00  0.00    +0.120 A 
ATOM     21  C   LIG    1       -1.183   6.153  -1.588  0.00  0.00    +0.060 A 
ATOM     22  C   LIG    1       -1.164   7.487  -1.857  0.00  0.00    +0.040 A 
ATOM     23  C   LIG    1        0.037   8.191  -1.920  0.00  0.00    +0.030 A 
ATOM     24  C   LIG    1        1.228   7.564  -1.713  0.00  0.00    +0.030 A 
ATOM     25  C   LIG    1        1.249   6.189  -1.432  0.00  0.00    -0.080 A 
ATOM     26  C   LIG    1        2.460   5.506  -1.212  0.00  0.00    +0.090 A 
ATOM     27  C   LIG    1        2.408   4.168  -0.944  0.00  0.00    +0.030 A 
ENDBRANCH  16  18
ENDBRANCH  15  16
ENDBRANCH   1  15
TORSDOF 8
