REMARK  Name = ZINCpk00000eaqwX.0
REMARK                            x       y       z     vdW  Elec       q    Type
REMARK                         _______ _______ _______ _____ _____    ______ ____
ROOT
ATOM      1  O   LIG    1        1.139   1.891   0.001  0.00  0.00    -0.330 OA
ENDROOT
BRANCH   1   2
ATOM      2  C   LIG    1       -0.014   1.204   0.009  0.00  0.00    +0.460 C 
ATOM      3  O   LIG    1        0.002  -0.004   0.002  0.00  0.00    -0.490 OA
BRANCH   2   4
ATOM      4  C   LIG    1       -1.329   1.940   0.019  0.00  0.00    +0.170 C 
BRANCH   4   8
ATOM      5  C   LIG    1       -4.543  -0.882   0.013  0.00  0.00    +0.110 A 
ATOM      6  C   LIG    1       -4.025  -0.416  -1.184  0.00  0.00    -0.030 A 
ATOM      7  C   LIG    1       -2.989   0.501  -1.179  0.00  0.00    +0.030 A 
ATOM      8  C   LIG    1       -2.462   0.945   0.019  0.00  0.00    -0.080 A 
ATOM      9  C   LIG    1       -2.974   0.483   1.217  0.00  0.00    -0.010 A 
ATOM     10  C   LIG    1       -4.015  -0.431   1.219  0.00  0.00    +0.100 A 
BRANCH   5  12
ATOM     11  C   LIG    1       -6.056  -2.198  -1.266  0.00  0.00    +0.250 C 
ATOM     12  O   LIG    1       -5.565  -1.779   0.009  0.00  0.00    -0.310 OA
ENDBRANCH   5  12
BRANCH  10  13
ATOM     13  O   LIG    1       -4.520  -0.887   2.397  0.00  0.00    -0.310 OA
ATOM     14  C   LIG    1       -3.929  -0.380   3.595  0.00  0.00    +0.240 C 
ENDBRANCH  10  13
ENDBRANCH   4   8
ENDBRANCH   2   4
ENDBRANCH   1   2
BRANCH   1  15
ATOM     15  C   LIG    1        2.367   1.117  -0.015  0.00  0.00    +0.270 C 
BRANCH  15  16
ATOM     16  C   LIG    1        3.550   2.051  -0.021  0.00  0.00    +0.520 C 
ATOM     17  N   LIG    1        4.802   1.553  -0.035  0.00  0.00    -0.690 N 
ATOM     18  H   LIG    1        4.942   0.593  -0.042  0.00  0.00    +0.410 HD
ATOM     19  C   LIG    1        5.859   2.388  -0.041  0.00  0.00    +0.700 C 
ATOM     20  N   LIG    1        7.112   1.890  -0.056  0.00  0.00    -0.730 N 
ATOM     21  H   LIG    1        7.252   0.930  -0.062  0.00  0.00    +0.400 HD
ATOM     22  O   LIG    1        5.684   3.591  -0.033  0.00  0.00    -0.520 OA
ATOM     23  O   LIG    1        3.375   3.251  -0.013  0.00  0.00    -0.440 OA
BRANCH  20  24
ATOM     24  C   LIG    1        8.261   2.798  -0.062  0.00  0.00    +0.180 C 
ATOM     25  C   LIG    1        8.203   3.687  -1.306  0.00  0.00    +0.030 C 
ATOM     26  C   LIG    1        9.556   1.983  -0.079  0.00  0.00    +0.040 C 
ATOM     27  C   LIG    1        8.226   3.674   1.193  0.00  0.00    +0.030 C 
ENDBRANCH  20  24
ENDBRANCH  15  16
ENDBRANCH   1  15
TORSDOF 8
