REMARK  Name = ZINCwl00000009PO.1
REMARK                            x       y       z     vdW  Elec       q    Type
REMARK                         _______ _______ _______ _____ _____    ______ ____
ROOT
ATOM      1  C   LIG    1        0.459  -0.775   3.484  0.00  0.00    +0.370 A 
ATOM      2  N   LIG    1       -0.090  -0.058   2.517  0.00  0.00    -0.480 NA
ATOM      3  C   LIG    1        0.587   0.887   1.882  0.00  0.00    +0.330 A 
ATOM      4  C   LIG    1        1.914   1.162   2.205  0.00  0.00    -0.080 A 
ATOM      5  C   LIG    1        2.530   0.445   3.210  0.00  0.00    +0.160 A 
ATOM      6  C   LIG    1        1.793  -0.550   3.868  0.00  0.00    -0.060 A 
ENDROOT
BRANCH   3   7
ATOM      7  N   LIG    1       -0.033   1.611   0.876  0.00  0.00    -0.500 N 
ATOM      8  C   LIG    1        0.724   1.522  -0.381  0.00  0.00    +0.230 C 
ATOM      9  C   LIG    1       -0.023   2.283  -1.478  0.00  0.00    +0.290 C 
ATOM     10  N   LIG    1       -0.181   3.688  -1.080  0.00  0.00    -0.380 N 
ATOM     11  C   LIG    1       -0.961   3.761   0.162  0.00  0.00    +0.180 C 
ATOM     12  H   LIG    1        0.728   4.099  -0.931  0.00  0.00    +0.420 HD
ATOM     13  C   LIG    1       -0.222   3.013   1.274  0.00  0.00    +0.240 C 
BRANCH  11  14
ATOM     14  C   LIG    1       -1.140   5.226   0.566  0.00  0.00    +0.030 C 
ATOM     15  C   LIG    1       -1.994   5.305   1.833  0.00  0.00    +0.060 C 
ENDBRANCH  11  14
BRANCH  10  16
ATOM     16  C   LIG    1       -0.882   4.422  -2.142  0.00  0.00    +0.230 C 
BRANCH  16  17
ATOM     17  C   LIG    1        0.014   4.507  -3.380  0.00  0.00    +0.210 C 
ATOM     18  C   LIG    1       -0.626   5.441  -4.409  0.00  0.00    +0.050 C 
BRANCH  17  19
ATOM     19  O   LIG    1        0.165   3.204  -3.949  0.00  0.00    -0.550 OA
ATOM     20  H   LIG    1       -0.667   2.797  -4.226  0.00  0.00    +0.390 HD
ENDBRANCH  17  19
ENDBRANCH  16  17
ENDBRANCH  10  16
ENDBRANCH   3   7
BRANCH   1  23
ATOM     21  C   LIG    1       -1.595  -2.379   6.092  0.00  0.00    +0.170 C 
ATOM     22  C   LIG    1       -0.849  -1.248   5.381  0.00  0.00    +0.210 C 
ATOM     23  N   LIG    1       -0.284  -1.753   4.122  0.00  0.00    -0.480 N 
ATOM     24  C   LIG    1       -1.343  -2.267   3.242  0.00  0.00    +0.220 C 
ATOM     25  C   LIG    1       -2.089  -3.399   3.953  0.00  0.00    +0.190 C 
ATOM     26  N   LIG    1       -2.653  -2.894   5.212  0.00  0.00    -0.530 NA
BRANCH  21  28
ATOM     27  C   LIG    1       -1.110  -1.395   8.337  0.00  0.00    +0.020 C 
ATOM     28  C   LIG    1       -2.218  -1.847   7.384  0.00  0.00    +0.020 C 
ENDBRANCH  21  28
BRANCH  26  29
ATOM     29  C   LIG    1       -3.442  -3.932   5.889  0.00  0.00    +0.200 C 
BRANCH  29  30
ATOM     30  C   LIG    1       -2.527  -5.094   6.280  0.00  0.00    +0.160 C 
ATOM     31  C   LIG    1       -3.374  -6.255   6.806  0.00  0.00    +0.010 C 
BRANCH  30  32
ATOM     32  O   LIG    1       -1.621  -4.666   7.298  0.00  0.00    -0.550 OA
ATOM     33  H   LIG    1       -2.047  -4.454   8.140  0.00  0.00    +0.370 HD
ENDBRANCH  30  32
ENDBRANCH  29  30
ENDBRANCH  26  29
ENDBRANCH   1  23
BRANCH   6  34
ATOM     34  C   LIG    1        2.389  -1.325   4.915  0.00  0.00    +0.250 C 
ATOM     35  N   LIG    1        2.862  -1.939   5.745  0.00  0.00    -0.380 NA
ENDBRANCH   6  34
TORSDOF 11
