REMARK  Name = ZINCwl00000009PO.2
REMARK                            x       y       z     vdW  Elec       q    Type
REMARK                         _______ _______ _______ _____ _____    ______ ____
ROOT
ATOM      1  C   LIG    1       -1.586  -0.897  -0.482  0.00  0.00    +0.380 A 
ATOM      2  N   LIG    1       -1.755  -1.465  -1.665  0.00  0.00    -0.540 NA
ATOM      3  C   LIG    1       -2.831  -2.188  -1.942  0.00  0.00    +0.330 A 
ATOM      4  C   LIG    1       -3.839  -2.369  -0.997  0.00  0.00    -0.030 A 
ATOM      5  C   LIG    1       -3.711  -1.791   0.249  0.00  0.00    +0.160 A 
ATOM      6  C   LIG    1       -2.561  -1.036   0.521  0.00  0.00    -0.060 A 
ENDROOT
BRANCH   3   7
ATOM      7  N   LIG    1       -2.959  -2.767  -3.194  0.00  0.00    -0.470 N 
ATOM      8  C   LIG    1       -4.206  -2.343  -3.846  0.00  0.00    +0.240 C 
ATOM      9  C   LIG    1       -4.337  -3.050  -5.197  0.00  0.00    +0.270 C 
ATOM     10  N   LIG    1       -3.183  -2.712  -6.041  0.00  0.00    -0.380 N 
ATOM     11  C   LIG    1       -1.948  -3.164  -5.388  0.00  0.00    +0.170 C 
ATOM     12  H   LIG    1       -3.146  -1.713  -6.176  0.00  0.00    +0.430 HD
ATOM     13  C   LIG    1       -1.796  -2.458  -4.039  0.00  0.00    +0.250 C 
BRANCH  11  14
ATOM     14  C   LIG    1       -2.012  -4.677  -5.168  0.00  0.00    +0.040 C 
ATOM     15  C   LIG    1       -0.657  -5.177  -4.663  0.00  0.00    +0.060 C 
ENDBRANCH  11  14
BRANCH  10  16
ATOM     16  C   LIG    1       -3.320  -3.377  -7.344  0.00  0.00    +0.230 C 
BRANCH  16  17
ATOM     17  C   LIG    1       -4.519  -2.791  -8.093  0.00  0.00    +0.200 C 
ATOM     18  C   LIG    1       -4.736  -3.567  -9.393  0.00  0.00    +0.050 C 
BRANCH  17  19
ATOM     19  O   LIG    1       -4.268  -1.417  -8.394  0.00  0.00    -0.560 OA
ATOM     20  H   LIG    1       -3.487  -1.272  -8.946  0.00  0.00    +0.390 HD
ENDBRANCH  17  19
ENDBRANCH  16  17
ENDBRANCH  10  16
ENDBRANCH   3   7
BRANCH   1  23
ATOM     21  C   LIG    1        1.970  -0.174   0.170  0.00  0.00    +0.130 C 
ATOM     22  C   LIG    1        0.744  -1.018  -0.186  0.00  0.00    +0.220 C 
ATOM     23  N   LIG    1       -0.445  -0.155  -0.233  0.00  0.00    -0.500 N 
ATOM     24  C   LIG    1       -0.280   0.910  -1.232  0.00  0.00    +0.210 C 
ATOM     25  C   LIG    1        0.946   1.754  -0.877  0.00  0.00    +0.210 C 
ATOM     26  N   LIG    1        2.135   0.891  -0.830  0.00  0.00    -0.530 NA
BRANCH  21  28
ATOM     27  C   LIG    1        3.097  -2.095   1.301  0.00  0.00    +0.020 C 
ATOM     28  C   LIG    1        3.216  -1.062   0.179  0.00  0.00    +0.020 C 
ENDBRANCH  21  28
BRANCH  26  29
ATOM     29  C   LIG    1        3.347   1.678  -0.565  0.00  0.00    +0.200 C 
BRANCH  29  30
ATOM     30  C   LIG    1        3.722   2.473  -1.818  0.00  0.00    +0.170 C 
ATOM     31  C   LIG    1        5.084   3.139  -1.610  0.00  0.00    +0.000 C 
BRANCH  30  32
ATOM     32  O   LIG    1        2.733   3.476  -2.060  0.00  0.00    -0.570 OA
ATOM     33  H   LIG    1        2.907   4.019  -2.841  0.00  0.00    +0.380 HD
ENDBRANCH  30  32
ENDBRANCH  29  30
ENDBRANCH  26  29
ENDBRANCH   1  23
BRANCH   6  34
ATOM     34  C   LIG    1       -2.382  -0.417   1.800  0.00  0.00    +0.250 C 
ATOM     35  N   LIG    1       -2.241   0.074   2.815  0.00  0.00    -0.390 NA
ENDBRANCH   6  34
TORSDOF 11
