REMARK  Name = ZINCpe000000XVVK.0
REMARK                            x       y       z     vdW  Elec       q    Type
REMARK                         _______ _______ _______ _____ _____    ______ ____
ROOT
ATOM      1  C   LIG    1        3.719   1.508  -0.025  0.00  0.00    +0.520 C 
ATOM      2  N   LIG    1        4.895   0.851  -0.040  0.00  0.00    -0.620 N 
ATOM      3  C   LIG    1        4.937  -0.620  -0.042  0.00  0.00    +0.300 C 
ATOM      4  C   LIG    1        5.851  -1.074  -1.192  0.00  0.00    +0.210 C 
ATOM      5  N   LIG    1        7.157  -0.415  -1.061  0.00  0.00    -0.460 N 
ATOM      6  C   LIG    1        7.035   1.043  -1.192  0.00  0.00    +0.220 C 
ATOM      7  C   LIG    1        6.170   1.584  -0.048  0.00  0.00    +0.300 C 
ATOM      8  O   LIG    1        3.702   2.721  -0.019  0.00  0.00    -0.530 OA
ENDROOT
BRANCH   5   9
ATOM      9  C   LIG    1        8.062  -0.921  -1.979  0.00  0.00    +0.490 A 
ATOM     10  N   LIG    1        8.667  -0.091  -2.816  0.00  0.00    -0.550 NA
ATOM     11  C   LIG    1        9.540  -0.541  -3.701  0.00  0.00    +0.350 A 
ATOM     12  C   LIG    1        9.811  -1.899  -3.754  0.00  0.00    -0.110 A 
ATOM     13  C   LIG    1        9.156  -2.740  -2.868  0.00  0.00    +0.350 A 
ATOM     14  N   LIG    1        8.298  -2.224  -2.004  0.00  0.00    -0.530 NA
ENDBRANCH   5   9
BRANCH   1  15
ATOM     15  C   LIG    1        2.424   0.737  -0.017  0.00  0.00    +0.050 C 
BRANCH  15  16
ATOM     16  C   LIG    1        1.248   1.716  -0.001  0.00  0.00    +0.290 C 
BRANCH  16  18
ATOM     17  C   LIG    1       -1.187   1.624   0.017  0.00  0.00    +0.610 C 
ATOM     18  N   LIG    1       -0.011   0.966   0.007  0.00  0.00    -0.720 N 
ATOM     19  H   LIG    1        0.002  -0.004   0.002  0.00  0.00    +0.400 HD
ATOM     20  O   LIG    1       -1.204   2.841   0.023  0.00  0.00    -0.510 OA
BRANCH  17  23
ATOM     21  C   LIG    1       -4.051   2.878   0.037  0.00  0.00    +0.140 C 
ATOM     22  C   LIG    1       -3.702   1.412   0.027  0.00  0.00    -0.080 A 
ATOM     23  C   LIG    1       -2.447   0.873   0.018  0.00  0.00    -0.090 A 
ATOM     24  O   LIG    1       -2.570  -0.470   0.006  0.00  0.00    -0.170 OA
ATOM     25  C   LIG    1       -3.868  -0.798   0.015  0.00  0.00    +0.210 A 
ATOM     26  C   LIG    1       -4.603   0.336   0.025  0.00  0.00    -0.070 A 
ENDBRANCH  17  23
ENDBRANCH  16  18
ENDBRANCH  15  16
ENDBRANCH   1  15
TORSDOF 5
