REMARK  Name = ZINCpk000005ZzhF.0
REMARK                            x       y       z     vdW  Elec       q    Type
REMARK                         _______ _______ _______ _____ _____    ______ ____
ROOT
ATOM      1  C   LIG    1       -1.748  -0.009  -1.844  0.00  0.00    +0.540 C 
ATOM      2  N   LIG    1       -2.275   0.417  -3.009  0.00  0.00    -0.610 N 
ATOM      3  C   LIG    1       -2.286   1.812  -3.492  0.00  0.00    +0.260 C 
ATOM      4  C   LIG    1       -2.403   1.694  -5.035  0.00  0.00    +0.050 C 
ATOM      5  C   LIG    1       -3.355   0.476  -5.182  0.00  0.00    +0.270 C 
ATOM      6  C   LIG    1       -2.940  -0.424  -4.006  0.00  0.00    +0.150 C 
ATOM      7  C   LIG    1       -4.178  -1.106  -3.401  0.00  0.00    +0.020 C 
ATOM      8  C   LIG    1       -4.206  -2.502  -4.075  0.00  0.00    +0.020 C 
ATOM      9  C   LIG    1       -2.704  -2.872  -4.162  0.00  0.00    +0.010 C 
ATOM     10  C   LIG    1       -2.003  -1.537  -4.493  0.00  0.00    +0.020 C 
ATOM     11  O   LIG    1       -1.802  -1.184  -1.548  0.00  0.00    -0.510 OA
ENDROOT
BRANCH   1  15
ATOM     12  O   LIG    1       -1.486   0.403   2.596  0.00  0.00    -0.440 OA
ATOM     13  C   LIG    1       -1.330   0.885   1.500  0.00  0.00    +0.490 C 
ATOM     14  C   LIG    1       -0.563   0.258   0.353  0.00  0.00    +0.070 C 
ATOM     15  C   LIG    1       -1.091   0.974  -0.910  0.00  0.00    -0.010 C 
ATOM     16  C   LIG    1       -2.126   1.968  -0.341  0.00  0.00    +0.280 C 
ATOM     17  O   LIG    1       -1.810   2.072   1.080  0.00  0.00    -0.350 OA
ENDBRANCH   1  15
BRANCH   5  18
ATOM     18  N   LIG    1       -3.133  -0.205  -6.460  0.00  0.00    -0.710 N 
ATOM     19  H   LIG    1       -2.239  -0.255  -6.835  0.00  0.00    +0.400 HD
ATOM     20  C   LIG    1       -4.170  -0.761  -7.117  0.00  0.00    +0.590 C 
ATOM     21  O   LIG    1       -5.290  -0.699  -6.648  0.00  0.00    -0.520 OA
BRANCH  20  22
ATOM     22  C   LIG    1       -3.947  -1.446  -8.402  0.00  0.00    -0.240 A 
ATOM     23  C   LIG    1       -2.761  -1.603  -9.058  0.00  0.00    +0.230 A 
ATOM     24  O   LIG    1       -2.990  -2.282 -10.187  0.00  0.00    -0.170 OA
ATOM     25  C   LIG    1       -4.291  -2.584 -10.308  0.00  0.00    +0.180 A 
ATOM     26  C   LIG    1       -4.955  -2.109  -9.243  0.00  0.00    -0.010 A 
ENDBRANCH  20  22
ENDBRANCH   5  18
TORSDOF 3
