REMARK  Name = ZINCrH000004qZFx.0
REMARK                            x       y       z     vdW  Elec       q    Type
REMARK                         _______ _______ _______ _____ _____    ______ ____
ROOT
ATOM      1  N   LIG    1        5.949   3.079   0.273  0.00  0.00    -0.520 NA
ATOM      2  C   LIG    1        5.905   2.307   1.522  0.00  0.00    +0.210 C 
ENDROOT
BRANCH   1   3
ATOM      3  C   LIG    1        7.229   3.788   0.138  0.00  0.00    +0.360 C 
BRANCH   3   7
ATOM      4  C   LIG    1        9.787   1.446  -0.802  0.00  0.00    +0.220 A 
ATOM      5  N   LIG    1        9.880   1.470   0.502  0.00  0.00    -0.370 NA
ATOM      6  O   LIG    1        9.063   2.238   0.964  0.00  0.00    +0.080 OA
ATOM      7  C   LIG    1        8.344   2.787  -0.020  0.00  0.00    +0.190 A 
ATOM      8  N   LIG    1        8.795   2.296  -1.147  0.00  0.00    -0.450 NA
BRANCH   4  13
ATOM      9  C   LIG    1       13.004  -1.696  -4.401  0.00  0.00    +0.100 C 
ATOM     10  C   LIG    1       12.162  -0.874  -3.460  0.00  0.00    -0.060 A 
ATOM     11  C   LIG    1       12.378  -0.953  -2.095  0.00  0.00    +0.010 A 
ATOM     12  C   LIG    1       11.610  -0.203  -1.228  0.00  0.00    +0.050 A 
ATOM     13  C   LIG    1       10.617   0.636  -1.730  0.00  0.00    -0.030 A 
ATOM     14  C   LIG    1       10.401   0.708  -3.104  0.00  0.00    +0.070 A 
ATOM     15  C   LIG    1       11.178  -0.043  -3.962  0.00  0.00    +0.010 A 
ENDBRANCH   4  13
ENDBRANCH   3   7
ENDBRANCH   1   3
BRANCH   1  16
ATOM     16  C   LIG    1        4.819   4.013   0.191  0.00  0.00    +0.240 C 
BRANCH  16  17
ATOM     17  C   LIG    1        3.532   3.236   0.086  0.00  0.00    +0.510 C 
ATOM     18  N   LIG    1        2.356   3.889  -0.001  0.00  0.00    -0.670 N 
ATOM     19  H   LIG    1        2.341   4.857  -0.061  0.00  0.00    +0.410 HD
ATOM     20  O   LIG    1        3.554   2.023   0.080  0.00  0.00    -0.500 OA
BRANCH  18  21
ATOM     21  C   LIG    1        1.155   3.170  -0.003  0.00  0.00    +0.150 A 
ATOM     22  C   LIG    1        1.091   1.924  -0.614  0.00  0.00    +0.020 A 
ATOM     23  C   LIG    1       -0.095   1.217  -0.615  0.00  0.00    +0.030 A 
ATOM     24  C   LIG    1       -1.220   1.751  -0.013  0.00  0.00    -0.010 A 
ATOM     25  C   LIG    1       -1.158   2.988   0.601  0.00  0.00    -0.070 A 
ATOM     26  C   LIG    1       -2.385   3.563   1.261  0.00  0.00    +0.090 C 
ATOM     27  C   LIG    1        0.025   3.700   0.605  0.00  0.00    -0.110 A 
ATOM     28  C   LIG    1        0.090   5.051   1.270  0.00  0.00    +0.090 C 
ENDBRANCH  18  21
ENDBRANCH  16  17
ENDBRANCH   1  16
TORSDOF 6
