REMARK  Name = ZINCnE000001QP1x.1
REMARK                            x       y       z     vdW  Elec       q    Type
REMARK                         _______ _______ _______ _____ _____    ______ ____
ROOT
ATOM      1  C   LIG    1       -0.018   1.503   0.010  0.00  0.00    +0.140 C 
ATOM      2  C   LIG    1        0.002  -0.004   0.002  0.00  0.00    +0.190 A 
ATOM      3  C   LIG    1        0.023  -0.743   1.132  0.00  0.00    -0.330 A 
ATOM      4  S   LIG    1        0.041  -2.442   0.669  0.00  0.00    +0.050 S 
ATOM      5  C   LIG    1        0.019  -2.003  -0.983  0.00  0.00    +0.350 A 
ATOM      6  N   LIG    1       -0.004  -0.711  -1.106  0.00  0.00    -0.560 NA
ENDROOT
BRANCH   3   7
ATOM      7  C   LIG    1        0.029  -0.218   2.512  0.00  0.00    +0.260 A 
ATOM      8  C   LIG    1        0.051  -1.106   3.590  0.00  0.00    -0.060 A 
ATOM      9  C   LIG    1        0.056  -0.599   4.877  0.00  0.00    +0.070 A 
ATOM     10  C   LIG    1        0.039   0.779   5.047  0.00  0.00    -0.100 A 
ATOM     11  C   LIG    1        0.018   1.601   3.936  0.00  0.00    +0.260 A 
ATOM     12  N   LIG    1        0.018   1.095   2.719  0.00  0.00    -0.490 NA
ENDBRANCH   3   7
BRANCH   5  13
ATOM     13  N   LIG    1        0.021  -2.901  -2.042  0.00  0.00    -0.680 NA
ATOM     14  C   LIG    1        0.002  -2.446  -3.310  0.00  0.00    +0.460 C 
ATOM     15  O   LIG    1       -0.015  -1.252  -3.527  0.00  0.00    -0.540 OA
BRANCH  14  16
ATOM     16  C   LIG    1        0.004  -3.420  -4.460  0.00  0.00    +0.170 C 
ATOM     17  C   LIG    1        1.322  -4.197  -4.468  0.00  0.00    +0.030 C 
BRANCH  16  18
ATOM     18  O   LIG    1       -0.135  -2.706  -5.690  0.00  0.00    -0.350 OA
BRANCH  18  19
ATOM     19  C   LIG    1       -0.800  -3.442  -6.718  0.00  0.00    +0.200 C 
BRANCH  19  20
ATOM     20  C   LIG    1       -0.892  -2.585  -7.982  0.00  0.00    +0.460 C 
ATOM     21  F   LIG    1       -1.613  -1.418  -7.703  0.00  0.00    -0.170 F 
ATOM     22  F   LIG    1       -1.543  -3.306  -8.988  0.00  0.00    -0.180 F 
ATOM     23  F   LIG    1        0.396  -2.246  -8.410  0.00  0.00    -0.180 F 
ENDBRANCH  19  20
ENDBRANCH  18  19
ENDBRANCH  16  18
ENDBRANCH  14  16
ENDBRANCH   5  13
TORSDOF 6
