REMARK  Name = ZINCrD00000F5Lmm.0
REMARK                            x       y       z     vdW  Elec       q    Type
REMARK                         _______ _______ _______ _____ _____    ______ ____
ROOT
ATOM      1  N   LIG    1       -3.874   6.598  -0.005  0.00  0.00    -0.590 N 
ATOM      2  C   LIG    1       -2.530   6.577   0.096  0.00  0.00    +0.590 C 
ATOM      3  O   LIG    1       -1.911   7.620   0.191  0.00  0.00    -0.510 OA
ENDROOT
BRANCH   2   4
ATOM      4  C   LIG    1       -1.812   5.293   0.092  0.00  0.00    +0.040 A 
ATOM      5  C   LIG    1       -1.651   4.484  -0.987  0.00  0.00    -0.120 A 
ATOM      6  C   LIG    1       -0.905   3.355  -0.572  0.00  0.00    -0.090 A 
ATOM      7  C   LIG    1       -0.443   2.211  -1.235  0.00  0.00    +0.070 A 
ATOM      8  C   LIG    1        0.271   1.270  -0.551  0.00  0.00    +0.000 A 
ATOM      9  C   LIG    1        0.545   1.436   0.801  0.00  0.00    +0.060 A 
ATOM     10  C   LIG    1        0.097   2.550   1.477  0.00  0.00    -0.050 A 
ATOM     11 CL   LIG    1        0.441   2.739   3.168  0.00  0.00    -0.070 Cl
ATOM     12  C   LIG    1       -0.629   3.526   0.798  0.00  0.00    +0.120 A 
ATOM     13  C   LIG    1       -2.173   4.743  -2.377  0.00  0.00    +0.130 C 
ATOM     14  N   LIG    1       -1.193   4.719   1.185  0.00  0.00    -0.560 N 
ATOM     15  H   LIG    1       -1.161   5.095   2.079  0.00  0.00    +0.420 HD
ENDBRANCH   2   4
BRANCH   1  16
ATOM     16  C   LIG    1       -4.580   7.875  -0.125  0.00  0.00    +0.250 C 
ATOM     17  C   LIG    1       -5.547   8.036   1.050  0.00  0.00    +0.020 C 
ATOM     18  C   LIG    1       -6.258   9.389   0.939  0.00  0.00    +0.280 C 
ATOM     19  N   LIG    1       -6.893   9.482  -0.382  0.00  0.00    -0.610 N 
ATOM     20  C   LIG    1       -6.072   9.255  -1.579  0.00  0.00    +0.290 C 
ATOM     21  C   LIG    1       -8.204   9.773  -0.495  0.00  0.00    +0.550 C 
ATOM     22  O   LIG    1       -8.896   9.858   0.502  0.00  0.00    -0.540 OA
ATOM     23  C   LIG    1       -5.363   7.904  -1.440  0.00  0.00    +0.020 C 
BRANCH  21  24
ATOM     24  C   LIG    1       -8.799   9.986  -1.823  0.00  0.00    -0.090 C 
ATOM     25  C   LIG    1      -10.069  10.368  -1.930  0.00  0.00    +0.140 C 
ENDBRANCH  21  24
ENDBRANCH   1  16
BRANCH   1  26
ATOM     26  C   LIG    1       -4.628   5.342   0.005  0.00  0.00    +0.430 C 
BRANCH  26  28
ATOM     27  C   LIG    1       -5.428   4.813   2.472  0.00  0.00    +0.050 C 
ATOM     28  C   LIG    1       -5.073   5.048   1.377  0.00  0.00    -0.220 C 
ENDBRANCH  26  28
ENDBRANCH   1  26
TORSDOF 5
