REMARK  Name = ZINCkj000005i8HF.0
REMARK                            x       y       z     vdW  Elec       q    Type
REMARK                         _______ _______ _______ _____ _____    ______ ____
ROOT
ATOM      1  N   LIG    1       -1.120   1.020   3.625  0.00  0.00    -0.630 N 
ATOM      2  H   LIG    1       -1.236   1.976   3.742  0.00  0.00    +0.420 HD
ATOM      3  C   LIG    1       -1.080   0.493   2.385  0.00  0.00    +0.510 C 
ATOM      4  O   LIG    1       -0.855  -0.690   2.236  0.00  0.00    -0.500 OA
ENDROOT
BRANCH   3   5
ATOM      5  C   LIG    1       -1.316   1.373   1.185  0.00  0.00    +0.090 C 
ATOM      6  C   LIG    1       -2.787   1.871   1.136  0.00  0.00    +0.110 C 
ATOM      7  C   LIG    1       -3.019   2.125  -0.368  0.00  0.00    +0.280 C 
ATOM      8  N   LIG    1       -2.033   1.313  -1.105  0.00  0.00    -0.510 N 
ATOM      9  H   LIG    1       -2.512   0.672  -1.719  0.00  0.00    +0.440 HD
ATOM     10  H   LIG    1       -1.434   1.918  -1.648  0.00  0.00    +0.440 HD
ATOM     11  F   LIG    1       -0.421   2.448   1.171  0.00  0.00    -0.160 F 
ATOM     12  C   LIG    1       -1.222   0.556  -0.128  0.00  0.00    +0.320 C 
ENDBRANCH   3   5
BRANCH   1  18
ATOM     13  C   LIG    1       -1.692   0.479   5.915  0.00  0.00    +0.120 A 
ATOM     14  C   LIG    1       -1.569  -0.352   7.016  0.00  0.00    -0.050 A 
ATOM     15  C   LIG    1       -0.745  -1.461   6.958  0.00  0.00    +0.050 A 
ATOM     16  C   LIG    1       -0.048  -1.748   5.799  0.00  0.00    -0.010 A 
ATOM     17  C   LIG    1       -0.170  -0.928   4.694  0.00  0.00    +0.070 A 
ATOM     18  C   LIG    1       -0.994   0.187   4.745  0.00  0.00    +0.090 A 
BRANCH  13  19
ATOM     19  O   LIG    1       -2.497   1.573   5.973  0.00  0.00    -0.310 OA
BRANCH  19  20
ATOM     20  C   LIG    1       -3.182   1.810   7.205  0.00  0.00    +0.220 C 
BRANCH  20  21
ATOM     21  C   LIG    1       -4.033   3.076   7.080  0.00  0.00    +0.200 C 
BRANCH  21  23
ATOM     22  C   LIG    1       -5.917   3.993   5.916  0.00  0.00    +0.210 C 
ATOM     23  O   LIG    1       -5.061   2.865   6.110  0.00  0.00    -0.390 OA
ENDBRANCH  21  23
ENDBRANCH  20  21
ENDBRANCH  19  20
ENDBRANCH  13  19
ENDBRANCH   1  18
TORSDOF 6
