REMARK  Name = ZINCpe000000YYQ9.0
REMARK                            x       y       z     vdW  Elec       q    Type
REMARK                         _______ _______ _______ _____ _____    ______ ____
ROOT
ATOM      1  C   LIG    1        1.281  -0.719  -0.014  0.00  0.00    +0.270 C 
ENDROOT
BRANCH   1   4
ATOM      2  O   LIG    1        1.026   1.964   0.003  0.00  0.00    -0.520 OA
ATOM      3  C   LIG    1       -0.016   1.344   0.009  0.00  0.00    +0.500 C 
ATOM      4  N   LIG    1        0.002  -0.004   0.002  0.00  0.00    -0.720 N 
ATOM      5  H   LIG    1       -0.831  -0.500   0.007  0.00  0.00    +0.410 HD
BRANCH   3   6
ATOM      6  C   LIG    1       -1.331   2.079   0.020  0.00  0.00    +0.340 C 
BRANCH   6   7
ATOM      7  N   LIG    1       -1.083   3.523   0.026  0.00  0.00    -0.480 N 
ATOM      8  C   LIG    1       -0.975   4.191  -1.151  0.00  0.00    +0.350 A 
ATOM      9  C   LIG    1       -0.746   5.526  -1.170  0.00  0.00    -0.200 A 
ATOM     10  C   LIG    1       -0.619   6.231   0.035  0.00  0.00    +0.150 A 
ATOM     11  C   LIG    1       -0.728   5.558   1.217  0.00  0.00    -0.060 A 
ATOM     12 BR   LIG    1       -0.599   6.437  -2.820  0.00  0.00    -0.020 Br
ATOM     13  C   LIG    1       -0.971   4.174   1.200  0.00  0.00    +0.520 A 
ATOM     14  O   LIG    1       -1.075   3.560   2.250  0.00  0.00    -0.540 OA
ENDBRANCH   6   7
ENDBRANCH   3   6
ENDBRANCH   1   4
BRANCH   1  15
ATOM     15  C   LIG    1        1.021  -2.227  -0.020  0.00  0.00    +0.260 C 
BRANCH  15  16
ATOM     16  N   LIG    1        2.300  -2.942  -0.036  0.00  0.00    -1.120 NA
ATOM     17  H   LIG    1        3.117  -2.470  -0.258  0.00  0.00    +0.420 HD
BRANCH  16  18
ATOM     18  S   LIG    1        2.350  -4.557   0.326  0.00  0.00    +2.610 S 
ATOM     19  O   LIG    1        1.649  -4.662   1.558  0.00  0.00    -0.940 OA
ATOM     20  O   LIG    1        3.727  -4.894   0.237  0.00  0.00    -0.940 OA
BRANCH  18  21
ATOM     21  C   LIG    1        1.412  -5.350  -1.009  0.00  0.00    -0.300 C 
BRANCH  21  22
ATOM     22  C   LIG    1        1.386  -6.840  -0.789  0.00  0.00    -0.100 A 
ATOM     23  C   LIG    1        2.377  -7.637  -1.332  0.00  0.00    +0.030 A 
ATOM     24  C   LIG    1        2.356  -9.004  -1.125  0.00  0.00    +0.010 A 
ATOM     25  C   LIG    1        1.338  -9.575  -0.385  0.00  0.00    +0.020 A 
ATOM     26  C   LIG    1        0.344  -8.779   0.154  0.00  0.00    +0.010 A 
ATOM     27  C   LIG    1        0.368  -7.412  -0.048  0.00  0.00    +0.030 A 
ENDBRANCH  21  22
ENDBRANCH  18  21
ENDBRANCH  16  18
ENDBRANCH  15  16
ENDBRANCH   1  15
TORSDOF 8
