REMARK  Name = ZINCqH0000006REH.0
REMARK                            x       y       z     vdW  Elec       q    Type
REMARK                         _______ _______ _______ _____ _____    ______ ____
ROOT
ATOM      1  N   LIG    1        0.002  -0.004   0.002  0.00  0.00    -0.680 N 
ATOM      2  H   LIG    1       -0.827  -0.501   0.085  0.00  0.00    +0.410 HD
ATOM      3  C   LIG    1        1.173  -0.661  -0.114  0.00  0.00    +0.710 C 
ATOM      4  N   LIG    1        1.183  -2.005  -0.223  0.00  0.00    -0.730 N 
ATOM      5  H   LIG    1        0.348  -2.498  -0.218  0.00  0.00    +0.400 HD
ATOM      6  O   LIG    1        2.220  -0.043  -0.121  0.00  0.00    -0.570 OA
ENDROOT
BRANCH   1   9
ATOM      7  C   LIG    1       -0.978   3.462   0.759  0.00  0.00    +0.120 A 
ATOM      8  C   LIG    1       -0.965   2.077   0.756  0.00  0.00    -0.070 A 
ATOM      9  C   LIG    1       -0.018   1.396   0.003  0.00  0.00    +0.200 A 
ATOM     10  C   LIG    1        0.907   2.104  -0.753  0.00  0.00    +0.020 A 
ATOM     11  C   LIG    1        0.887   3.486  -0.753  0.00  0.00    +0.060 A 
ATOM     12  C   LIG    1       -0.052   4.167   0.000  0.00  0.00    +0.050 A 
ATOM     13  F   LIG    1       -0.068   5.518  -0.002  0.00  0.00    -0.130 F 
BRANCH   7  15
ATOM     14  C   LIG    1       -2.822   3.343   2.256  0.00  0.00    +0.260 C 
ATOM     15  O   LIG    1       -1.901   4.132   1.500  0.00  0.00    -0.310 OA
ENDBRANCH   7  15
ENDBRANCH   1   9
BRANCH   4  16
ATOM     16  CA  LIG    1        2.456  -2.719  -0.350  0.00  0.00    +0.330 C 
BRANCH  16  17
ATOM     17  C   LIG    1        2.226  -4.036  -1.047  0.00  0.00    -0.060 A 
ATOM     18  C   LIG    1        1.106  -4.789  -0.748  0.00  0.00    +0.050 A 
ATOM     19  C   LIG    1        0.893  -5.995  -1.391  0.00  0.00    +0.070 A 
ATOM     20  C   LIG    1        1.804  -6.450  -2.325  0.00  0.00    -0.180 A 
ATOM     21  C   LIG    1        2.926  -5.699  -2.620  0.00  0.00    +0.070 A 
ATOM     22  C   LIG    1        3.137  -4.492  -1.980  0.00  0.00    +0.030 A 
BRANCH  20  23
ATOM     23  C   LIG    1        1.573  -7.766  -3.023  0.00  0.00    +0.510 C 
ATOM     24  F   LIG    1        2.138  -7.721  -4.302  0.00  0.00    -0.180 F 
ATOM     25  F   LIG    1        0.199  -8.003  -3.128  0.00  0.00    -0.180 F 
ATOM     26  F   LIG    1        2.169  -8.796  -2.286  0.00  0.00    -0.180 F 
ENDBRANCH  20  23
ENDBRANCH  16  17
BRANCH  16  27
ATOM     27  C   LIG    1        3.038  -2.974   1.042  0.00  0.00    +0.190 C 
BRANCH  27  28
ATOM     28  O   LIG    1        2.179  -3.858   1.764  0.00  0.00    -0.570 OA
ATOM     29  H   LIG    1        2.486  -4.064   2.657  0.00  0.00    +0.380 HD
ENDBRANCH  27  28
ENDBRANCH  16  27
ENDBRANCH   4  16
TORSDOF 7
