REMARK  Name = ZINCpk000000nQdP.0
REMARK                            x       y       z     vdW  Elec       q    Type
REMARK                         _______ _______ _______ _____ _____    ______ ____
ROOT
ATOM      1  C   LIG    1        1.266  -0.359  -0.175  0.00  0.00    +0.240 A 
ATOM      2  N   LIG    1        0.009  -0.003  -0.114  0.00  0.00    -0.440 NA
ATOM      3  C   LIG    1       -0.022   1.325   0.100  0.00  0.00    +0.160 A 
ATOM      4  N   LIG    1        1.220   1.754   0.165  0.00  0.00    -0.270 NA
ATOM      5  N   LIG    1        2.013   0.751   0.001  0.00  0.00    -0.250 N 
ENDROOT
BRANCH   5   6
ATOM      6  C   LIG    1        3.414   0.804   0.005  0.00  0.00    +0.080 A 
ATOM      7  C   LIG    1        4.141  -0.092   0.776  0.00  0.00    +0.070 A 
ATOM      8  C   LIG    1        5.522  -0.040   0.775  0.00  0.00    +0.040 A 
ATOM      9  C   LIG    1        6.180   0.909   0.015  0.00  0.00    +0.080 A 
ATOM     10  C   LIG    1        5.460   1.808  -0.750  0.00  0.00    +0.010 A 
ATOM     11  C   LIG    1        4.077   1.758  -0.758  0.00  0.00    +0.130 A 
ATOM     12  F   LIG    1        3.373   2.636  -1.506  0.00  0.00    -0.120 F 
ENDBRANCH   5   6
BRANCH   3  13
ATOM     13  C   LIG    1       -1.237   2.157   0.232  0.00  0.00    +0.620 C 
ATOM     14  N   LIG    1       -1.125   3.483   0.445  0.00  0.00    -0.700 N 
ATOM     15  H   LIG    1       -0.248   3.892   0.512  0.00  0.00    +0.410 HD
ATOM     16  O   LIG    1       -2.336   1.645   0.148  0.00  0.00    -0.490 OA
BRANCH  14  17
ATOM     17  C   LIG    1       -2.329   4.307   0.576  0.00  0.00    +0.250 C 
ATOM     18  C   LIG    1       -2.025   5.774   0.192  0.00  0.00    +0.060 C 
ATOM     19  C   LIG    1       -2.903   6.551   1.198  0.00  0.00    +0.270 C 
ATOM     20  N   LIG    1       -3.073   5.652   2.345  0.00  0.00    -0.630 N 
ATOM     21  C   LIG    1       -3.523   6.082   3.672  0.00  0.00    +0.310 C 
ATOM     22  C   LIG    1       -2.763   4.385   2.023  0.00  0.00    +0.500 C 
ATOM     23  O   LIG    1       -2.824   3.441   2.782  0.00  0.00    -0.510 OA
ENDBRANCH  14  17
ENDBRANCH   3  13
BRANCH   1  25
ATOM     24  C   LIG    1        1.407  -2.639   0.789  0.00  0.00    +0.060 C 
ATOM     25  C   LIG    1        1.787  -1.755  -0.400  0.00  0.00    +0.080 C 
ATOM     26  C   LIG    1        1.172  -2.328  -1.679  0.00  0.00    +0.060 C 
ENDBRANCH   1  25
TORSDOF 4
