REMARK  Name = ZINCqH0000004UZ5.0
REMARK                            x       y       z     vdW  Elec       q    Type
REMARK                         _______ _______ _______ _____ _____    ______ ____
ROOT
ATOM      1  C   LIG    1       -2.331   3.794  -1.545  0.00  0.00    +0.600 C 
ATOM      2  N   LIG    1       -1.012   3.794  -1.821  0.00  0.00    -0.600 N 
ATOM      3  O   LIG    1       -2.970   2.763  -1.631  0.00  0.00    -0.500 OA
ENDROOT
BRANCH   1   9
ATOM      4  N   LIG    1       -2.764   5.763  -0.002  0.00  0.00    -0.270 N 
ATOM      5  N   LIG    1       -3.530   6.794   0.019  0.00  0.00    -0.270 NA
ATOM      6  C   LIG    1       -4.291   6.833  -1.046  0.00  0.00    +0.030 A 
ATOM      7  C   LIG    1       -3.982   5.721  -1.833  0.00  0.00    -0.020 A 
ATOM      8  C   LIG    1       -5.313   7.892  -1.367  0.00  0.00    +0.150 C 
ATOM      9  C   LIG    1       -2.998   5.041  -1.138  0.00  0.00    -0.030 A 
BRANCH   4  11
ATOM     10  C   LIG    1       -1.401   6.673   1.813  0.00  0.00    +0.070 C 
ATOM     11  C   LIG    1       -1.789   5.415   1.034  0.00  0.00    +0.300 C 
ENDBRANCH   4  11
ENDBRANCH   1   9
BRANCH   2  12
ATOM     12  C   LIG    1       -0.373   2.585  -2.347  0.00  0.00    +0.330 C 
BRANCH  12  13
ATOM     13  C   LIG    1       -1.190   2.043  -3.492  0.00  0.00    -0.110 A 
ATOM     14  C   LIG    1       -2.068   0.996  -3.280  0.00  0.00    +0.060 A 
ATOM     15  C   LIG    1       -2.821   0.502  -4.329  0.00  0.00    -0.010 A 
ATOM     16  C   LIG    1       -2.689   1.048  -5.591  0.00  0.00    +0.010 A 
ATOM     17  C   LIG    1       -1.807   2.091  -5.805  0.00  0.00    -0.010 A 
ATOM     18  C   LIG    1       -1.058   2.589  -4.755  0.00  0.00    -0.070 A 
ATOM     19  C   LIG    1       -0.097   3.726  -4.987  0.00  0.00    +0.080 C 
ENDBRANCH  12  13
ENDBRANCH   2  12
BRANCH   2  20
ATOM     20  C   LIG    1       -0.216   5.003  -1.596  0.00  0.00    +0.330 C 
BRANCH  20  21
ATOM     21  C   LIG    1        1.238   4.704  -1.857  0.00  0.00    +0.110 A 
ATOM     22  C   LIG    1        1.794   5.031  -3.079  0.00  0.00    -0.020 A 
ATOM     23  C   LIG    1        3.132   4.751  -3.309  0.00  0.00    +0.070 A 
ATOM     24  C   LIG    1        3.864   4.151  -2.296  0.00  0.00    -0.020 A 
ATOM     25  C   LIG    1        3.239   3.848  -1.101  0.00  0.00    +0.260 A 
ATOM     26  N   LIG    1        1.965   4.133  -0.916  0.00  0.00    -0.470 NA
ENDBRANCH  20  21
ENDBRANCH   2  20
TORSDOF 6
