REMARK  Name = ZINCqH0000002nsg.0
REMARK                            x       y       z     vdW  Elec       q    Type
REMARK                         _______ _______ _______ _____ _____    ______ ____
ROOT
ATOM      1  C   LIG    1       -0.312  -3.671  -0.821  0.00  0.00    +0.060 C 
ENDROOT
BRANCH   1   3
ATOM      2  N   LIG    1       -0.605  -2.548   1.364  0.00  0.00    -0.600 N 
ATOM      3  C   LIG    1       -1.131  -3.325   0.396  0.00  0.00    +0.520 C 
ATOM      4  O   LIG    1       -2.264  -3.745   0.504  0.00  0.00    -0.540 OA
BRANCH   2   5
ATOM      5  C   LIG    1        0.763  -2.041   1.233  0.00  0.00    +0.220 C 
ATOM      6  C   LIG    1        1.608  -2.546   2.404  0.00  0.00    +0.020 C 
BRANCH   5   7
ATOM      7  C   LIG    1        0.742  -0.511   1.242  0.00  0.00    +0.010 C 
BRANCH   7   8
ATOM      8  C   LIG    1        0.002  -0.004   0.002  0.00  0.00    +0.000 C 
ATOM      9  C   LIG    1       -0.019   1.526   0.010  0.00  0.00    +0.000 C 
ENDBRANCH   7   8
ENDBRANCH   5   7
ENDBRANCH   2   5
BRANCH   2  10
ATOM     10  C   LIG    1       -1.401  -2.212   2.546  0.00  0.00    +0.270 C 
BRANCH  10  11
ATOM     11  C   LIG    1       -2.179  -0.920   2.287  0.00  0.00    -0.010 C 
BRANCH  11  12
ATOM     12  C   LIG    1       -3.011  -0.568   3.522  0.00  0.00    +0.000 C 
BRANCH  12  14
ATOM     13  C   LIG    1       -4.620   1.075   4.498  0.00  0.00    +0.000 C 
ATOM     14  C   LIG    1       -3.788   0.724   3.263  0.00  0.00    +0.000 C 
ENDBRANCH  12  14
ENDBRANCH  11  12
ENDBRANCH  10  11
ENDBRANCH   2  10
ENDBRANCH   1   3
BRANCH   1  15
ATOM     15  C   LIG    1       -1.137  -4.557  -1.756  0.00  0.00    +0.110 C 
BRANCH  15  16
ATOM     16  C   LIG    1       -0.318  -4.904  -2.973  0.00  0.00    -0.020 A 
ATOM     17  C   LIG    1       -0.362  -4.090  -4.090  0.00  0.00    -0.010 A 
ATOM     18  C   LIG    1        0.393  -4.405  -5.204  0.00  0.00    +0.120 A 
ATOM     19  C   LIG    1        1.184  -5.539  -5.205  0.00  0.00    -0.680 A 
ATOM     20  C   LIG    1        1.224  -6.355  -4.090  0.00  0.00    +0.120 A 
ATOM     21  C   LIG    1        0.473  -6.037  -2.973  0.00  0.00    -0.010 A 
BRANCH  19  22
ATOM     22  S   LIG    1        2.142  -5.944  -6.627  0.00  0.00    +2.700 S 
ATOM     23  O   LIG    1        3.210  -6.764  -6.172  0.00  0.00    -0.960 OA
ATOM     24  O   LIG    1        2.343  -4.728  -7.335  0.00  0.00    -0.950 OA
BRANCH  22  25
ATOM     25  N   LIG    1        1.200  -6.899  -7.597  0.00  0.00    -1.120 NA
ATOM     26  H   LIG    1        1.452  -7.821  -7.762  0.00  0.00    +0.420 HD
ATOM     27  C   LIG    1       -0.016  -6.352  -8.205  0.00  0.00    +0.290 C 
ENDBRANCH  22  25
ENDBRANCH  19  22
ENDBRANCH  15  16
ENDBRANCH   1  15
TORSDOF 12
