REMARK  Name = ZINCpk00000ebcrs.0
REMARK                            x       y       z     vdW  Elec       q    Type
REMARK                         _______ _______ _______ _____ _____    ______ ____
ROOT
ATOM      1  N   LIG    1        0.810  -1.954   1.204  0.00  0.00    -0.720 N 
ATOM      2  H   LIG    1        1.408  -2.552   0.729  0.00  0.00    +0.400 HD
ATOM      3  C   LIG    1       -0.142  -2.457   2.014  0.00  0.00    +0.560 C 
ATOM      4  O   LIG    1       -0.891  -1.707   2.610  0.00  0.00    -0.520 OA
ENDROOT
BRANCH   1  12
ATOM      5  C   LIG    1        4.957   1.646   0.361  0.00  0.00    +0.200 C 
ATOM      6  C   LIG    1        3.521   2.041   0.127  0.00  0.00    +0.180 A 
ATOM      7  N   LIG    1        3.088   3.222  -0.233  0.00  0.00    -0.290 NA
ATOM      8  N   LIG    1        1.804   3.200  -0.340  0.00  0.00    -0.290 NA
ATOM      9  C   LIG    1        1.365   2.012  -0.055  0.00  0.00    +0.180 A 
ATOM     10  C   LIG    1       -0.058   1.513  -0.046  0.00  0.00    +0.180 C 
ATOM     11  C   LIG    1       -0.026  -0.021  -0.042  0.00  0.00    +0.030 C 
ATOM     12  C   LIG    1        0.943  -0.504   1.042  0.00  0.00    +0.250 C 
ATOM     13  C   LIG    1        2.382  -0.166   0.632  0.00  0.00    +0.300 C 
ATOM     14  N   LIG    1        2.442   1.244   0.250  0.00  0.00    -0.470 N 
ENDBRANCH   1  12
BRANCH   3  15
ATOM     15  C   LIG    1       -0.277  -3.920   2.179  0.00  0.00    -0.110 A 
ATOM     16  C   LIG    1        0.582  -4.783   1.496  0.00  0.00    +0.020 A 
ATOM     17  C   LIG    1        0.455  -6.148   1.651  0.00  0.00    +0.040 A 
ATOM     18  C   LIG    1       -0.521  -6.666   2.481  0.00  0.00    +0.000 A 
ATOM     19  C   LIG    1       -1.381  -5.815   3.166  0.00  0.00    +0.160 A 
ATOM     20  C   LIG    1       -1.258  -4.442   3.021  0.00  0.00    +0.070 A 
BRANCH  19  21
ATOM     21  N   LIG    1       -2.368  -6.345   4.005  0.00  0.00    -0.560 N 
ATOM     22  C   LIG    1       -2.662  -7.777   4.137  0.00  0.00    +0.260 C 
ATOM     23  C   LIG    1       -3.472  -7.910   5.448  0.00  0.00    +0.060 C 
ATOM     24  C   LIG    1       -4.108  -6.506   5.567  0.00  0.00    +0.070 C 
ATOM     25  C   LIG    1       -3.172  -5.607   4.790  0.00  0.00    +0.510 C 
ATOM     26  O   LIG    1       -3.149  -4.396   4.865  0.00  0.00    -0.500 OA
ENDBRANCH  19  21
ENDBRANCH   3  15
TORSDOF 3
