REMARK  Name = ZINCrH000004tiX7.0
REMARK                            x       y       z     vdW  Elec       q    Type
REMARK                         _______ _______ _______ _____ _____    ______ ____
ROOT
ATOM      1  C   LIG    1        3.609  -1.266   0.298  0.00  0.00    +0.240 C 
ATOM      2  C   LIG    1        3.407  -2.789   0.437  0.00  0.00    +0.060 C 
ATOM      3  C   LIG    1        1.931  -2.983  -0.002  0.00  0.00    +0.030 C 
ATOM      4  C   LIG    1        1.270  -1.698   0.554  0.00  0.00    +0.250 C 
ATOM      5  N   LIG    1        2.280  -0.641   0.365  0.00  0.00    -0.610 N 
ATOM      6  C   LIG    1        2.026   0.679   0.264  0.00  0.00    +0.570 C 
ATOM      7  O   LIG    1        2.925   1.451  -0.009  0.00  0.00    -0.510 OA
ENDROOT
BRANCH   6   8
ATOM      8  C   LIG    1        0.658   1.186   0.484  0.00  0.00    -0.130 A 
ATOM      9  C   LIG    1       -0.326   0.342   1.004  0.00  0.00    +0.050 A 
ATOM     10  C   LIG    1       -1.606   0.815   1.205  0.00  0.00    +0.020 A 
ATOM     11  C   LIG    1       -1.913   2.133   0.900  0.00  0.00    +0.090 A 
ATOM     12  O   LIG    1       -3.175   2.607   1.102  0.00  0.00    -0.320 OA
ATOM     13  C   LIG    1       -3.318   3.582   2.136  0.00  0.00    +0.230 C 
ATOM     14  C   LIG    1       -3.003   4.974   1.613  0.00  0.00    -0.010 C 
ATOM     15  C   LIG    1       -1.549   5.118   1.191  0.00  0.00    +0.230 C 
ATOM     16  O   LIG    1       -1.258   4.270   0.079  0.00  0.00    -0.320 OA
ATOM     17  C   LIG    1       -0.938   2.978   0.381  0.00  0.00    +0.060 A 
ATOM     18  C   LIG    1        0.344   2.513   0.171  0.00  0.00    +0.100 A 
ENDBRANCH   6   8
BRANCH   1  19
ATOM     19  C   LIG    1        4.483  -0.753   1.444  0.00  0.00    +0.170 C 
BRANCH  19  20
ATOM     20  C   LIG    1        5.778  -1.523   1.471  0.00  0.00    -0.080 A 
ATOM     21  C   LIG    1        6.653  -1.441   0.404  0.00  0.00    +0.020 A 
ATOM     22  C   LIG    1        7.843  -2.143   0.431  0.00  0.00    +0.010 A 
ATOM     23  C   LIG    1        8.155  -2.935   1.520  0.00  0.00    +0.010 A 
ATOM     24  C   LIG    1        7.277  -3.022   2.585  0.00  0.00    +0.010 A 
ATOM     25  C   LIG    1        6.089  -2.316   2.560  0.00  0.00    +0.030 A 
ENDBRANCH  19  20
BRANCH  19  27
ATOM     26  N   LIG    1        4.984   1.781   1.089  0.00  0.00    -0.390 NA
ATOM     27  C   LIG    1        4.766   0.677   1.244  0.00  0.00    +0.190 C 
ENDBRANCH  19  27
ENDBRANCH   1  19
TORSDOF 4
