REMARK  Name = ZINCpk00000y1iKl.0
REMARK                            x       y       z     vdW  Elec       q    Type
REMARK                         _______ _______ _______ _____ _____    ______ ____
ROOT
ATOM      1  N   LIG    1       -2.522   1.319  -0.098  0.00  0.00    -0.720 N 
ATOM      2  H   LIG    1       -2.616   0.353  -0.109  0.00  0.00    +0.410 HD
ATOM      3  C   LIG    1       -1.313   1.880  -0.299  0.00  0.00    +0.560 C 
ATOM      4  O   LIG    1       -1.209   3.089  -0.370  0.00  0.00    -0.490 OA
ENDROOT
BRANCH   1   5
ATOM      5  C   LIG    1       -3.693   2.166   0.136  0.00  0.00    +0.170 C 
ATOM      6  C   LIG    1       -4.923   1.285   0.382  0.00  0.00    +0.080 C 
ATOM      7  C   LIG    1       -4.702   0.489   1.673  0.00  0.00    +0.080 C 
ATOM      8  C   LIG    1       -4.408   1.445   2.799  0.00  0.00    +0.520 C 
ATOM      9  N   LIG    1       -3.813   2.626   2.573  0.00  0.00    -0.670 N 
ATOM     10  H   LIG    1       -3.635   3.209   3.327  0.00  0.00    +0.410 HD
ATOM     11  O   LIG    1       -4.716   1.141   3.932  0.00  0.00    -0.500 OA
ATOM     12  C   LIG    1       -3.455   3.031   1.346  0.00  0.00    +0.510 C 
ATOM     13  O   LIG    1       -2.929   4.115   1.207  0.00  0.00    -0.450 OA
BRANCH   5  15
ATOM     14  C   LIG    1       -4.087   2.174  -2.331  0.00  0.00    +0.030 C 
ATOM     15  C   LIG    1       -3.937   3.052  -1.087  0.00  0.00    +0.050 C 
ENDBRANCH   5  15
ENDBRANCH   1   5
BRANCH   3  16
ATOM     16  C   LIG    1       -0.115   1.026  -0.432  0.00  0.00    -0.190 A 
ATOM     17  C   LIG    1        1.145   1.599  -0.646  0.00  0.00    +0.140 A 
ATOM     18  C   LIG    1        2.236   0.759  -0.770  0.00  0.00    -0.010 A 
ATOM     19  C   LIG    1        2.047  -0.619  -0.678  0.00  0.00    +0.190 A 
ATOM     20  N   LIG    1        0.839  -1.129  -0.475  0.00  0.00    -0.470 NA
ATOM     21  C   LIG    1       -0.224  -0.364  -0.351  0.00  0.00    +0.300 A 
BRANCH  19  22
ATOM     22  C   LIG    1        3.212  -1.527  -0.811  0.00  0.00    -0.010 A 
ATOM     23  C   LIG    1        4.497  -1.021  -1.032  0.00  0.00    -0.010 A 
ATOM     24  C   LIG    1        5.553  -1.901  -1.143  0.00  0.00    +0.260 A 
ATOM     25  N   LIG    1        5.362  -3.203  -1.056  0.00  0.00    -0.480 NA
ATOM     26  C   LIG    1        4.167  -3.722  -0.854  0.00  0.00    +0.260 A 
ATOM     27  C   LIG    1        3.056  -2.913  -0.724  0.00  0.00    +0.020 A 
ENDBRANCH  19  22
ENDBRANCH   3  16
TORSDOF 4
