REMARK  Name = ZINCrD0000074cX7.0
REMARK                            x       y       z     vdW  Elec       q    Type
REMARK                         _______ _______ _______ _____ _____    ______ ____
ROOT
ATOM      1  C   LIG    1       -0.013   1.086   0.008  0.00  0.00    +0.060 C 
ATOM      2  C   LIG    1       -0.729   1.579   1.267  0.00  0.00    +0.180 C 
ENDROOT
BRANCH   2   3
ATOM      3  C   LIG    1       -2.143   1.058   1.278  0.00  0.00    +0.520 C 
ATOM      4  N   LIG    1       -3.016   1.458   0.332  0.00  0.00    -0.720 N 
ATOM      5  H   LIG    1       -2.734   2.081  -0.356  0.00  0.00    +0.400 HD
ATOM      6  O   LIG    1       -2.495   0.278   2.137  0.00  0.00    -0.510 OA
BRANCH   4   7
ATOM      7  C   LIG    1       -4.390   0.951   0.342  0.00  0.00    +0.330 C 
BRANCH   7   8
ATOM      8  C   LIG    1       -5.154   1.547  -0.811  0.00  0.00    -0.110 A 
ATOM      9  C   LIG    1       -5.843   2.735  -0.643  0.00  0.00    +0.050 A 
ATOM     10  C   LIG    1       -6.540   3.285  -1.702  0.00  0.00    +0.030 A 
ATOM     11  C   LIG    1       -6.558   2.642  -2.927  0.00  0.00    -0.030 A 
ATOM     12  C   LIG    1       -5.874   1.451  -3.093  0.00  0.00    +0.030 A 
ATOM     13 CL   LIG    1       -7.440   3.329  -4.255  0.00  0.00    -0.060 Cl
ATOM     14  C   LIG    1       -5.172   0.905  -2.035  0.00  0.00    +0.050 A 
ENDBRANCH   7   8
ENDBRANCH   4   7
ENDBRANCH   2   3
BRANCH   2  15
ATOM     15  O   LIG    1       -0.027   1.098   2.443  0.00  0.00    -0.320 OA
BRANCH  15  16
ATOM     16  C   LIG    1        0.950   1.886   2.938  0.00  0.00    +0.550 C 
ATOM     17  O   LIG    1        1.207   2.946   2.401  0.00  0.00    -0.490 OA
BRANCH  16  18
ATOM     18  C   LIG    1        1.701   1.464   4.123  0.00  0.00    -0.080 A 
ATOM     19  C   LIG    1        2.717   2.146   4.736  0.00  0.00    +0.280 A 
ATOM     20  N   LIG    1        3.125   1.420   5.777  0.00  0.00    -0.490 NA
ATOM     21  C   LIG    1        2.426   0.316   5.848  0.00  0.00    +0.460 A 
ATOM     22  N   LIG    1        1.529   0.295   4.843  0.00  0.00    -0.380 N 
BRANCH  22  23
ATOM     23  C   LIG    1        0.598  -0.717   4.577  0.00  0.00    +0.090 A 
ATOM     24  C   LIG    1       -0.740  -0.399   4.383  0.00  0.00    +0.060 A 
ATOM     25  C   LIG    1       -1.654  -1.399   4.115  0.00  0.00    +0.070 A 
ATOM     26  C   LIG    1       -1.241  -2.717   4.052  0.00  0.00    +0.020 A 
ATOM     27  C   LIG    1        0.089  -3.038   4.251  0.00  0.00    +0.020 A 
ATOM     28  C   LIG    1        1.009  -2.042   4.513  0.00  0.00    +0.020 A 
ENDBRANCH  22  23
ENDBRANCH  16  18
ENDBRANCH  15  16
ENDBRANCH   2  15
TORSDOF 7
