REMARK  Name = ZINCbw0000000Hnq.0
REMARK                            x       y       z     vdW  Elec       q    Type
REMARK                         _______ _______ _______ _____ _____    ______ ____
ROOT
ATOM      1  C   LIG    1        1.736   1.774  -0.005  0.00  0.00    -0.300 A 
ATOM      2  C   LIG    1        2.237   0.496  -0.017  0.00  0.00    +0.130 A 
ATOM      3  C   LIG    1        1.261  -0.468  -0.013  0.00  0.00    +0.040 A 
ATOM      4  C   LIG    1        0.002  -0.004   0.002  0.00  0.00    -0.210 A 
ATOM      5 BR   LIG    1       -1.541  -1.097   0.011  0.00  0.00    +0.030 Br
ATOM      6  S   LIG    1       -0.021   1.702   0.011  0.00  0.00    +0.290 S 
ENDROOT
BRANCH   1   7
ATOM      7  C   LIG    1        2.507   2.956  -0.006  0.00  0.00    +0.430 C 
ATOM      8  O   LIG    1        3.720   2.890  -0.018  0.00  0.00    -0.430 OA
BRANCH   7   9
ATOM      9  C   LIG    1        1.825   4.300   0.008  0.00  0.00    +0.230 C 
BRANCH   9  11
ATOM     10  N   LIG    1        3.626   6.187   0.001  0.00  0.00    -0.400 NA
ATOM     11  C   LIG    1        2.841   5.365   0.004  0.00  0.00    +0.210 C 
ENDBRANCH   9  11
ENDBRANCH   7   9
ENDBRANCH   1   7
TORSDOF 3
