REMARK  Name = ZINCqH0000034pA0.0
REMARK                            x       y       z     vdW  Elec       q    Type
REMARK                         _______ _______ _______ _____ _____    ______ ____
ROOT
ATOM      1  C   LIG    1        0.102  -2.125   5.896  0.00  0.00    +0.560 C 
ATOM      2  N   LIG    1        0.965  -1.767   4.925  0.00  0.00    -0.630 N 
ATOM      3  H   LIG    1        1.921  -1.815   5.083  0.00  0.00    +0.420 HD
ATOM      4  O   LIG    1       -1.096  -2.065   5.698  0.00  0.00    -0.460 OA
ENDROOT
BRANCH   1  10
ATOM      5  N   LIG    1        1.774  -3.918  10.925  0.00  0.00    -0.390 N 
ATOM      6  N   LIG    1        0.492  -4.121  11.456  0.00  0.00    +0.000 NA
ATOM      7  N   LIG    1       -0.393  -3.813  10.574  0.00  0.00    -0.210 NA
ATOM      8  C   LIG    1        0.210  -3.397   9.435  0.00  0.00    -0.030 A 
ATOM      9  C   LIG    1       -0.279  -2.958   8.202  0.00  0.00    +0.210 A 
ATOM     10  C   LIG    1        0.612  -2.590   7.202  0.00  0.00    -0.150 A 
ATOM     11  C   LIG    1        1.995  -2.663   7.426  0.00  0.00    +0.100 A 
ATOM     12  C   LIG    1        2.478  -3.085   8.628  0.00  0.00    +0.020 A 
ATOM     13  C   LIG    1        1.601  -3.459   9.643  0.00  0.00    +0.110 A 
BRANCH   5  15
ATOM     14  C   LIG    1        3.507  -5.589  11.355  0.00  0.00    +0.050 C 
ATOM     15  C   LIG    1        3.049  -4.151  11.606  0.00  0.00    +0.330 C 
ENDBRANCH   5  15
ENDBRANCH   1  10
BRANCH   2  16
ATOM     16  C   LIG    1        0.485  -1.329   3.697  0.00  0.00    +0.270 A 
ATOM     17  N   LIG    1       -0.768  -1.228   3.382  0.00  0.00    -0.470 NA
ATOM     18  C   LIG    1       -1.047  -0.794   2.168  0.00  0.00    +0.250 A 
ATOM     19  C   LIG    1        0.022  -0.514   1.420  0.00  0.00    -0.230 A 
ATOM     20  S   LIG    1        1.462  -0.852   2.377  0.00  0.00    +0.130 S 
BRANCH  19  21
ATOM     21  C   LIG    1        0.002  -0.004   0.002  0.00  0.00    +0.190 C 
BRANCH  21  22
ATOM     22  C   LIG    1       -0.018   1.503   0.010  0.00  0.00    -0.080 A 
ATOM     23  C   LIG    1       -1.225   2.178   0.020  0.00  0.00    +0.010 A 
ATOM     24  C   LIG    1       -1.244   3.560   0.032  0.00  0.00    +0.000 A 
ATOM     25  C   LIG    1       -0.056   4.267   0.025  0.00  0.00    +0.000 A 
ATOM     26  C   LIG    1        1.151   3.592   0.010  0.00  0.00    +0.000 A 
ATOM     27  C   LIG    1        1.169   2.210   0.003  0.00  0.00    +0.010 A 
ENDBRANCH  21  22
ENDBRANCH  19  21
ENDBRANCH   2  16
TORSDOF 5
