REMARK  Name = ZINCrH000004vJdl.0
REMARK                            x       y       z     vdW  Elec       q    Type
REMARK                         _______ _______ _______ _____ _____    ______ ____
ROOT
ATOM      1  N   LIG    1       -1.232   2.043   0.019  0.00  0.00    -0.730 N 
ATOM      2  H   LIG    1       -1.234   3.014   0.018  0.00  0.00    +0.410 HD
ENDROOT
BRANCH   1   9
ATOM      3  O   LIG    1        4.687  -2.630  -0.365  0.00  0.00    -0.530 OA
ATOM      4  C   LIG    1        3.631  -2.032  -0.377  0.00  0.00    +0.520 C 
ATOM      5  C   LIG    1        2.376  -2.747  -0.801  0.00  0.00    +0.080 C 
ATOM      6  C   LIG    1        1.187  -2.238   0.013  0.00  0.00    +0.100 C 
ATOM      7  C   LIG    1        1.181  -0.731   0.010  0.00  0.00    -0.080 A 
ATOM      8  C   LIG    1       -0.016  -0.043   0.019  0.00  0.00    +0.020 A 
ATOM      9  C   LIG    1       -0.018   1.345   0.017  0.00  0.00    +0.170 A 
ATOM     10  C   LIG    1        1.185   2.042   0.007  0.00  0.00    +0.060 A 
ATOM     11  C   LIG    1        2.383   1.352  -0.001  0.00  0.00    +0.000 A 
ATOM     12  F   LIG    1        1.184   3.393   0.005  0.00  0.00    -0.140 F 
ATOM     13  C   LIG    1        2.383  -0.036  -0.000  0.00  0.00    +0.140 A 
ATOM     14  N   LIG    1        3.595  -0.739  -0.009  0.00  0.00    -0.660 N 
ATOM     15  H   LIG    1        4.415  -0.289   0.251  0.00  0.00    +0.410 HD
ENDBRANCH   1   9
BRANCH   1  16
ATOM     16  C   LIG    1       -2.500   1.309   0.024  0.00  0.00    +0.260 C 
ATOM     17  C   LIG    1       -3.644   2.207   0.550  0.00  0.00    +0.070 C 
ATOM     18  C   LIG    1       -4.829   1.756  -0.332  0.00  0.00    +0.290 C 
ATOM     19  N   LIG    1       -4.224   1.231  -1.562  0.00  0.00    -0.560 N 
ATOM     20  C   LIG    1       -2.918   0.966  -1.389  0.00  0.00    +0.500 C 
ATOM     21  O   LIG    1       -2.182   0.516  -2.241  0.00  0.00    -0.480 OA
BRANCH  19  22
ATOM     22  C   LIG    1       -4.919   1.031  -2.761  0.00  0.00    +0.170 A 
ATOM     23  C   LIG    1       -6.293   1.222  -2.808  0.00  0.00    +0.010 A 
ATOM     24  C   LIG    1       -6.978   1.025  -3.992  0.00  0.00    +0.040 A 
ATOM     25  C   LIG    1       -6.294   0.638  -5.132  0.00  0.00    +0.080 A 
ATOM     26  C   LIG    1       -4.922   0.447  -5.088  0.00  0.00    -0.040 A 
ATOM     27 CL   LIG    1       -4.067  -0.037  -6.519  0.00  0.00    -0.040 Cl
ATOM     28  F   LIG    1       -6.965   0.446  -6.288  0.00  0.00    -0.130 F 
ATOM     29  C   LIG    1       -4.233   0.648  -3.906  0.00  0.00    +0.050 A 
ENDBRANCH  19  22
ENDBRANCH   1  16
TORSDOF 3
