REMARK  Name = ZINCqH0000051yYp.0
REMARK                            x       y       z     vdW  Elec       q    Type
REMARK                         _______ _______ _______ _____ _____    ______ ____
ROOT
ATOM      1  C   LIG    1       -0.047   0.005  -0.502  0.00  0.00    +0.350 C 
ENDROOT
BRANCH   1   2
ATOM      2  C   LIG    1       -1.452  -0.537  -0.462  0.00  0.00    +0.090 A 
ATOM      3  C   LIG    1       -2.526   0.228  -0.659  0.00  0.00    -0.100 A 
ATOM      4  S   LIG    1       -3.956  -0.792  -0.531  0.00  0.00    +0.150 S 
ATOM      5  C   LIG    1       -2.970  -2.153  -0.215  0.00  0.00    +0.300 A 
ATOM      6  N   LIG    1       -1.720  -1.808  -0.223  0.00  0.00    -0.530 NA
BRANCH   5   7
ATOM      7  N   LIG    1       -3.439  -3.437   0.017  0.00  0.00    -0.630 N 
ATOM      8  H   LIG    1       -2.814  -4.174   0.098  0.00  0.00    +0.420 HD
BRANCH   7   9
ATOM      9  C   LIG    1       -4.812  -3.669   0.135  0.00  0.00    +0.160 A 
ATOM     10  C   LIG    1       -5.626  -2.732   0.758  0.00  0.00    -0.030 A 
ATOM     11  C   LIG    1       -6.984  -2.961   0.867  0.00  0.00    +0.050 A 
ATOM     12  C   LIG    1       -7.531  -4.128   0.367  0.00  0.00    -0.010 A 
ATOM     13  C   LIG    1       -6.723  -5.066  -0.250  0.00  0.00    +0.040 A 
ATOM     14  C   LIG    1       -5.366  -4.840  -0.367  0.00  0.00    -0.010 A 
ENDBRANCH   7   9
ENDBRANCH   5   7
ENDBRANCH   1   2
BRANCH   1  15
ATOM     15  O   LIG    1       -0.085   1.429  -0.785  0.00  0.00    -0.350 OA
BRANCH  15  17
ATOM     16  O   LIG    1        2.122   1.459  -0.686  0.00  0.00    -0.470 OA
ATOM     17  C   LIG    1        1.093   2.068  -0.856  0.00  0.00    +0.480 C 
BRANCH  17  18
ATOM     18  C   LIG    1        1.131   3.547  -1.146  0.00  0.00    +0.190 C 
ATOM     19  C   LIG    1        0.500   4.320   0.020  0.00  0.00    +0.270 C 
ATOM     20  O   LIG    1        0.565   5.718  -0.282  0.00  0.00    -0.300 OA
ATOM     21  C   LIG    1        1.754   6.188  -0.750  0.00  0.00    +0.050 A 
ATOM     22  C   LIG    1        2.005   7.551  -0.723  0.00  0.00    +0.030 A 
ATOM     23  C   LIG    1        3.206   8.044  -1.198  0.00  0.00    +0.030 A 
ATOM     24  C   LIG    1        4.160   7.179  -1.700  0.00  0.00    +0.030 A 
ATOM     25  C   LIG    1        3.916   5.819  -1.729  0.00  0.00    +0.030 A 
ATOM     26  C   LIG    1        2.714   5.318  -1.254  0.00  0.00    +0.050 A 
ATOM     27  O   LIG    1        2.490   3.976  -1.286  0.00  0.00    -0.280 OA
ENDBRANCH  17  18
ENDBRANCH  15  17
ENDBRANCH   1  15
TORSDOF 6
