REMARK  Name = ZINCpe000000XpK1.0
REMARK                            x       y       z     vdW  Elec       q    Type
REMARK                         _______ _______ _______ _____ _____    ______ ____
ROOT
ATOM      1  N   LIG    1        1.283  -0.415  -0.012  0.00  0.00    -0.560 N 
ATOM      2  C   LIG    1        0.002  -0.004   0.002  0.00  0.00    +0.580 C 
ATOM      3  C   LIG    1       -0.018   1.474   0.010  0.00  0.00    -0.080 A 
ATOM      4  C   LIG    1       -1.022   2.428   0.030  0.00  0.00    +0.130 A 
ATOM      5  C   LIG    1       -0.691   3.774   0.029  0.00  0.00    +0.160 A 
ATOM      6  C   LIG    1        0.632   4.170   0.018  0.00  0.00    -0.030 A 
ATOM      7  C   LIG    1        1.648   3.227   0.004  0.00  0.00    +0.190 A 
ATOM      8  C   LIG    1        1.333   1.878  -0.001  0.00  0.00    -0.130 A 
ATOM      9  O   LIG    1       -0.974  -0.726   0.008  0.00  0.00    -0.440 OA
ATOM     10  C   LIG    1        2.127   0.632  -0.015  0.00  0.00    +0.590 C 
ATOM     11  O   LIG    1        3.340   0.564  -0.027  0.00  0.00    -0.440 OA
ENDROOT
BRANCH   6  12
ATOM     12  N   LIG    1        0.969   5.612   0.023  0.00  0.00    +0.020 N 
ATOM     13  O   LIG    1        0.080   6.444   0.036  0.00  0.00    -0.140 OA
ATOM     14  O   LIG    1        2.134   5.966   0.014  0.00  0.00    -0.140 OA
ENDBRANCH   6  12
BRANCH   1  15
ATOM     15  C   LIG    1        1.703  -1.819  -0.023  0.00  0.00    +0.350 C 
BRANCH  15  23
ATOM     16  C   LIG    1        3.809  -5.400  -4.598  0.00  0.00    +0.080 C 
ATOM     17  C   LIG    1        3.717  -4.716  -3.232  0.00  0.00    +0.140 C 
ATOM     18  C   LIG    1        2.345  -4.047  -3.086  0.00  0.00    +0.260 C 
ATOM     19  N   LIG    1        2.211  -3.562  -1.704  0.00  0.00    -0.610 N 
ATOM     20  C   LIG    1        2.506  -4.499  -0.609  0.00  0.00    +0.250 C 
ATOM     21  C   LIG    1        3.865  -5.148  -0.876  0.00  0.00    +0.140 C 
ATOM     22  C   LIG    1        4.107  -6.268   0.138  0.00  0.00    +0.070 C 
ATOM     23  C   LIG    1        1.833  -2.293  -1.448  0.00  0.00    +0.510 C 
ATOM     24  O   LIG    1        1.599  -1.534  -2.364  0.00  0.00    -0.520 OA
ATOM     25  O   LIG    1        3.878  -5.690  -2.198  0.00  0.00    -0.370 OA
ENDBRANCH  15  23
ENDBRANCH   1  15
TORSDOF 3
