REMARK  Name = ZINCrH000004tIAg.0
REMARK                            x       y       z     vdW  Elec       q    Type
REMARK                         _______ _______ _______ _____ _____    ______ ____
ROOT
ATOM      1  O   LIG    1        0.185   9.938   0.053  0.00  0.00    -0.500 OA
ATOM      2  C   LIG    1        1.350   9.600   0.040  0.00  0.00    +0.520 C 
ATOM      3  N   LIG    1        1.672   8.291   0.031  0.00  0.00    -0.620 N 
ATOM      4  H   LIG    1        2.604   8.021   0.021  0.00  0.00    +0.430 HD
ENDROOT
BRANCH   3   5
ATOM      5  C   LIG    1        0.670   7.329   0.035  0.00  0.00    +0.270 A 
ATOM      6  N   LIG    1        0.862   6.047   0.032  0.00  0.00    -0.500 NA
ATOM      7  C   LIG    1       -0.216   5.276   0.033  0.00  0.00    +0.120 A 
ATOM      8  C   LIG    1       -1.393   5.931   0.047  0.00  0.00    -0.060 A 
ATOM      9  S   LIG    1       -1.060   7.661   0.053  0.00  0.00    +0.210 S 
BRANCH   7  10
ATOM     10  C   LIG    1       -0.133   3.797   0.024  0.00  0.00    +0.190 A 
ATOM     11  C   LIG    1        1.115   3.175   0.009  0.00  0.00    +0.000 A 
ATOM     12  C   LIG    1        1.176   1.792   0.001  0.00  0.00    +0.060 A 
ATOM     13  C   LIG    1       -0.013   1.076   0.008  0.00  0.00    -0.030 A 
ATOM     14  C   LIG    1       -1.215   1.757   0.017  0.00  0.00    +0.260 A 
ATOM     15  N   LIG    1       -1.247   3.074   0.030  0.00  0.00    -0.480 NA
ENDBRANCH   7  10
ENDBRANCH   3   5
BRANCH   2  16
ATOM     16  C   LIG    1        2.437  10.644   0.035  0.00  0.00    +0.080 C 
BRANCH  16  17
ATOM     17  C   LIG    1        1.806  12.038   0.048  0.00  0.00    +0.080 C 
BRANCH  17  18
ATOM     18  C   LIG    1        2.909  13.097   0.043  0.00  0.00    +0.010 C 
ATOM     19  C   LIG    1        2.283  14.484   0.190  0.00  0.00    +0.120 C 
ATOM     20  C   LIG    1        1.573  14.857  -1.087  0.00  0.00    -0.120 A 
ATOM     21  C   LIG    1        0.437  15.641  -1.041  0.00  0.00    +0.050 A 
ATOM     22  C   LIG    1       -0.193  16.017  -2.213  0.00  0.00    -0.010 A 
ATOM     23  C   LIG    1        0.314  15.614  -3.434  0.00  0.00    +0.040 A 
ATOM     24  C   LIG    1        1.446  14.824  -3.486  0.00  0.00    -0.020 A 
ATOM     25  C   LIG    1        2.070  14.428  -2.310  0.00  0.00    +0.160 A 
ATOM     26  N   LIG    1        3.210  13.621  -2.359  0.00  0.00    -0.660 N 
ATOM     27  H   LIG    1        3.672  13.495  -3.203  0.00  0.00    +0.410 HD
ATOM     28  C   LIG    1        3.674  13.018  -1.251  0.00  0.00    +0.520 C 
ATOM     29  O   LIG    1        4.718  12.403  -1.295  0.00  0.00    -0.520 OA
ENDBRANCH  17  18
ENDBRANCH  16  17
ENDBRANCH   2  16
TORSDOF 5
