REMARK  Name = ZINCrH000004m3Ab.0
REMARK                            x       y       z     vdW  Elec       q    Type
REMARK                         _______ _______ _______ _____ _____    ______ ____
ROOT
ATOM      1  C   LIG    1       -2.009  -1.290   0.490  0.00  0.00    +0.520 C 
ATOM      2  N   LIG    1       -1.008  -0.506   0.937  0.00  0.00    -0.610 N 
ATOM      3  C   LIG    1       -0.930  -0.155   2.357  0.00  0.00    +0.280 C 
ATOM      4  O   LIG    1       -2.073  -1.581  -0.685  0.00  0.00    -0.520 OA
ENDROOT
BRANCH   2   5
ATOM      5  C   LIG    1        0.002  -0.004   0.002  0.00  0.00    +0.290 C 
ATOM      6  C   LIG    1        1.376  -0.525   0.418  0.00  0.00    +0.010 C 
ATOM      7  C   LIG    1        2.438   0.180  -0.434  0.00  0.00    +0.020 C 
ATOM      8  C   LIG    1        2.507   1.644  -0.004  0.00  0.00    +0.080 C 
ATOM      9  C   LIG    1        1.132   2.259   0.003  0.00  0.00    -0.070 A 
ATOM     10  C   LIG    1        1.043   3.645   0.006  0.00  0.00    +0.000 A 
ATOM     11  C   LIG    1       -0.187   4.269   0.019  0.00  0.00    +0.010 A 
ATOM     12  C   LIG    1       -1.342   3.509   0.030  0.00  0.00    -0.010 A 
ATOM     13  C   LIG    1       -1.256   2.132   0.019  0.00  0.00    +0.020 A 
ATOM     14  C   LIG    1       -0.018   1.502   0.010  0.00  0.00    -0.090 A 
ENDBRANCH   2   5
BRANCH   1  15
ATOM     15  C   LIG    1       -3.048  -1.807   1.452  0.00  0.00    +0.120 C 
BRANCH  15  18
ATOM     16  C   LIG    1       -4.750  -4.793  -0.119  0.00  0.00    +0.150 A 
ATOM     17  C   LIG    1       -3.833  -4.011   0.568  0.00  0.00    -0.090 A 
ATOM     18  C   LIG    1       -4.047  -2.653   0.706  0.00  0.00    +0.010 A 
ATOM     19  C   LIG    1       -5.178  -2.069   0.166  0.00  0.00    -0.090 A 
ATOM     20  C   LIG    1       -6.097  -2.843  -0.526  0.00  0.00    +0.150 A 
ATOM     21  C   LIG    1       -5.885  -4.209  -0.668  0.00  0.00    +0.030 A 
BRANCH  16  23
ATOM     22  C   LIG    1       -3.351  -6.662   0.336  0.00  0.00    +0.240 C 
ATOM     23  O   LIG    1       -4.538  -6.130  -0.255  0.00  0.00    -0.300 OA
ENDBRANCH  16  23
BRANCH  20  24
ATOM     24  O   LIG    1       -7.206  -2.266  -1.061  0.00  0.00    -0.300 OA
ATOM     25  C   LIG    1       -7.359  -0.857  -0.877  0.00  0.00    +0.240 C 
ENDBRANCH  20  24
BRANCH  21  26
ATOM     26  O   LIG    1       -6.788  -4.973  -1.342  0.00  0.00    -0.310 OA
ATOM     27  C   LIG    1       -7.850  -5.547  -0.578  0.00  0.00    +0.210 C 
ENDBRANCH  21  26
ENDBRANCH  15  18
ENDBRANCH   1  15
TORSDOF 6
