REMARK  Name = ZINCrH00000tj1fS.0
REMARK                            x       y       z     vdW  Elec       q    Type
REMARK                         _______ _______ _______ _____ _____    ______ ____
ROOT
ATOM      1  C   LIG    1        4.433  10.040   0.015  0.00  0.00    +0.570 C 
ATOM      2  N   LIG    1        3.204   9.485   0.023  0.00  0.00    -0.520 N 
ATOM      3  H   LIG    1        2.417  10.051   0.033  0.00  0.00    +0.430 HD
ATOM      4  O   LIG    1        5.420   9.330   0.002  0.00  0.00    -0.540 OA
ENDROOT
BRANCH   1   8
ATOM      5  C   LIG    1        4.854  14.265   0.032  0.00  0.00    +0.250 A 
ATOM      6  C   LIG    1        5.986  13.454   0.018  0.00  0.00    -0.080 A 
ATOM      7  C   LIG    1        5.852  12.085   0.013  0.00  0.00    +0.140 A 
ATOM      8  C   LIG    1        4.579  11.508   0.021  0.00  0.00    -0.200 A 
ATOM      9  C   LIG    1        3.445  12.325   0.030  0.00  0.00    +0.090 A 
ATOM     10  C   LIG    1        3.585  13.694   0.041  0.00  0.00    -0.080 A 
BRANCH   5  11
ATOM     11  N   LIG    1        4.992  15.649   0.038  0.00  0.00    -0.620 N 
BRANCH  11  13
ATOM     12  C   LIG    1        3.401  16.794   1.500  0.00  0.00    +0.020 C 
ATOM     13  C   LIG    1        3.802  16.503   0.053  0.00  0.00    +0.270 C 
ENDBRANCH  11  13
BRANCH  11  14
ATOM     14  C   LIG    1        6.327  16.252   0.028  0.00  0.00    +0.270 C 
ATOM     15  C   LIG    1        6.779  16.469  -1.418  0.00  0.00    +0.020 C 
ENDBRANCH  11  14
ENDBRANCH   5  11
ENDBRANCH   1   8
BRANCH   2  16
ATOM     16  N   LIG    1        3.066   8.091   0.017  0.00  0.00    -0.520 N 
ATOM     17  H   LIG    1        3.853   7.525   0.006  0.00  0.00    +0.430 HD
ATOM     18  C   LIG    1        1.837   7.536   0.025  0.00  0.00    +0.540 C 
ATOM     19  O   LIG    1        0.852   8.244   0.038  0.00  0.00    -0.520 OA
BRANCH  18  20
ATOM     20  C   LIG    1        1.688   6.037   0.018  0.00  0.00    +0.090 C 
BRANCH  20  21
ATOM     21  S   LIG    1       -0.074   5.604   0.032  0.00  0.00    -0.010 S 
BRANCH  21  22
ATOM     22  C   LIG    1       -0.050   3.843   0.022  0.00  0.00    -0.100 A 
ATOM     23  C   LIG    1        1.162   3.163   0.007  0.00  0.00    -0.010 A 
ATOM     24  C   LIG    1        1.176   1.782   0.000  0.00  0.00    -0.070 A 
ATOM     25  C   LIG    1       -0.013   1.076   0.008  0.00  0.00    +0.010 A 
ATOM     26  C   LIG    1       -1.221   1.749   0.017  0.00  0.00    +0.030 A 
ATOM     27  C   LIG    1        2.490   1.043  -0.015  0.00  0.00    +0.090 C 
ATOM     28  C   LIG    1       -1.243   3.130   0.030  0.00  0.00    -0.070 A 
ATOM     29  C   LIG    1       -2.560   3.863   0.046  0.00  0.00    +0.100 C 
ENDBRANCH  21  22
ENDBRANCH  20  21
ENDBRANCH  18  20
ENDBRANCH   2  16
TORSDOF 8
