REMARK  Name = ZINCrD00000l2zrN.0
REMARK                            x       y       z     vdW  Elec       q    Type
REMARK                         _______ _______ _______ _____ _____    ______ ____
ROOT
ATOM      1  C   LIG    1       -1.092   3.304   6.092  0.00  0.00    +0.460 A 
ATOM      2  N   LIG    1       -1.809   3.670   7.145  0.00  0.00    -0.580 NA
ATOM      3  C   LIG    1       -2.964   4.302   7.009  0.00  0.00    +0.540 A 
ATOM      4  N   LIG    1       -3.478   4.608   5.842  0.00  0.00    -0.540 NA
ATOM      5  C   LIG    1       -2.834   4.285   4.709  0.00  0.00    +0.170 A 
ATOM      6  C   LIG    1       -3.357   4.597   3.447  0.00  0.00    +0.060 A 
ATOM      7  C   LIG    1       -2.670   4.249   2.324  0.00  0.00    +0.020 A 
ATOM      8  C   LIG    1       -1.445   3.580   2.409  0.00  0.00    +0.100 A 
ATOM      9  C   LIG    1       -0.907   3.253   3.637  0.00  0.00    +0.030 A 
ATOM     10  C   LIG    1       -1.594   3.607   4.802  0.00  0.00    -0.160 A 
ENDROOT
BRANCH   8  11
ATOM     11  N   LIG    1       -0.763   3.234   1.239  0.00  0.00    -0.490 N 
ATOM     12  C   LIG    1       -0.496   1.789   1.192  0.00  0.00    +0.170 C 
ATOM     13  C   LIG    1        0.302   1.464  -0.073  0.00  0.00    +0.220 C 
ATOM     14  O   LIG    1       -0.422   1.919  -1.219  0.00  0.00    -0.380 OA
ATOM     15  C   LIG    1       -0.698   3.323  -1.206  0.00  0.00    +0.230 C 
ATOM     16  C   LIG    1       -1.507   3.667   0.047  0.00  0.00    +0.170 C 
ENDBRANCH   8  11
BRANCH   1  17
ATOM     17  N   LIG    1        0.111   2.646   6.248  0.00  0.00    -0.640 N 
ATOM     18  H   LIG    1        0.586   2.312   5.470  0.00  0.00    +0.420 HD
BRANCH  17  22
ATOM     19  C   LIG    1        1.703   2.089  10.056  0.00  0.00    -0.100 A 
ATOM     20  C   LIG    1        1.917   1.140   9.073  0.00  0.00    +0.040 A 
ATOM     21  C   LIG    1        1.390   1.321   7.809  0.00  0.00    -0.020 A 
ATOM     22  C   LIG    1        0.645   2.459   7.526  0.00  0.00    +0.150 A 
ATOM     23  C   LIG    1        0.437   3.413   8.513  0.00  0.00    +0.030 A 
ATOM     24  C   LIG    1        0.962   3.223   9.777  0.00  0.00    +0.040 A 
BRANCH  19  25
ATOM     25  C   LIG    1        2.279   1.888  11.434  0.00  0.00    +0.080 C 
BRANCH  25  26
ATOM     26  C   LIG    1        3.677   2.506  11.497  0.00  0.00    +0.170 C 
BRANCH  26  28
ATOM     27  C   LIG    1        5.534   2.859  12.971  0.00  0.00    +0.200 C 
ATOM     28  O   LIG    1        4.223   2.315  12.804  0.00  0.00    -0.390 OA
ENDBRANCH  26  28
ENDBRANCH  25  26
ENDBRANCH  19  25
ENDBRANCH  17  22
ENDBRANCH   1  17
TORSDOF 6
