REMARK  Name = ZINCqH0000004Jxc.0
REMARK                            x       y       z     vdW  Elec       q    Type
REMARK                         _______ _______ _______ _____ _____    ______ ____
ROOT
ATOM      1  N   LIG    1       -3.323   7.905   0.058  0.00  0.00    -0.700 N 
ATOM      2  H   LIG    1       -3.510   6.953   0.062  0.00  0.00    +0.420 HD
ATOM      3  C   LIG    1       -2.048   8.341   0.038  0.00  0.00    +0.600 C 
ATOM      4  O   LIG    1       -1.813   9.534   0.033  0.00  0.00    -0.530 OA
ENDROOT
BRANCH   3   5
ATOM      5  C   LIG    1       -0.939   7.372   0.021  0.00  0.00    +0.010 A 
ATOM      6  C   LIG    1        0.358   7.754   0.000  0.00  0.00    -0.020 A 
ATOM      7  S   LIG    1        1.352   6.362  -0.007  0.00  0.00    +0.200 S 
ATOM      8  C   LIG    1       -0.070   5.325   0.008  0.00  0.00    +0.100 A 
ATOM      9  N   LIG    1       -1.139   6.061   0.025  0.00  0.00    -0.440 NA
BRANCH   8  10
ATOM     10  C   LIG    1       -0.049   3.846   0.008  0.00  0.00    -0.030 A 
ATOM     11  C   LIG    1        1.167   3.162  -0.011  0.00  0.00    +0.030 A 
ATOM     12  C   LIG    1        1.179   1.783  -0.011  0.00  0.00    +0.010 A 
ATOM     13  C   LIG    1       -0.011   1.077   0.007  0.00  0.00    +0.030 A 
ATOM     14  C   LIG    1       -1.220   1.750   0.020  0.00  0.00    +0.010 A 
ATOM     15  C   LIG    1       -1.246   3.129   0.027  0.00  0.00    +0.070 A 
ENDBRANCH   8  10
ENDBRANCH   3   5
BRANCH   1  16
ATOM     16  C   LIG    1       -4.426   8.869   0.075  0.00  0.00    +0.320 C 
BRANCH  16  19
ATOM     17  N   LIG    1       -6.899   8.816   0.114  0.00  0.00    -0.660 N 
ATOM     18  H   LIG    1       -6.889   9.782   0.194  0.00  0.00    +0.410 HD
ATOM     19  C   LIG    1       -5.739   8.129   0.096  0.00  0.00    +0.510 C 
ATOM     20  O   LIG    1       -5.752   6.917   0.097  0.00  0.00    -0.510 OA
BRANCH  17  26
ATOM     21  C   LIG    1       -9.274   8.699   0.537  0.00  0.00    -0.110 A 
ATOM     22  C   LIG    1      -10.476   8.026   0.433  0.00  0.00    +0.030 A 
ATOM     23  C   LIG    1      -10.525   6.785  -0.176  0.00  0.00    -0.010 A 
ATOM     24  C   LIG    1       -9.374   6.217  -0.689  0.00  0.00    +0.030 A 
ATOM     25  C   LIG    1       -8.170   6.888  -0.594  0.00  0.00    +0.010 A 
ATOM     26  C   LIG    1       -8.117   8.134   0.017  0.00  0.00    +0.150 A 
BRANCH  21  28
ATOM     27  C   LIG    1       -9.334  11.147   0.149  0.00  0.00    +0.020 C 
ATOM     28  C   LIG    1       -9.220  10.047   1.207  0.00  0.00    +0.060 C 
ENDBRANCH  21  28
ENDBRANCH  17  26
ENDBRANCH  16  19
ENDBRANCH   1  16
TORSDOF 6
