REMARK  Name = ZINCpe000000TEMk.0
REMARK                            x       y       z     vdW  Elec       q    Type
REMARK                         _______ _______ _______ _____ _____    ______ ____
ROOT
ATOM      1  N   LIG    1       -2.606   4.096   0.037  0.00  0.00    -0.520 NA
ATOM      2  C   LIG    1       -3.288   3.748  -1.217  0.00  0.00    +0.190 C 
ATOM      3  C   LIG    1       -4.753   4.184  -1.136  0.00  0.00    +0.210 C 
ATOM      4  N   LIG    1       -4.818   5.631  -0.890  0.00  0.00    -0.490 N 
ATOM      5  C   LIG    1       -4.136   5.980   0.364  0.00  0.00    +0.200 C 
ATOM      6  C   LIG    1       -2.671   5.544   0.283  0.00  0.00    +0.200 C 
ENDROOT
BRANCH   4   7
ATOM      7  C   LIG    1       -6.141   6.079  -0.881  0.00  0.00    +0.150 A 
ATOM      8  C   LIG    1       -6.639   6.755   0.225  0.00  0.00    -0.080 A 
ATOM      9  C   LIG    1       -7.947   7.198   0.233  0.00  0.00    +0.080 A 
ATOM     10  C   LIG    1       -8.764   6.969  -0.857  0.00  0.00    -0.100 A 
ATOM     11  C   LIG    1       -8.272   6.293  -1.965  0.00  0.00    +0.150 A 
ATOM     12  C   LIG    1       -6.958   5.853  -1.980  0.00  0.00    -0.040 A 
BRANCH  11  13
ATOM     13  O   LIG    1       -9.077   6.068  -3.037  0.00  0.00    -0.320 OA
ATOM     14  C   LIG    1      -10.418   6.555  -2.955  0.00  0.00    +0.250 C 
ENDBRANCH  11  13
ENDBRANCH   4   7
BRANCH   1  15
ATOM     15  C   LIG    1       -1.214   3.626   0.028  0.00  0.00    +0.220 C 
BRANCH  15  17
ATOM     16  N   LIG    1       -0.018   1.461   0.010  0.00  0.00    -0.610 N 
ATOM     17  C   LIG    1       -1.194   2.119   0.019  0.00  0.00    +0.520 C 
ATOM     18  O   LIG    1       -2.236   1.498   0.021  0.00  0.00    -0.510 OA
ATOM     19  C   LIG    1        1.241   2.211   0.002  0.00  0.00    +0.300 C 
BRANCH  16  20
ATOM     20  C   LIG    1        0.002  -0.004   0.002  0.00  0.00    +0.380 C 
BRANCH  20  21
ATOM     21  C   LIG    1        0.022  -0.514   1.420  0.00  0.00    +0.440 C 
ATOM     22  O   LIG    1        0.021   0.266   2.343  0.00  0.00    -0.500 OA
BRANCH  21  23
ATOM     23  O   LIG    1        0.043  -1.835   1.658  0.00  0.00    -0.360 OA
BRANCH  23  25
ATOM     24  C   LIG    1        0.083  -3.782   3.120  0.00  0.00    +0.070 C 
ATOM     25  C   LIG    1        0.062  -2.254   3.048  0.00  0.00    +0.200 C 
ENDBRANCH  23  25
ENDBRANCH  21  23
ENDBRANCH  20  21
ENDBRANCH  16  20
ENDBRANCH  15  17
ENDBRANCH   1  15
TORSDOF 8
