REMARK  Name = ZINCrD000000fOf0.0
REMARK                            x       y       z     vdW  Elec       q    Type
REMARK                         _______ _______ _______ _____ _____    ______ ____
ROOT
ATOM      1  C   LIG    1       -1.408   1.802   0.045  0.00  0.00    +0.120 A 
ATOM      2  C   LIG    1       -0.212   1.110   0.189  0.00  0.00    +0.050 A 
ATOM      3  C   LIG    1        0.989   1.788   0.132  0.00  0.00    +0.040 A 
ATOM      4  C   LIG    1        1.002   3.162  -0.065  0.00  0.00    +0.160 A 
ATOM      5  C   LIG    1       -0.193   3.855  -0.204  0.00  0.00    +0.000 A 
ATOM      6  C   LIG    1       -1.395   3.178  -0.146  0.00  0.00    +0.010 A 
ENDROOT
BRANCH   4   7
ATOM      7  N   LIG    1        2.222   3.850  -0.124  0.00  0.00    -0.680 N 
ATOM      8  H   LIG    1        2.284   4.756   0.215  0.00  0.00    +0.410 HD
ATOM      9  C   LIG    1        3.308   3.251  -0.651  0.00  0.00    +0.710 C 
ATOM     10  N   LIG    1        4.504   3.872  -0.614  0.00  0.00    -0.740 N 
ATOM     11  H   LIG    1        4.583   4.749  -0.208  0.00  0.00    +0.400 HD
ATOM     12  O   LIG    1        3.209   2.151  -1.161  0.00  0.00    -0.570 OA
BRANCH  10  13
ATOM     13  C   LIG    1        5.685   3.221  -1.188  0.00  0.00    +0.410 C 
BRANCH  13  14
ATOM     14  C   LIG    1        6.884   4.117  -1.018  0.00  0.00    -0.040 A 
ATOM     15  C   LIG    1        7.719   4.124   0.037  0.00  0.00    -0.030 A 
ATOM     16  C   LIG    1        8.697   5.112  -0.221  0.00  0.00    -0.070 A 
ATOM     17  C   LIG    1        8.397   5.656  -1.413  0.00  0.00    +0.180 A 
ATOM     18  O   LIG    1        7.298   5.050  -1.892  0.00  0.00    -0.170 OA
ENDBRANCH  13  14
ENDBRANCH  10  13
ENDBRANCH   4   7
BRANCH   1  20
ATOM     19  C   LIG    1       -2.772   0.065   0.931  0.00  0.00    +0.590 C 
ATOM     20  N   LIG    1       -2.626   1.114   0.098  0.00  0.00    -0.670 N 
ATOM     21  H   LIG    1       -3.365   1.393  -0.465  0.00  0.00    +0.400 HD
ATOM     22  O   LIG    1       -1.821  -0.338   1.575  0.00  0.00    -0.500 OA
BRANCH  19  27
ATOM     23  C   LIG    1       -5.727  -1.965   1.681  0.00  0.00    -0.270 A 
ATOM     24  C   LIG    1       -6.226  -1.058   0.759  0.00  0.00    +0.290 A 
ATOM     25  N   LIG    1       -5.230  -0.238   0.393  0.00  0.00    -0.530 N 
ATOM     26  H   LIG    1       -5.308   0.491  -0.243  0.00  0.00    +0.420 HD
ATOM     27  C   LIG    1       -4.078  -0.593   1.062  0.00  0.00    -0.070 A 
ATOM     28  C   LIG    1       -4.356  -1.661   1.860  0.00  0.00    +0.120 A 
BRANCH  23  30
ATOM     29  C   LIG    1       -7.938  -3.237   2.033  0.00  0.00    +0.060 C 
ATOM     30  C   LIG    1       -6.476  -3.040   2.340  0.00  0.00    +0.420 C 
ATOM     31  O   LIG    1       -5.918  -3.770   3.133  0.00  0.00    -0.470 OA
ENDBRANCH  23  30
ENDBRANCH  19  27
ENDBRANCH   1  20
TORSDOF 6
