REMARK  Name = ZINCwl00000004Bf.0
REMARK                            x       y       z     vdW  Elec       q    Type
REMARK                         _______ _______ _______ _____ _____    ______ ____
ROOT
ATOM      1  C   LIG    1        3.381   0.426  -0.103  0.00  0.00    +0.620 C 
ATOM      2  N   LIG    1        3.994  -0.774  -0.130  0.00  0.00    -0.610 N 
ATOM      3  C   LIG    1        5.421  -1.071   0.141  0.00  0.00    +0.300 C 
ATOM      4  C   LIG    1        5.392  -2.395   0.931  0.00  0.00    -0.080 C 
ATOM      5  C   LIG    1        4.064  -3.070   0.551  0.00  0.00    +0.100 C 
ATOM      6  F   LIG    1        3.261  -3.238   1.684  0.00  0.00    -0.170 F 
ATOM      7  C   LIG    1        6.569  -3.275   0.520  0.00  0.00    +0.000 C 
ATOM      8  C   LIG    1        7.876  -2.607   0.962  0.00  0.00    +0.220 C 
ATOM      9  O   LIG    1        7.836  -2.375   2.371  0.00  0.00    -0.370 OA
ATOM     10  C   LIG    1        6.788  -1.498   2.792  0.00  0.00    +0.230 C 
ATOM     11  C   LIG    1        5.434  -2.118   2.431  0.00  0.00    +0.040 C 
ATOM     12  C   LIG    1        3.396  -2.093  -0.442  0.00  0.00    +0.320 C 
ATOM     13  O   LIG    1        4.029   1.436   0.095  0.00  0.00    -0.500 OA
ENDROOT
BRANCH   1  15
ATOM     14  C   LIG    1        1.275   0.853  -1.486  0.00  0.00    -0.130 A 
ATOM     15  C   LIG    1        1.927   0.514  -0.312  0.00  0.00    -0.040 A 
ATOM     16  N   LIG    1        0.949   0.279   0.613  0.00  0.00    -0.270 N 
ATOM     17  N   LIG    1       -0.204   0.452   0.075  0.00  0.00    -0.270 NA
ATOM     18  C   LIG    1        1.181  -0.112   2.006  0.00  0.00    +0.370 C 
ATOM     19  C   LIG    1       -0.087   0.797  -1.182  0.00  0.00    +0.200 A 
BRANCH  14  21
ATOM     20  C   LIG    1        1.434   0.214  -3.877  0.00  0.00    +0.030 C 
ATOM     21  C   LIG    1        1.903   1.206  -2.810  0.00  0.00    +0.050 C 
ATOM     22  C   LIG    1        1.485   2.622  -3.211  0.00  0.00    +0.040 C 
ENDBRANCH  14  21
ENDBRANCH   1  15
BRANCH   5  23
ATOM     23  C   LIG    1        4.319  -4.399  -0.112  0.00  0.00    +0.520 C 
ATOM     24  N   LIG    1        4.508  -5.502   0.640  0.00  0.00    -0.610 N 
ATOM     25  C   LIG    1        4.338  -5.435   2.094  0.00  0.00    +0.290 C 
ATOM     26  O   LIG    1        4.353  -4.477  -1.322  0.00  0.00    -0.510 OA
BRANCH  24  27
ATOM     27  C   LIG    1        4.884  -6.766   0.003  0.00  0.00    +0.330 C 
BRANCH  27  28
ATOM     28  C   LIG    1        6.409  -6.867  -0.071  0.00  0.00    -0.030 C 
ATOM     29  C   LIG    1        7.010  -6.241  -1.342  0.00  0.00    +0.310 C 
ATOM     30  N   LIG    1        7.899  -7.423  -1.384  0.00  0.00    -0.410 N 
ATOM     31  C   LIG    1        8.108  -7.935  -2.745  0.00  0.00    +0.310 C 
ATOM     32  H   LIG    1        8.766  -7.281  -0.888  0.00  0.00    +0.440 HD
ATOM     33  C   LIG    1        6.915  -8.215  -0.614  0.00  0.00    +0.310 C 
ENDBRANCH  27  28
ENDBRANCH  24  27
ENDBRANCH   5  23
TORSDOF 5
