REMARK  Name = ZINCpk00001AZioV.0
REMARK                            x       y       z     vdW  Elec       q    Type
REMARK                         _______ _______ _______ _____ _____    ______ ____
ROOT
ATOM      1  C   LIG    1        1.280   2.024   0.001  0.00  0.00    +0.160 C 
ATOM      2  C   LIG    1        1.233   3.416   0.671  0.00  0.00    +0.080 C 
ATOM      3  C   LIG    1        2.179   4.261  -0.219  0.00  0.00    +0.130 C 
ATOM      4  N   LIG    1        1.905   3.751  -1.587  0.00  0.00    -0.470 N 
ATOM      5  C   LIG    1        1.736   2.289  -1.446  0.00  0.00    +0.180 C 
ENDROOT
BRANCH   4   6
ATOM      6  C   LIG    1        2.949   4.051  -2.447  0.00  0.00    +0.340 A 
ATOM      7  C   LIG    1        4.245   3.615  -2.167  0.00  0.00    -0.110 A 
ATOM      8  C   LIG    1        5.252   3.939  -3.056  0.00  0.00    +0.330 A 
ATOM      9  N   LIG    1        4.957   4.646  -4.137  0.00  0.00    -0.520 NA
ATOM     10  C   LIG    1        3.722   5.042  -4.373  0.00  0.00    +0.500 A 
ATOM     11  N   LIG    1        2.731   4.752  -3.556  0.00  0.00    -0.490 NA
ENDBRANCH   4   6
BRANCH   1  13
ATOM     12  C   LIG    1        0.002  -0.004   0.002  0.00  0.00    +0.200 C 
ATOM     13  O   LIG    1       -0.017   1.425   0.010  0.00  0.00    -0.370 OA
ENDBRANCH   1  13
BRANCH   3  14
ATOM     14  C   LIG    1        1.836   5.748  -0.118  0.00  0.00    +0.290 C 
BRANCH  14  15
ATOM     15  N   LIG    1        2.585   6.492  -1.134  0.00  0.00    -0.720 N 
ATOM     16  H   LIG    1        3.185   6.023  -1.735  0.00  0.00    +0.390 HD
BRANCH  15  17
ATOM     17  C   LIG    1        2.437   7.869  -1.236  0.00  0.00    +0.330 A 
ATOM     18  C   LIG    1        3.147   8.605  -2.205  0.00  0.00    -0.290 A 
ATOM     19  C   LIG    1        4.076   8.259  -3.212  0.00  0.00    +0.260 A 
ATOM     20  N   LIG    1        4.430   9.344  -3.838  0.00  0.00    -0.250 NA
ATOM     21  N   LIG    1        3.765  10.446  -3.287  0.00  0.00    -0.390 N 
ATOM     22  C   LIG    1        3.903  11.837  -3.723  0.00  0.00    +0.360 C 
ATOM     23  C   LIG    1        2.965   9.998  -2.271  0.00  0.00    +0.350 A 
ATOM     24  N   LIG    1        2.135  10.604  -1.428  0.00  0.00    -0.550 NA
ATOM     25  C   LIG    1        1.462   9.935  -0.515  0.00  0.00    +0.370 A 
ATOM     26  C   LIG    1        1.580   8.562  -0.389  0.00  0.00    -0.170 A 
ENDBRANCH  15  17
ENDBRANCH  14  15
ENDBRANCH   3  14
TORSDOF 5
