REMARK  Name = ZINCrH00000No4Bu.0
REMARK                            x       y       z     vdW  Elec       q    Type
REMARK                         _______ _______ _______ _____ _____    ______ ____
ROOT
ATOM      1  C   LIG    1        1.204   1.940   0.001  0.00  0.00    -0.100 C 
ATOM      2  C   LIG    1        2.384   1.279  -0.014  0.00  0.00    +0.130 C 
ENDROOT
BRANCH   2   3
ATOM      3  C   LIG    1        3.646   2.031  -0.022  0.00  0.00    -0.010 A 
ATOM      4  C   LIG    1        3.629   3.431  -0.020  0.00  0.00    -0.070 A 
ATOM      5  C   LIG    1        4.818   4.135  -0.022  0.00  0.00    +0.150 A 
ATOM      6  C   LIG    1        6.033   3.453  -0.037  0.00  0.00    +0.040 A 
ATOM      7  C   LIG    1        6.054   2.060  -0.045  0.00  0.00    +0.150 A 
ATOM      8  C   LIG    1        4.869   1.349  -0.037  0.00  0.00    -0.070 A 
BRANCH   7   9
ATOM      9  O   LIG    1        7.242   1.399  -0.060  0.00  0.00    -0.300 OA
ATOM     10  C   LIG    1        7.190  -0.029  -0.068  0.00  0.00    +0.250 C 
ENDBRANCH   7   9
BRANCH   6  11
ATOM     11  O   LIG    1        7.200   4.148  -0.044  0.00  0.00    -0.310 OA
ATOM     12  C   LIG    1        7.746   4.487  -1.320  0.00  0.00    +0.230 C 
ENDBRANCH   6  11
BRANCH   5  13
ATOM     13  O   LIG    1        4.803   5.494  -0.015  0.00  0.00    -0.300 OA
ATOM     14  C   LIG    1        3.522   6.128   0.001  0.00  0.00    +0.250 C 
ENDBRANCH   5  13
ENDBRANCH   2   3
BRANCH   1  15
ATOM     15  C   LIG    1       -0.014   1.214   0.009  0.00  0.00    +0.430 C 
ATOM     16  O   LIG    1        0.002  -0.004   0.002  0.00  0.00    -0.460 OA
BRANCH  15  19
ATOM     17  C   LIG    1       -3.705   1.897   0.030  0.00  0.00    -0.130 A 
ATOM     18  C   LIG    1       -2.506   1.221   0.021  0.00  0.00    +0.150 A 
ATOM     19  C   LIG    1       -1.304   1.935   0.019  0.00  0.00    -0.200 A 
ATOM     20  C   LIG    1       -1.325   3.332   0.032  0.00  0.00    +0.100 A 
ATOM     21  C   LIG    1       -2.529   4.000   0.037  0.00  0.00    -0.080 A 
ATOM     22  C   LIG    1       -3.722   3.287   0.038  0.00  0.00    +0.160 A 
BRANCH  22  23
ATOM     23  O   LIG    1       -4.906   3.950   0.049  0.00  0.00    -0.310 OA
ATOM     24  C   LIG    1       -4.851   5.378   0.057  0.00  0.00    +0.240 C 
ENDBRANCH  22  23
BRANCH  17  25
ATOM     25  C   LIG    1       -5.001   1.129   0.033  0.00  0.00    +0.250 C 
BRANCH  25  27
ATOM     26  C   LIG    1       -5.893  -1.096   0.025  0.00  0.00    +0.200 C 
ATOM     27  O   LIG    1       -4.724  -0.273   0.024  0.00  0.00    -0.390 OA
ENDBRANCH  25  27
ENDBRANCH  17  25
ENDBRANCH  15  19
ENDBRANCH   1  15
TORSDOF 9
