REMARK  Name = ZINCpk00000e9Ngv.0
REMARK                            x       y       z     vdW  Elec       q    Type
REMARK                         _______ _______ _______ _____ _____    ______ ____
ROOT
ATOM      1  C   LIG    1       -1.264  -0.759   0.011  0.00  0.00    +0.520 C 
ATOM      2  O   LIG    1       -2.325  -0.167   0.025  0.00  0.00    -0.500 OA
ENDROOT
BRANCH   1   3
ATOM      3  C   LIG    1        0.002  -0.004   0.002  0.00  0.00    -0.120 A 
ATOM      4  C   LIG    1        1.222  -0.685  -0.013  0.00  0.00    +0.110 A 
ATOM      5  C   LIG    1        2.406   0.021  -0.022  0.00  0.00    +0.010 A 
ATOM      6  C   LIG    1        2.388   1.409  -0.014  0.00  0.00    +0.140 A 
ATOM      7  N   LIG    1        3.581   2.135  -0.024  0.00  0.00    -0.660 N 
ATOM      8  H   LIG    1        4.417   1.704  -0.260  0.00  0.00    +0.420 HD
ATOM      9  C   LIG    1        3.555   3.446   0.298  0.00  0.00    +0.490 C 
ATOM     10  C   LIG    1        2.252   4.093   0.698  0.00  0.00    +0.310 C 
ATOM     11  O   LIG    1        1.171   3.456   0.012  0.00  0.00    -0.300 OA
ATOM     12  O   LIG    1        4.575   4.101   0.267  0.00  0.00    -0.500 OA
ATOM     13  C   LIG    1        1.171   2.095   0.002  0.00  0.00    +0.060 A 
ATOM     14  C   LIG    1       -0.017   1.395   0.010  0.00  0.00    +0.120 A 
ENDBRANCH   1   3
BRANCH   1  15
ATOM     15  O   LIG    1       -1.245  -2.107   0.003  0.00  0.00    -0.330 OA
BRANCH  15  16
ATOM     16  C   LIG    1       -2.530  -2.784   0.013  0.00  0.00    +0.270 C 
BRANCH  16  19
ATOM     17  C   LIG    1       -4.729  -4.571   0.025  0.00  0.00    +0.300 C 
ATOM     18  N   LIG    1       -3.368  -5.112   0.009  0.00  0.00    -0.610 N 
ATOM     19  C   LIG    1       -2.311  -4.275   0.002  0.00  0.00    +0.520 C 
ATOM     20  O   LIG    1       -1.184  -4.723  -0.011  0.00  0.00    -0.500 OA
BRANCH  18  21
ATOM     21  C   LIG    1       -3.155  -6.561  -0.001  0.00  0.00    +0.420 C 
BRANCH  21  22
ATOM     22  C   LIG    1       -3.068  -7.066   1.416  0.00  0.00    -0.040 A 
ATOM     23  C   LIG    1       -4.102  -7.487   2.166  0.00  0.00    -0.040 A 
ATOM     24  C   LIG    1       -3.571  -7.869   3.419  0.00  0.00    -0.070 A 
ATOM     25  C   LIG    1       -2.244  -7.657   3.360  0.00  0.00    +0.170 A 
ATOM     26  O   LIG    1       -1.944  -7.176   2.143  0.00  0.00    -0.160 OA
ENDBRANCH  21  22
ENDBRANCH  18  21
ENDBRANCH  16  19
ENDBRANCH  15  16
ENDBRANCH   1  15
TORSDOF 6
