REMARK  Name = ZINCrH000004sHao.1
REMARK                            x       y       z     vdW  Elec       q    Type
REMARK                         _______ _______ _______ _____ _____    ______ ____
ROOT
ATOM      1  C   LIG    1       -5.840  -3.527   0.781  0.00  0.00    +0.150 C 
ATOM      2  C   LIG    1       -5.747  -4.582  -0.324  0.00  0.00    +0.020 C 
ATOM      3  C   LIG    1       -6.859  -5.614  -0.104  0.00  0.00    +0.030 C 
ATOM      4  C   LIG    1       -8.209  -4.939  -0.349  0.00  0.00    +0.260 C 
ATOM      5  N   LIG    1       -8.306  -3.700   0.412  0.00  0.00    -0.600 N 
ATOM      6  C   LIG    1       -7.256  -3.043   0.907  0.00  0.00    +0.530 C 
ATOM      7  O   LIG    1       -7.455  -1.998   1.490  0.00  0.00    -0.520 OA
ENDROOT
BRANCH   1   8
ATOM      8  N   LIG    1       -4.964  -2.395   0.450  0.00  0.00    -0.660 NA
ATOM      9  H   LIG    1       -4.161  -2.702  -0.077  0.00  0.00    +0.340 HD
BRANCH   8  10
ATOM     10  C   LIG    1       -4.554  -1.675   1.663  0.00  0.00    +0.270 C 
BRANCH  10  16
ATOM     11  C   LIG    1       -5.506   1.139   0.557  0.00  0.00    +0.140 C 
ATOM     12  C   LIG    1       -4.078   0.719   0.796  0.00  0.00    +0.100 A 
ATOM     13  N   LIG    1       -3.017   1.454   0.583  0.00  0.00    -0.300 NA
ATOM     14  N   LIG    1       -1.887   0.701   0.929  0.00  0.00    -0.370 N 
ATOM     15  C   LIG    1       -2.308  -0.510   1.351  0.00  0.00    +0.230 A 
ATOM     16  C   LIG    1       -3.659  -0.523   1.284  0.00  0.00    -0.230 A 
BRANCH  14  17
ATOM     17  C   LIG    1       -0.494   1.148   0.843  0.00  0.00    +0.260 C 
ATOM     18  C   LIG    1        0.307   0.545   1.999  0.00  0.00    +0.050 C 
ATOM     19  C   LIG    1        0.106   0.690  -0.487  0.00  0.00    +0.050 C 
ENDBRANCH  14  17
ENDBRANCH  10  16
ENDBRANCH   8  10
ENDBRANCH   1   8
BRANCH   5  20
ATOM     20  C   LIG    1       -9.639  -3.141   0.648  0.00  0.00    +0.280 C 
ATOM     21  C   LIG    1       -9.912  -3.091   2.152  0.00  0.00    +0.050 C 
BRANCH  20  22
ATOM     22  C   LIG    1       -9.707  -1.747   0.079  0.00  0.00    -0.130 A 
ATOM     23  C   LIG    1       -9.691  -0.654   0.924  0.00  0.00    +0.100 A 
ATOM     24  C   LIG    1       -9.754   0.625   0.402  0.00  0.00    -0.010 A 
ATOM     25  C   LIG    1       -9.834   0.812  -0.965  0.00  0.00    +0.040 A 
ATOM     26  C   LIG    1       -9.850  -0.280  -1.812  0.00  0.00    -0.030 A 
ATOM     27  C   LIG    1       -9.781  -1.561  -1.292  0.00  0.00    +0.110 A 
ATOM     28  F   LIG    1       -9.792  -2.629  -2.119  0.00  0.00    -0.140 F 
ENDBRANCH  20  22
ENDBRANCH   5  20
TORSDOF 6
