REMARK  Name = ZINCvU0000000Eb4.0
REMARK                            x       y       z     vdW  Elec       q    Type
REMARK                         _______ _______ _______ _____ _____    ______ ____
ROOT
ATOM      1  C   LIG    1        3.657  -0.757  -0.895  0.00  0.00    +0.510 C 
ATOM      2  O   LIG    1        4.674  -0.117  -0.718  0.00  0.00    -0.470 OA
ENDROOT
BRANCH   1   3
ATOM      3  C   LIG    1        2.388  -0.063  -1.170  0.00  0.00    -0.120 A 
ATOM      4  C   LIG    1        1.215  -0.795  -1.375  0.00  0.00    +0.100 A 
ATOM      5  C   LIG    1        0.031  -0.139  -1.631  0.00  0.00    +0.000 A 
ATOM      6  C   LIG    1       -0.005   1.246  -1.688  0.00  0.00    +0.070 A 
ATOM      7  C   LIG    1        1.143   1.984  -1.489  0.00  0.00    -0.020 A 
ATOM      8  C   LIG    1        2.348   1.341  -1.228  0.00  0.00    -0.060 A 
BRANCH   8   9
ATOM      9  S   LIG    1        3.816   2.280  -0.972  0.00  0.00    +0.090 S 
BRANCH   9  10
ATOM     10  C   LIG    1        3.156   3.955  -1.163  0.00  0.00    +0.030 C 
BRANCH  10  11
ATOM     11  C   LIG    1        4.266   4.957  -0.980  0.00  0.00    +0.530 C 
ATOM     12  N   LIG    1        4.007   6.276  -1.078  0.00  0.00    -0.720 N 
ATOM     13  H   LIG    1        3.105   6.580  -1.267  0.00  0.00    +0.400 HD
ATOM     14  O   LIG    1        5.393   4.577  -0.743  0.00  0.00    -0.520 OA
BRANCH  12  15
ATOM     15  C   LIG    1        5.086   7.250  -0.900  0.00  0.00    +0.230 C 
ATOM     16  C   LIG    1        5.265   7.546   0.590  0.00  0.00    +0.020 C 
ATOM     17  C   LIG    1        4.733   8.543  -1.638  0.00  0.00    +0.040 C 
ENDBRANCH  12  15
ENDBRANCH  10  11
ENDBRANCH   9  10
ENDBRANCH   8   9
ENDBRANCH   1   3
BRANCH   1  18
ATOM     18  O   LIG    1        3.690  -2.103  -0.841  0.00  0.00    -0.350 OA
BRANCH  18  19
ATOM     19  C   LIG    1        4.975  -2.720  -0.566  0.00  0.00    +0.350 C 
BRANCH  19  22
ATOM     20  C   LIG    1        5.565  -6.309  -0.321  0.00  0.00    +0.300 A 
ATOM     21  N   LIG    1        5.828  -5.039  -0.315  0.00  0.00    -0.530 NA
ATOM     22  C   LIG    1        4.818  -4.219  -0.543  0.00  0.00    +0.100 A 
ATOM     23  C   LIG    1        3.647  -4.824  -0.747  0.00  0.00    -0.100 A 
ATOM     24  S   LIG    1        3.905  -6.564  -0.640  0.00  0.00    +0.140 S 
BRANCH  20  25
ATOM     25  N   LIG    1        6.495  -7.314  -0.102  0.00  0.00    -0.630 N 
ATOM     26  H   LIG    1        7.437  -7.094  -0.020  0.00  0.00    +0.420 HD
BRANCH  25  31
ATOM     27  C   LIG    1        4.797 -12.710   0.311  0.00  0.00    +0.090 C 
ATOM     28  C   LIG    1        5.248 -11.276   0.201  0.00  0.00    -0.100 A 
ATOM     29  C   LIG    1        6.450 -10.976  -0.413  0.00  0.00    +0.040 A 
ATOM     30  C   LIG    1        6.867  -9.664  -0.515  0.00  0.00    -0.010 A 
ATOM     31  C   LIG    1        6.077  -8.644  -0.000  0.00  0.00    +0.150 A 
ATOM     32  C   LIG    1        4.872  -8.948   0.621  0.00  0.00    -0.030 A 
ATOM     33  C   LIG    1        4.459 -10.263   0.714  0.00  0.00    +0.050 A 
ENDBRANCH  25  31
ENDBRANCH  20  25
ENDBRANCH  19  22
ENDBRANCH  18  19
ENDBRANCH   1  18
TORSDOF 10
