REMARK  Name = ZINCpe000000SWRM.0
REMARK                            x       y       z     vdW  Elec       q    Type
REMARK                         _______ _______ _______ _____ _____    ______ ____
ROOT
ATOM      1  C   LIG    1       -0.753   1.593  -1.232  0.00  0.00    +0.000 C 
ENDROOT
BRANCH   1   2
ATOM      2  C   LIG    1       -0.013   1.086   0.008  0.00  0.00    +0.350 C 
BRANCH   2   6
ATOM      3  N   LIG    1       -1.240   2.859   2.927  0.00  0.00    -0.570 N 
ATOM      4  C   LIG    1       -2.054   1.785   3.019  0.00  0.00    +0.510 C 
ATOM      5  C   LIG    1       -1.688   0.906   1.861  0.00  0.00    +0.500 C 
ATOM      6  N   LIG    1       -0.698   1.558   1.213  0.00  0.00    -0.570 N 
ATOM      7  O   LIG    1       -2.177  -0.165   1.568  0.00  0.00    -0.400 OA
ATOM      8  O   LIG    1       -2.902   1.576   3.861  0.00  0.00    -0.400 OA
ATOM      9  C   LIG    1       -0.442   2.708   1.858  0.00  0.00    +0.710 C 
ATOM     10  O   LIG    1        0.403   3.511   1.516  0.00  0.00    -0.480 OA
BRANCH   3  12
ATOM     11  C   LIG    1       -2.600   4.675   3.840  0.00  0.00    +0.050 C 
ATOM     12  C   LIG    1       -1.227   4.000   3.846  0.00  0.00    +0.260 C 
ATOM     13  C   LIG    1       -0.904   3.513   5.260  0.00  0.00    +0.050 C 
ENDBRANCH   3  12
ENDBRANCH   2   6
ENDBRANCH   1   2
BRANCH   1  14
ATOM     14  C   LIG    1       -0.037   1.099  -2.490  0.00  0.00    +0.330 C 
BRANCH  14  15
ATOM     15  N   LIG    1       -0.745   1.585  -3.677  0.00  0.00    -0.580 N 
ATOM     16  C   LIG    1       -1.737   0.920  -4.296  0.00  0.00    +0.570 C 
ATOM     17  C   LIG    1       -2.199   1.726  -5.445  0.00  0.00    -0.140 A 
ATOM     18  C   LIG    1       -3.170   1.556  -6.419  0.00  0.00    +0.100 A 
ATOM     19  C   LIG    1       -3.350   2.531  -7.388  0.00  0.00    +0.050 A 
ATOM     20  C   LIG    1       -2.568   3.671  -7.389  0.00  0.00    +0.050 A 
ATOM     21  C   LIG    1       -1.592   3.854  -6.421  0.00  0.00    +0.100 A 
ATOM     22  C   LIG    1       -1.401   2.888  -5.447  0.00  0.00    -0.140 A 
ATOM     23  O   LIG    1       -2.181  -0.161  -3.965  0.00  0.00    -0.460 OA
ATOM     24  C   LIG    1       -0.485   2.751  -4.295  0.00  0.00    +0.570 C 
ATOM     25  O   LIG    1        0.360   3.557  -3.962  0.00  0.00    -0.460 OA
ENDBRANCH  14  15
ENDBRANCH   1  14
TORSDOF 5
