REMARK  Name = ZINCpe00000MAJfh.0
REMARK                            x       y       z     vdW  Elec       q    Type
REMARK                         _______ _______ _______ _____ _____    ______ ____
ROOT
ATOM      1  C   LIG    1        0.002  -0.004   0.002  0.00  0.00    +0.200 C 
ENDROOT
BRANCH   1   7
ATOM      2  C   LIG    1       -3.326  -3.356  -0.576  0.00  0.00    -0.020 C 
ATOM      3  C   LIG    1       -2.244  -4.432  -0.683  0.00  0.00    +0.050 C 
ATOM      4  C   LIG    1       -0.904  -3.777  -1.029  0.00  0.00    +0.020 C 
ATOM      5  C   LIG    1       -0.513  -2.806   0.083  0.00  0.00    +0.260 C 
ATOM      6  N   LIG    1       -1.612  -1.855   0.297  0.00  0.00    -0.610 N 
ATOM      7  C   LIG    1       -1.388  -0.527   0.259  0.00  0.00    +0.520 C 
ATOM      8  O   LIG    1       -2.305   0.248   0.432  0.00  0.00    -0.510 OA
ATOM      9  C   LIG    1       -2.961  -2.380   0.547  0.00  0.00    +0.290 C 
BRANCH   2  13
ATOM     10  N   LIG    1       -5.756  -3.245  -0.125  0.00  0.00    -0.850 N 
ATOM     11  H   LIG    1       -6.609  -3.662   0.073  0.00  0.00    +0.400 HD
ATOM     12  H   LIG    1       -5.698  -2.281  -0.221  0.00  0.00    +0.400 HD
ATOM     13  C   LIG    1       -4.652  -4.004  -0.268  0.00  0.00    +0.520 C 
ATOM     14  O   LIG    1       -4.724  -5.209  -0.149  0.00  0.00    -0.540 OA
ENDBRANCH   2  13
ENDBRANCH   1   7
BRANCH   1  15
ATOM     15  N   LIG    1       -0.018   1.465   0.010  0.00  0.00    -0.480 NA
ATOM     16  C   LIG    1       -0.632   1.996  -1.234  0.00  0.00    +0.190 C 
ATOM     17  C   LIG    1       -0.112   3.445  -1.337  0.00  0.00    +0.040 C 
ATOM     18  C   LIG    1        1.200   3.459  -0.525  0.00  0.00    +0.050 C 
ATOM     19  C   LIG    1        1.362   2.016  -0.000  0.00  0.00    +0.240 C 
BRANCH  19  20
ATOM     20  C   LIG    1        1.935   2.022   1.393  0.00  0.00    +0.180 A 
ATOM     21  N   LIG    1        1.330   2.420   2.473  0.00  0.00    -0.350 NA
ATOM     22  O   LIG    1        2.060   2.296   3.433  0.00  0.00    +0.080 OA
ATOM     23  C   LIG    1        3.240   1.801   3.045  0.00  0.00    +0.210 A 
ATOM     24  N   LIG    1        3.170   1.624   1.748  0.00  0.00    -0.480 NA
BRANCH  23  25
ATOM     25  C   LIG    1        4.423   1.504   3.929  0.00  0.00    +0.070 C 
ATOM     26  C   LIG    1        4.215   1.595   5.442  0.00  0.00    +0.060 C 
ATOM     27  C   LIG    1        5.028   2.668   4.715  0.00  0.00    +0.070 C 
ENDBRANCH  23  25
ENDBRANCH  19  20
ENDBRANCH   1  15
TORSDOF 5
