REMARK  Name = ZINCpk00000eaSjd.0
REMARK                            x       y       z     vdW  Elec       q    Type
REMARK                         _______ _______ _______ _____ _____    ______ ____
ROOT
ATOM      1  C   LIG    1        1.725   1.707  -4.968  0.00  0.00    +0.170 C 
ATOM      2  C   LIG    1        1.995   0.259  -4.650  0.00  0.00    +0.160 A 
ATOM      3  C   LIG    1        1.825  -0.354  -3.425  0.00  0.00    -0.290 A 
ATOM      4  C   LIG    1        2.200  -1.708  -3.580  0.00  0.00    +0.280 A 
ATOM      5  N   LIG    1        2.561  -1.888  -4.821  0.00  0.00    -0.280 NA
ATOM      6  N   LIG    1        2.445  -0.674  -5.508  0.00  0.00    -0.320 N 
ENDROOT
BRANCH   3   7
ATOM      7  C   LIG    1        1.347   0.285  -2.185  0.00  0.00    +0.600 C 
ATOM      8  N   LIG    1        1.814  -0.130  -0.991  0.00  0.00    -0.610 N 
ATOM      9  C   LIG    1        2.867  -1.153  -0.905  0.00  0.00    +0.280 C 
ATOM     10  C   LIG    1        3.982  -0.628   0.006  0.00  0.00    +0.170 C 
ATOM     11  N   LIG    1        3.407  -0.220   1.294  0.00  0.00    -0.530 NA
ATOM     12  C   LIG    1        2.460   0.890   1.127  0.00  0.00    +0.170 C 
ATOM     13  C   LIG    1        1.282   0.428   0.262  0.00  0.00    +0.230 C 
ATOM     14  C   LIG    1        0.375   1.620  -0.050  0.00  0.00    +0.060 C 
ATOM     15  O   LIG    1        0.533   1.186  -2.240  0.00  0.00    -0.530 OA
BRANCH  11  16
ATOM     16  C   LIG    1        4.461   0.127   2.256  0.00  0.00    +0.180 C 
BRANCH  16  17
ATOM     17  C   LIG    1        3.898   0.060   3.677  0.00  0.00    +0.170 C 
BRANCH  17  18
ATOM     18  O   LIG    1        3.518  -1.285   3.976  0.00  0.00    -0.560 OA
ATOM     19  H   LIG    1        3.152  -1.402   4.863  0.00  0.00    +0.380 HD
ENDBRANCH  17  18
ENDBRANCH  16  17
ENDBRANCH  11  16
ENDBRANCH   3   7
BRANCH   6  20
ATOM     20  C   LIG    1        2.747  -0.466  -6.861  0.00  0.00    +0.100 A 
ATOM     21  C   LIG    1        3.526   0.618  -7.241  0.00  0.00    +0.050 A 
ATOM     22  C   LIG    1        3.822   0.821  -8.575  0.00  0.00    +0.030 A 
ATOM     23  C   LIG    1        3.344  -0.054  -9.533  0.00  0.00    +0.060 A 
ATOM     24  C   LIG    1        2.567  -1.136  -9.159  0.00  0.00    +0.010 A 
ATOM     25  C   LIG    1        2.272  -1.348  -7.825  0.00  0.00    +0.120 A 
ATOM     26  F   LIG    1        1.518  -2.408  -7.460  0.00  0.00    -0.120 F 
ENDBRANCH   6  20
TORSDOF 5
