REMARK  Name = ZINCqH0000051zDx.0
REMARK                            x       y       z     vdW  Elec       q    Type
REMARK                         _______ _______ _______ _____ _____    ______ ____
ROOT
ATOM      1  C   LIG    1        3.637  -5.822  -0.063  0.00  0.00    +0.250 C 
ENDROOT
BRANCH   1   2
ATOM      2  C   LIG    1        2.842  -6.889  -0.771  0.00  0.00    -0.110 A 
ATOM      3  C   LIG    1        1.466  -6.921  -0.648  0.00  0.00    +0.090 A 
ATOM      4  C   LIG    1        0.735  -7.896  -1.301  0.00  0.00    -0.010 A 
ATOM      5  C   LIG    1        1.384  -8.847  -2.070  0.00  0.00    +0.120 A 
ATOM      6  C   LIG    1        2.763  -8.816  -2.189  0.00  0.00    -0.010 A 
ATOM      7  F   LIG    1        0.671  -9.803  -2.705  0.00  0.00    -0.130 F 
ATOM      8  C   LIG    1        3.490  -7.838  -1.539  0.00  0.00    +0.070 A 
ENDBRANCH   1   2
BRANCH   1   9
ATOM      9  C   LIG    1        3.913  -6.258   1.353  0.00  0.00    +0.510 C 
ATOM     10  N   LIG    1        4.691  -7.333   1.588  0.00  0.00    -0.690 N 
ATOM     11  H   LIG    1        5.073  -7.827   0.845  0.00  0.00    +0.400 HD
ATOM     12  O   LIG    1        3.434  -5.641   2.281  0.00  0.00    -0.510 OA
BRANCH  10  13
ATOM     13  C   LIG    1        4.959  -7.757   2.964  0.00  0.00    +0.220 C 
ATOM     14  C   LIG    1        6.395  -8.151   3.315  0.00  0.00    +0.020 C 
ATOM     15  C   LIG    1        5.315  -9.227   3.194  0.00  0.00    +0.020 C 
ENDBRANCH  10  13
ENDBRANCH   1   9
BRANCH   1  16
ATOM     16  O   LIG    1        2.880  -4.583  -0.049  0.00  0.00    -0.310 OA
BRANCH  16  18
ATOM     17  O   LIG    1        4.801  -3.467  -0.062  0.00  0.00    -0.480 OA
ATOM     18  C   LIG    1        3.586  -3.434  -0.050  0.00  0.00    +0.560 C 
BRANCH  18  19
ATOM     19  C   LIG    1        2.887  -2.143  -0.036  0.00  0.00    -0.010 A 
ATOM     20  C   LIG    1        3.491  -0.926  -0.036  0.00  0.00    +0.090 A 
ATOM     21  C   LIG    1        2.414   0.062  -0.021  0.00  0.00    -0.150 A 
ATOM     22  C   LIG    1        2.373   1.458  -0.012  0.00  0.00    +0.080 A 
ATOM     23  C   LIG    1        1.167   2.100   0.002  0.00  0.00    +0.000 A 
ATOM     24  C   LIG    1       -0.017   1.374   0.010  0.00  0.00    +0.070 A 
ATOM     25  C   LIG    1        0.002  -0.004   0.002  0.00  0.00    +0.030 A 
ATOM     26  C   LIG    1        1.217  -0.679  -0.013  0.00  0.00    +0.080 A 
ATOM     27  O   LIG    1        1.546  -1.986  -0.023  0.00  0.00    -0.170 OA
ENDBRANCH  18  19
ENDBRANCH  16  18
ENDBRANCH   1  16
TORSDOF 6
