REMARK  Name = ZINCrH00000No4Au.0
REMARK                            x       y       z     vdW  Elec       q    Type
REMARK                         _______ _______ _______ _____ _____    ______ ____
ROOT
ATOM      1  C   LIG    1        1.022  -0.206  -1.113  0.00  0.00    +0.280 C 
ENDROOT
BRANCH   1   2
ATOM      2  C   LIG    1        1.366  -1.119  -2.262  0.00  0.00    +0.190 A 
ATOM      3  N   LIG    1        1.415  -0.794  -3.531  0.00  0.00    -0.290 NA
ATOM      4  N   LIG    1        1.744  -1.846  -4.198  0.00  0.00    -0.080 NA
ATOM      5  N   LIG    1        1.906  -2.833  -3.388  0.00  0.00    -0.090 NA
ATOM      6  N   LIG    1        1.687  -2.423  -2.184  0.00  0.00    -0.280 N 
BRANCH   6   7
ATOM      7  C   LIG    1        1.769  -3.228  -0.963  0.00  0.00    +0.170 C 
ATOM      8  C   LIG    1        2.543  -2.454   0.106  0.00  0.00    +0.050 C 
ATOM      9  C   LIG    1        2.492  -4.542  -1.265  0.00  0.00    +0.070 C 
ATOM     10  C   LIG    1        0.358  -3.527  -0.454  0.00  0.00    +0.070 C 
ENDBRANCH   6   7
ENDBRANCH   1   2
BRANCH   1  11
ATOM     11  C   LIG    1        0.734   1.199  -1.646  0.00  0.00    -0.070 C 
ATOM     12  C   LIG    1        0.236   2.085  -0.502  0.00  0.00    +0.050 C 
ATOM     13  C   LIG    1       -0.339   1.121  -2.734  0.00  0.00    +0.030 C 
BRANCH  11  14
ATOM     14  C   LIG    1        2.014   1.794  -2.233  0.00  0.00    +0.050 C 
BRANCH  14  15
ATOM     15  C   LIG    1        1.750   3.235  -2.676  0.00  0.00    +0.190 C 
BRANCH  15  16
ATOM     16  C   LIG    1        2.982   3.808  -3.242  0.00  0.00    +0.200 C 
ATOM     17  N   LIG    1        3.933   4.251  -3.679  0.00  0.00    -0.430 NA
ENDBRANCH  15  16
ENDBRANCH  14  15
ENDBRANCH  11  14
ENDBRANCH   1  11
BRANCH   1  18
ATOM     18  N   LIG    1       -0.165  -0.720  -0.418  0.00  0.00    -0.510 NA
ATOM     19  C   LIG    1       -1.378  -0.506  -1.219  0.00  0.00    +0.210 C 
BRANCH  18  20
ATOM     20  C   LIG    1       -0.300  -0.114   0.913  0.00  0.00    +0.230 C 
ATOM     21  C   LIG    1        0.972  -0.374   1.723  0.00  0.00    +0.050 C 
BRANCH  20  25
ATOM     22  C   LIG    1       -4.263  -0.959   3.993  0.00  0.00    +0.180 C 
ATOM     23  C   LIG    1       -3.177  -1.065   2.954  0.00  0.00    -0.030 A 
ATOM     24  C   LIG    1       -2.241  -0.131   2.661  0.00  0.00    -0.060 A 
ATOM     25  C   LIG    1       -1.481  -0.721   1.625  0.00  0.00    +0.020 A 
ATOM     26  N   LIG    1       -2.001  -1.895   1.412  0.00  0.00    -0.340 NA
ATOM     27  O   LIG    1       -2.943  -2.104   2.140  0.00  0.00    +0.100 OA
ENDBRANCH  20  25
ENDBRANCH  18  20
ENDBRANCH   1  18
TORSDOF 9
