REMARK  Name = ZINCrD000000C1wW.0
REMARK                            x       y       z     vdW  Elec       q    Type
REMARK                         _______ _______ _______ _____ _____    ______ ____
ROOT
ATOM      1  O   LIG    1        5.787  -3.248  -2.856  0.00  0.00    -0.510 OA
ATOM      2  C   LIG    1        6.407  -2.749  -1.941  0.00  0.00    +0.530 C 
ATOM      3  N   LIG    1        7.608  -3.250  -1.589  0.00  0.00    -0.670 N 
ATOM      4  H   LIG    1        8.139  -2.806  -0.910  0.00  0.00    +0.410 HD
ENDROOT
BRANCH   2   5
ATOM      5  C   LIG    1        5.836  -1.569  -1.198  0.00  0.00    +0.000 C 
ATOM      6  C   LIG    1        6.670  -0.294  -1.461  0.00  0.00    +0.070 C 
ATOM      7  C   LIG    1        5.642   0.815  -1.531  0.00  0.00    +0.520 C 
ATOM      8  N   LIG    1        4.413   0.295  -1.694  0.00  0.00    -0.620 N 
ATOM      9  O   LIG    1        5.891   1.999  -1.450  0.00  0.00    -0.520 OA
ATOM     10  C   LIG    1        4.458  -1.169  -1.770  0.00  0.00    +0.300 C 
BRANCH   8  11
ATOM     11  C   LIG    1        3.186   1.090  -1.788  0.00  0.00    +0.300 C 
BRANCH  11  12
ATOM     12  C   LIG    1        2.597   1.287  -0.390  0.00  0.00    +0.060 C 
BRANCH  12  13
ATOM     13  C   LIG    1        1.334   2.104  -0.487  0.00  0.00    -0.090 A 
ATOM     14  C   LIG    1        0.115   1.476  -0.660  0.00  0.00    +0.000 A 
ATOM     15  C   LIG    1       -1.042   2.226  -0.754  0.00  0.00    +0.000 A 
ATOM     16  C   LIG    1       -0.981   3.604  -0.665  0.00  0.00    +0.000 A 
ATOM     17  C   LIG    1        0.238   4.233  -0.492  0.00  0.00    +0.000 A 
ATOM     18  C   LIG    1        1.396   3.483  -0.403  0.00  0.00    +0.010 A 
ENDBRANCH  12  13
ENDBRANCH  11  12
ENDBRANCH   8  11
ENDBRANCH   2   5
BRANCH   3  19
ATOM     19  C   LIG    1        8.090  -4.413  -2.205  0.00  0.00    +0.120 A 
ATOM     20  C   LIG    1        7.205  -5.408  -2.599  0.00  0.00    +0.060 A 
ATOM     21  C   LIG    1        7.679  -6.552  -3.209  0.00  0.00    -0.030 A 
ATOM     22  C   LIG    1        9.041  -6.712  -3.420  0.00  0.00    +0.090 A 
ATOM     23  C   LIG    1        9.926  -5.720  -3.023  0.00  0.00    +0.030 A 
ATOM     24  C   LIG    1        9.453  -4.574  -2.417  0.00  0.00    +0.030 A 
BRANCH  22  25
ATOM     25  O   LIG    1        9.508  -7.841  -4.017  0.00  0.00    -0.320 OA
BRANCH  25  26
ATOM     26  C   LIG    1        8.541  -8.820  -4.400  0.00  0.00    +0.590 C 
ATOM     27  F   LIG    1        7.644  -8.257  -5.313  0.00  0.00    -0.200 F 
ATOM     28  F   LIG    1        7.843  -9.254  -3.268  0.00  0.00    -0.200 F 
ENDBRANCH  25  26
ENDBRANCH  22  25
ENDBRANCH   3  19
TORSDOF 7
