REMARK  Name = ZINC660000003YUe.0
REMARK                            x       y       z     vdW  Elec       q    Type
REMARK                         _______ _______ _______ _____ _____    ______ ____
ROOT
ATOM      1  C   LIG    1       -0.505   3.960  -2.006  0.00  0.00    +0.060 C 
ATOM      2  C   LIG    1       -0.022   2.938  -1.342  0.00  0.00    -0.160 C 
ATOM      3  C   LIG    1       -0.608   1.537  -1.247  0.00  0.00    +0.210 C 
ATOM      4  N   LIG    1       -0.012   1.005   0.008  0.00  0.00    -0.480 NA
ATOM      5  H   LIG    1        0.002  -0.004   0.002  0.00  0.00    +0.360 HD
ATOM      6  O   LIG    1        1.361   1.553  -0.003  0.00  0.00    -0.250 OA
ATOM      7  C   LIG    1        1.240   2.898  -0.502  0.00  0.00    +0.260 C 
ENDROOT
TORSDOF 0
