REMARK  Name = ZINCrg00000bvCal.0
REMARK                            x       y       z     vdW  Elec       q    Type
REMARK                         _______ _______ _______ _____ _____    ______ ____
ROOT
ATOM      1  C   LIG    1        4.227  -1.114  -2.472  0.00  0.00    +0.520 C 
ATOM      2  N   LIG    1        3.644  -0.079  -1.836  0.00  0.00    -0.610 N 
ATOM      3  C   LIG    1        4.268   0.514  -0.644  0.00  0.00    +0.270 C 
ATOM      4  C   LIG    1        3.242   0.528   0.493  0.00  0.00    +0.030 C 
ATOM      5  C   LIG    1        1.975   1.246   0.025  0.00  0.00    -0.020 C 
ATOM      6  C   LIG    1        1.370   0.493  -1.163  0.00  0.00    +0.230 C 
ATOM      7  C   LIG    1        0.961   1.292   1.169  0.00  0.00    +0.030 C 
ATOM      8  C   LIG    1        2.374   0.479  -2.319  0.00  0.00    +0.270 C 
ATOM      9  O   LIG    1        3.663  -1.647  -3.404  0.00  0.00    -0.500 OA
ENDROOT
BRANCH   6  10
ATOM     10  N   LIG    1        0.140   1.163  -1.591  0.00  0.00    -0.720 N 
ATOM     11  H   LIG    1        0.013   2.107  -1.409  0.00  0.00    +0.400 HD
ATOM     12  C   LIG    1       -0.816   0.468  -2.240  0.00  0.00    +0.500 C 
ATOM     13  O   LIG    1       -0.657  -0.712  -2.468  0.00  0.00    -0.510 OA
BRANCH  12  14
ATOM     14  C   LIG    1       -2.079   1.159  -2.686  0.00  0.00    +0.230 C 
ATOM     15  C   LIG    1       -3.085   1.241  -1.517  0.00  0.00    +0.070 C 
ATOM     16  C   LIG    1       -3.936  -0.030  -1.745  0.00  0.00    +0.060 C 
ATOM     17  C   LIG    1       -3.793  -0.313  -3.224  0.00  0.00    +0.530 C 
ATOM     18  O   LIG    1       -4.514  -1.048  -3.864  0.00  0.00    -0.520 OA
ATOM     19  N   LIG    1       -2.749   0.370  -3.726  0.00  0.00    -0.710 N 
ATOM     20  H   LIG    1       -2.474   0.344  -4.656  0.00  0.00    +0.420 HD
ENDBRANCH  12  14
ENDBRANCH   6  10
BRANCH   1  22
ATOM     21  C   LIG    1        6.637  -0.547  -2.332  0.00  0.00    +0.060 C 
ATOM     22  C   LIG    1        5.579  -1.609  -2.026  0.00  0.00    +0.170 C 
BRANCH  22  23
ATOM     23  O   LIG    1        5.898  -2.814  -2.723  0.00  0.00    -0.290 OA
BRANCH  23  24
ATOM     24  C   LIG    1        6.768  -3.665  -2.117  0.00  0.00    +0.130 A 
ATOM     25  C   LIG    1        7.032  -4.905  -2.680  0.00  0.00    -0.020 A 
ATOM     26  C   LIG    1        7.921  -5.766  -2.065  0.00  0.00    +0.050 A 
ATOM     27  C   LIG    1        8.539  -5.396  -0.885  0.00  0.00    -0.030 A 
ATOM     28  C   LIG    1        8.273  -4.163  -0.319  0.00  0.00    +0.050 A 
ATOM     29  C   LIG    1        7.389  -3.297  -0.933  0.00  0.00    -0.080 A 
ENDBRANCH  23  24
ENDBRANCH  22  23
ENDBRANCH   1  22
TORSDOF 5
