REMARK  Name = ZINCrg000000tA5d.0
REMARK                            x       y       z     vdW  Elec       q    Type
REMARK                         _______ _______ _______ _____ _____    ______ ____
ROOT
ATOM      1  N   LIG    1        3.803  -0.784   0.002  0.00  0.00    -0.520 N 
ATOM      2  H   LIG    1        3.640  -1.222  -0.848  0.00  0.00    +0.430 HD
ATOM      3  C   LIG    1        3.108   0.322   0.335  0.00  0.00    +0.500 C 
ATOM      4  O   LIG    1        3.312   0.869   1.399  0.00  0.00    -0.520 OA
ENDROOT
BRANCH   3   5
ATOM      5  C   LIG    1        2.077   0.878  -0.613  0.00  0.00    +0.250 C 
ATOM      6  C   LIG    1        0.713   0.204  -0.360  0.00  0.00    +0.070 C 
ATOM      7  C   LIG    1       -0.014   1.224   0.556  0.00  0.00    +0.040 C 
ATOM      8  C   LIG    1        0.497   2.571  -0.011  0.00  0.00    +0.280 C 
ATOM      9  N   LIG    1        1.904   2.318  -0.374  0.00  0.00    -0.990 NA
BRANCH   9  10
ATOM     10  S   LIG    1        3.091   3.467  -0.492  0.00  0.00    +2.710 S 
ATOM     11  O   LIG    1        4.328   2.778  -0.372  0.00  0.00    -0.940 OA
ATOM     12  O   LIG    1        2.707   4.531   0.367  0.00  0.00    -0.940 OA
BRANCH  10  13
ATOM     13  C   LIG    1        3.035   4.107  -2.133  0.00  0.00    -0.680 A 
ATOM     14  C   LIG    1        3.749   3.486  -3.142  0.00  0.00    +0.120 A 
ATOM     15  C   LIG    1        3.703   3.986  -4.430  0.00  0.00    -0.010 A 
ATOM     16  C   LIG    1        2.949   5.111  -4.708  0.00  0.00    +0.070 A 
ATOM     17  C   LIG    1        2.239   5.734  -3.698  0.00  0.00    +0.000 A 
ATOM     18  C   LIG    1        2.283   5.232  -2.411  0.00  0.00    +0.120 A 
ENDBRANCH  10  13
ENDBRANCH   9  10
ENDBRANCH   3   5
BRANCH   1  21
ATOM     19  O   LIG    1        5.251  -2.956  -0.515  0.00  0.00    -0.520 OA
ATOM     20  C   LIG    1        5.455  -2.407   0.551  0.00  0.00    +0.560 C 
ATOM     21  N   LIG    1        4.761  -1.302   0.884  0.00  0.00    -0.520 N 
ATOM     22  H   LIG    1        4.923  -0.864   1.734  0.00  0.00    +0.430 HD
BRANCH  20  23
ATOM     23  C   LIG    1        6.464  -2.952   1.480  0.00  0.00    -0.160 A 
ATOM     24  C   LIG    1        6.706  -2.322   2.702  0.00  0.00    +0.060 A 
ATOM     25  C   LIG    1        7.646  -2.839   3.568  0.00  0.00    +0.010 A 
ATOM     26  C   LIG    1        8.361  -3.975   3.226  0.00  0.00    +0.070 A 
ATOM     27  C   LIG    1        8.135  -4.605   2.017  0.00  0.00    -0.020 A 
ATOM     28  C   LIG    1        7.189  -4.102   1.137  0.00  0.00    +0.180 A 
BRANCH  28  29
ATOM     29  O   LIG    1        6.966  -4.720  -0.050  0.00  0.00    -0.480 OA
ATOM     30  H   LIG    1        7.521  -4.396  -0.772  0.00  0.00    +0.400 HD
ENDBRANCH  28  29
ENDBRANCH  20  23
ENDBRANCH   1  21
TORSDOF 6
