REMARK  Name = ZINCpe00000J6cSm.0
REMARK                            x       y       z     vdW  Elec       q    Type
REMARK                         _______ _______ _______ _____ _____    ______ ____
ROOT
ATOM      1  C   LIG    1        0.394   1.294  -4.822  0.00  0.00    +0.110 C 
ENDROOT
BRANCH   1   2
ATOM      2  C   LIG    1       -0.218   1.797  -3.539  0.00  0.00    +0.480 C 
ATOM      3  O   LIG    1       -0.769   2.872  -3.514  0.00  0.00    -0.490 OA
BRANCH   2   4
ATOM      4  O   LIG    1       -0.150   1.050  -2.426  0.00  0.00    -0.330 OA
BRANCH   4   9
ATOM      5  O   LIG    1       -2.785   0.947   2.235  0.00  0.00    -0.490 OA
ATOM      6  C   LIG    1       -2.181   1.145   1.202  0.00  0.00    +0.520 C 
ATOM      7  C   LIG    1       -0.737   1.584   1.263  0.00  0.00    +0.110 C 
ATOM      8  C   LIG    1       -0.013   1.086   0.008  0.00  0.00    +0.090 C 
ATOM      9  C   LIG    1       -0.761   1.597  -1.228  0.00  0.00    +0.200 C 
ATOM     10  C   LIG    1       -2.200   1.158  -1.151  0.00  0.00    +0.510 C 
ATOM     11  O   LIG    1       -2.820   0.972  -2.176  0.00  0.00    -0.480 OA
ATOM     12  N   LIG    1       -2.808   0.968   0.029  0.00  0.00    -0.670 N 
ATOM     13  H   LIG    1       -3.738   0.693   0.035  0.00  0.00    +0.420 HD
ENDBRANCH   4   9
ENDBRANCH   2   4
ENDBRANCH   1   2
BRANCH   1  14
ATOM     14  C   LIG    1        0.179   2.328  -5.929  0.00  0.00    +0.330 C 
BRANCH  14  15
ATOM     15  N   LIG    1        0.774   1.840  -7.175  0.00  0.00    -0.550 N 
ATOM     16  C   LIG    1        2.068   2.138  -7.466  0.00  0.00    +0.590 A 
ATOM     17  N   LIG    1        2.667   1.738  -8.546  0.00  0.00    -0.520 NA
ATOM     18  C   LIG    1        2.027   0.991  -9.480  0.00  0.00    +0.170 A 
ATOM     19  C   LIG    1        2.670   0.567 -10.644  0.00  0.00    +0.050 A 
ATOM     20  C   LIG    1        1.981  -0.190 -11.566  0.00  0.00    +0.100 A 
ATOM     21  C   LIG    1        0.653  -0.536 -11.353  0.00  0.00    -0.110 A 
ATOM     22  C   LIG    1       -0.003  -0.129 -10.211  0.00  0.00    +0.140 A 
ATOM     23 BR   LIG    1       -0.263  -1.575 -12.640  0.00  0.00    -0.030 Br
ATOM     24  C   LIG    1        0.676   0.637  -9.266  0.00  0.00    -0.190 A 
ATOM     25  C   LIG    1        0.029   1.101  -8.030  0.00  0.00    +0.550 A 
ATOM     26  O   LIG    1       -1.133   0.831  -7.784  0.00  0.00    -0.490 OA
ENDBRANCH  14  15
ENDBRANCH   1  14
TORSDOF 5
