REMARK  Name = ZINCtV000002M6RK.0
REMARK                            x       y       z     vdW  Elec       q    Type
REMARK                         _______ _______ _______ _____ _____    ______ ____
ROOT
ATOM      1  O   LIG    1       -1.760   2.282  -3.587  0.00  0.00    -0.520 OA
ATOM      2  C   LIG    1       -0.765   1.598  -3.711  0.00  0.00    +0.530 C 
ATOM      3  N   LIG    1       -0.312   1.286  -4.941  0.00  0.00    -0.620 N 
ATOM      4  C   LIG    1        0.878   0.467  -5.236  0.00  0.00    +0.260 C 
ATOM      5  C   LIG    1        1.318   0.905  -6.655  0.00  0.00    +0.040 C 
ATOM      6  C   LIG    1       -0.050   1.135  -7.349  0.00  0.00    +0.060 C 
ATOM      7  C   LIG    1       -0.927   1.699  -6.212  0.00  0.00    +0.320 C 
ENDROOT
BRANCH   7   8
ATOM      8  C   LIG    1       -2.323   1.141  -6.311  0.00  0.00    +0.090 A 
ATOM      9  N   LIG    1       -3.341   1.812  -6.698  0.00  0.00    -0.450 NA
ATOM     10  C   LIG    1       -4.531   1.184  -6.738  0.00  0.00    +0.080 A 
ATOM     11  C   LIG    1       -5.796   1.675  -7.119  0.00  0.00    +0.080 A 
ATOM     12  C   LIG    1       -6.889   0.862  -7.088  0.00  0.00    +0.030 A 
ATOM     13  C   LIG    1       -6.779  -0.460  -6.683  0.00  0.00    +0.040 A 
ATOM     14  C   LIG    1       -5.556  -0.967  -6.306  0.00  0.00    +0.060 A 
ATOM     15  C   LIG    1       -4.428  -0.151  -6.330  0.00  0.00    -0.180 A 
ATOM     16  S   LIG    1       -2.743  -0.469  -5.929  0.00  0.00    +0.100 S 
ENDBRANCH   7   8
BRANCH   2  17
ATOM     17  C   LIG    1       -0.037   1.099  -2.490  0.00  0.00    +0.070 C 
BRANCH  17  18
ATOM     18  C   LIG    1       -0.753   1.593  -1.232  0.00  0.00    +0.070 C 
BRANCH  18  19
ATOM     19  C   LIG    1       -0.013   1.086   0.008  0.00  0.00    +0.090 C 
BRANCH  19  20
ATOM     20  S   LIG    1       -0.860   1.669   1.497  0.00  0.00    +0.010 S 
BRANCH  20  21
ATOM     21  C   LIG    1        0.174   0.961   2.735  0.00  0.00    +0.090 A 
ATOM     22  N   LIG    1        1.216   0.238   2.499  0.00  0.00    -0.470 NA
ATOM     23  C   LIG    1        1.910  -0.231   3.555  0.00  0.00    +0.090 A 
ATOM     24  C   LIG    1        3.072  -1.031   3.563  0.00  0.00    +0.070 A 
ATOM     25  C   LIG    1        3.640  -1.420   4.750  0.00  0.00    +0.040 A 
ATOM     26  C   LIG    1        3.081  -1.035   5.960  0.00  0.00    +0.040 A 
ATOM     27  C   LIG    1        1.946  -0.254   5.976  0.00  0.00    +0.060 A 
ATOM     28  C   LIG    1        1.357   0.150   4.782  0.00  0.00    -0.180 A 
ATOM     29  S   LIG    1       -0.072   1.132   4.468  0.00  0.00    +0.110 S 
ENDBRANCH  20  21
ENDBRANCH  19  20
ENDBRANCH  18  19
ENDBRANCH  17  18
ENDBRANCH   2  17
TORSDOF 6
