REMARK  Name = ZINCrD000000fIr8.0
REMARK                            x       y       z     vdW  Elec       q    Type
REMARK                         _______ _______ _______ _____ _____    ______ ____
ROOT
ATOM      1  C   LIG    1        2.966  -1.838   0.125  0.00  0.00    +0.160 A 
ATOM      2  C   LIG    1        4.307  -1.552  -0.091  0.00  0.00    +0.030 A 
ATOM      3  C   LIG    1        4.732  -0.233  -0.188  0.00  0.00    +0.160 A 
ATOM      4  C   LIG    1        3.818   0.802  -0.068  0.00  0.00    +0.040 A 
ATOM      5  C   LIG    1        2.469   0.518   0.150  0.00  0.00    -0.100 A 
ATOM      6  C   LIG    1        2.047  -0.808   0.252  0.00  0.00    +0.040 A 
ENDROOT
BRANCH   1   9
ATOM      7  C   LIG    1        0.816  -4.925  -0.011  0.00  0.00    +0.110 C 
ATOM      8  C   LIG    1        1.319  -3.520  -0.223  0.00  0.00    +0.510 C 
ATOM      9  N   LIG    1        2.542  -3.168   0.221  0.00  0.00    -0.670 N 
ATOM     10  H   LIG    1        3.129  -3.838   0.607  0.00  0.00    +0.420 HD
ATOM     11  O   LIG    1        0.624  -2.706  -0.792  0.00  0.00    -0.530 OA
ENDBRANCH   1   9
BRANCH   3  12
ATOM     12  N   LIG    1        6.085   0.051  -0.406  0.00  0.00    -0.670 N 
ATOM     13  H   LIG    1        6.339   0.823  -0.935  0.00  0.00    +0.420 HD
ATOM     14  C   LIG    1        7.035  -0.748   0.120  0.00  0.00    +0.510 C 
ATOM     15  O   LIG    1        6.721  -1.661   0.854  0.00  0.00    -0.530 OA
ATOM     16  C   LIG    1        8.486  -0.507  -0.205  0.00  0.00    +0.110 C 
ENDBRANCH   3  12
BRANCH   5  17
ATOM     17  C   LIG    1        1.491   1.619   0.278  0.00  0.00    +0.570 C 
ATOM     18  N   LIG    1        0.189   1.343   0.488  0.00  0.00    -0.660 N 
ATOM     19  H   LIG    1       -0.120   0.423   0.477  0.00  0.00    +0.420 HD
ATOM     20  O   LIG    1        1.861   2.774   0.194  0.00  0.00    -0.510 OA
BRANCH  18  21
ATOM     21  C   LIG    1       -0.720   2.383   0.716  0.00  0.00    +0.150 A 
ATOM     22  C   LIG    1       -2.030   2.274   0.256  0.00  0.00    +0.040 A 
ATOM     23  C   LIG    1       -2.933   3.291   0.474  0.00  0.00    +0.070 A 
ATOM     24  C   LIG    1       -2.540   4.433   1.156  0.00  0.00    -0.010 A 
ATOM     25  O   LIG    1       -3.171   5.572   1.518  0.00  0.00    -0.210 OA
ATOM     26  C   LIG    1       -2.292   6.348   2.171  0.00  0.00    +0.250 A 
ATOM     27  N   LIG    1       -1.137   5.760   2.242  0.00  0.00    -0.480 NA
ATOM     28  C   LIG    1       -2.603   7.708   2.742  0.00  0.00    +0.230 C 
ATOM     29  C   LIG    1       -1.222   4.551   1.623  0.00  0.00    +0.040 A 
ATOM     30  C   LIG    1       -0.314   3.514   1.402  0.00  0.00    +0.080 A 
ENDBRANCH  18  21
ENDBRANCH   5  17
TORSDOF 4
