REMARK  Name = ZINCrg00000cbej2.0
REMARK                            x       y       z     vdW  Elec       q    Type
REMARK                         _______ _______ _______ _____ _____    ______ ____
ROOT
ATOM      1  C   LIG    1       -5.256   0.957   3.579  0.00  0.00    -0.060 C 
ATOM      2  C   LIG    1       -6.568   0.832   2.913  0.00  0.00    +0.200 C 
ATOM      3  O   LIG    1       -6.501   0.939   1.492  0.00  0.00    -0.360 OA
ATOM      4  C   LIG    1       -6.259  -0.286   0.848  0.00  0.00    +0.210 C 
ATOM      5  C   LIG    1       -4.748  -0.445   0.574  0.00  0.00    +0.250 C 
ATOM      6  N   LIG    1       -3.953   0.064   1.716  0.00  0.00    -0.600 N 
ATOM      7  C   LIG    1       -2.841   0.780   1.457  0.00  0.00    +0.500 C 
ATOM      8  O   LIG    1       -2.169   1.209   2.372  0.00  0.00    -0.520 OA
ATOM      9  C   LIG    1       -4.312  -0.178   3.094  0.00  0.00    +0.290 C 
ENDROOT
BRANCH   1  10
ATOM     10  C   LIG    1       -5.442   0.849   5.094  0.00  0.00    +0.290 C 
BRANCH  10  13
ATOM     11  O   LIG    1       -6.129   1.263   7.669  0.00  0.00    -0.530 OA
ATOM     12  C   LIG    1       -6.521   2.104   6.882  0.00  0.00    +0.580 C 
ATOM     13  N   LIG    1       -6.230   1.988   5.571  0.00  0.00    -0.730 N 
ATOM     14  H   LIG    1       -6.542   2.659   4.944  0.00  0.00    +0.400 HD
BRANCH  12  15
ATOM     15  C   LIG    1       -7.312   3.249   7.362  0.00  0.00    -0.150 A 
ATOM     16  C   LIG    1       -7.785   4.228   6.546  0.00  0.00    -0.030 A 
ATOM     17  S   LIG    1       -8.657   5.391   7.436  0.00  0.00    +0.250 S 
ATOM     18  C   LIG    1       -8.385   4.547   8.950  0.00  0.00    -0.170 A 
ATOM     19 CL   LIG    1       -8.971   5.075  10.496  0.00  0.00    -0.000 Cl
ATOM     20  C   LIG    1       -7.672   3.444   8.748  0.00  0.00    +0.090 A 
ENDBRANCH  12  15
ENDBRANCH  10  13
ENDBRANCH   1  10
BRANCH   7  21
ATOM     21  C   LIG    1       -2.432   1.047   0.032  0.00  0.00    +0.340 C 
BRANCH  21  22
ATOM     22  N   LIG    1       -1.200   1.840   0.018  0.00  0.00    -0.610 N 
ATOM     23  C   LIG    1       -1.287   3.301   0.020  0.00  0.00    +0.270 C 
ATOM     24  C   LIG    1       -0.044   3.881   0.703  0.00  0.00    +0.030 C 
ATOM     25  C   LIG    1        1.201   3.335  -0.004  0.00  0.00    +0.260 C 
ATOM     26  N   LIG    1        1.153   1.872   0.001  0.00  0.00    -0.740 N 
ATOM     27  H   LIG    1        1.983   1.369  -0.001  0.00  0.00    +0.420 HD
ATOM     28  C   LIG    1       -0.014   1.212   0.009  0.00  0.00    +0.720 C 
ATOM     29  O   LIG    1        0.002  -0.004   0.002  0.00  0.00    -0.600 OA
ENDBRANCH  21  22
ENDBRANCH   7  21
TORSDOF 5
