REMARK  Name = ZINCpk00000e9nbI.1
REMARK                            x       y       z     vdW  Elec       q    Type
REMARK                         _______ _______ _______ _____ _____    ______ ____
ROOT
ATOM      1  N   LIG    1        0.046  -3.738  -0.837  0.00  0.00    -0.630 N 
ATOM      2  H   LIG    1        0.040  -3.941  -1.785  0.00  0.00    +0.430 HD
ATOM      3  C   LIG    1        0.068  -4.737   0.068  0.00  0.00    +0.510 C 
ATOM      4  O   LIG    1        0.074  -4.482   1.253  0.00  0.00    -0.450 OA
ENDROOT
BRANCH   1   8
ATOM      5  C   LIG    1        0.002  -0.004   0.002  0.00  0.00    +0.010 A 
ATOM      6  N   LIG    1        0.022  -0.774   1.044  0.00  0.00    -0.210 NA
ATOM      7  N   LIG    1        0.037  -2.017   0.827  0.00  0.00    -0.270 NA
ATOM      8  C   LIG    1        0.031  -2.414  -0.410  0.00  0.00    +0.230 A 
ATOM      9  S   LIG    1       -0.004  -1.037  -1.428  0.00  0.00    +0.140 S 
BRANCH   5  10
ATOM     10  C   LIG    1       -0.018   1.503   0.010  0.00  0.00    +0.260 C 
BRANCH  10  11
ATOM     11  C   LIG    1        1.395   2.024  -0.000  0.00  0.00    +0.470 C 
ATOM     12  O   LIG    1        2.324   1.252  -0.013  0.00  0.00    -0.500 OA
BRANCH  11  13
ATOM     13  O   LIG    1        1.623   3.347   0.004  0.00  0.00    -0.350 OA
BRANCH  13  15
ATOM     14  C   LIG    1        3.069   5.307   0.001  0.00  0.00    +0.070 C 
ATOM     15  C   LIG    1        3.009   3.778  -0.006  0.00  0.00    +0.200 C 
ENDBRANCH  13  15
ENDBRANCH  11  13
ENDBRANCH  10  11
ENDBRANCH   5  10
ENDBRANCH   1   8
BRANCH   3  16
ATOM     16  C   LIG    1        0.083  -6.171  -0.395  0.00  0.00    +0.070 C 
BRANCH  16  17
ATOM     17  C   LIG    1        0.107  -7.099   0.821  0.00  0.00    +0.290 C 
BRANCH  17  18
ATOM     18  N   LIG    1        0.122  -8.493   0.372  0.00  0.00    -0.730 N 
ATOM     19  H   LIG    1        0.117  -8.697  -0.577  0.00  0.00    +0.400 HD
ATOM     20  C   LIG    1        0.144  -9.493   1.276  0.00  0.00    +0.560 C 
ATOM     21  O   LIG    1        0.151  -9.237   2.464  0.00  0.00    -0.530 OA
BRANCH  20  22
ATOM     22  C   LIG    1        0.159 -10.900   0.822  0.00  0.00    -0.140 A 
ATOM     23  C   LIG    1        0.146 -11.197  -0.542  0.00  0.00    +0.030 A 
ATOM     24  C   LIG    1        0.166 -12.511  -0.958  0.00  0.00    +0.000 A 
ATOM     25  C   LIG    1        0.188 -13.535  -0.028  0.00  0.00    +0.040 A 
ATOM     26  C   LIG    1        0.196 -13.248   1.326  0.00  0.00    +0.000 A 
ATOM     27  C   LIG    1        0.182 -11.937   1.756  0.00  0.00    +0.080 A 
ENDBRANCH  20  22
ENDBRANCH  17  18
ENDBRANCH  16  17
ENDBRANCH   3  16
TORSDOF 9
