REMARK  Name = ZINCrH000004steg.0
REMARK                            x       y       z     vdW  Elec       q    Type
REMARK                         _______ _______ _______ _____ _____    ______ ____
ROOT
ATOM      1  C   LIG    1        2.422   3.962  -0.163  0.00  0.00    +0.560 C 
ATOM      2  N   LIG    1        2.386   5.298   0.007  0.00  0.00    -0.670 N 
ATOM      3  H   LIG    1        1.534   5.758   0.062  0.00  0.00    +0.410 HD
ATOM      4  O   LIG    1        3.487   3.398  -0.328  0.00  0.00    -0.500 OA
ENDROOT
BRANCH   2   5
ATOM      5  C   LIG    1        3.580   6.024   0.106  0.00  0.00    +0.130 A 
ATOM      6  C   LIG    1        3.652   7.319  -0.389  0.00  0.00    +0.030 A 
ATOM      7  C   LIG    1        4.826   8.036  -0.293  0.00  0.00    +0.010 A 
ATOM      8  C   LIG    1        5.950   7.465   0.301  0.00  0.00    +0.130 A 
ATOM      9  N   LIG    1        7.231   7.981   0.512  0.00  0.00    -0.660 N 
ATOM     10  H   LIG    1        7.506   8.873   0.246  0.00  0.00    +0.410 HD
ATOM     11  C   LIG    1        8.038   7.101   1.128  0.00  0.00    +0.530 C 
ATOM     12  C   LIG    1        7.229   5.844   1.366  0.00  0.00    +0.140 C 
ATOM     13  O   LIG    1        9.198   7.280   1.434  0.00  0.00    -0.500 OA
ATOM     14  C   LIG    1        5.868   6.168   0.793  0.00  0.00    -0.120 A 
ATOM     15  C   LIG    1        4.697   5.452   0.704  0.00  0.00    +0.070 A 
ENDBRANCH   2   5
BRANCH   1  21
ATOM     16  C   LIG    1        1.202   1.793  -0.328  0.00  0.00    +0.200 A 
ATOM     17  C   LIG    1        0.018   1.071  -0.313  0.00  0.00    -0.080 A 
ATOM     18  C   LIG    1       -1.187   1.720  -0.131  0.00  0.00    +0.090 A 
ATOM     19  C   LIG    1       -1.223   3.093   0.050  0.00  0.00    -0.030 A 
ATOM     20  C   LIG    1       -0.056   3.826   0.038  0.00  0.00    +0.080 A 
ATOM     21  C   LIG    1        1.169   3.183  -0.151  0.00  0.00    -0.180 A 
BRANCH  16  22
ATOM     22  O   LIG    1        2.386   1.157  -0.512  0.00  0.00    -0.280 OA
BRANCH  22  23
ATOM     23  C   LIG    1        2.341  -0.261  -0.685  0.00  0.00    +0.320 C 
BRANCH  23  27
ATOM     24  C   LIG    1        5.733  -3.806  -1.429  0.00  0.00    +0.180 C 
ATOM     25  C   LIG    1        5.238  -2.400  -1.209  0.00  0.00    +0.050 A 
ATOM     26  N   LIG    1        4.000  -2.067  -1.058  0.00  0.00    -0.470 NA
ATOM     27  C   LIG    1        3.740  -0.789  -0.874  0.00  0.00    +0.050 A 
ATOM     28  C   LIG    1        4.817   0.002  -0.876  0.00  0.00    -0.030 A 
ATOM     29  S   LIG    1        6.235  -1.013  -1.124  0.00  0.00    +0.130 S 
ENDBRANCH  23  27
ENDBRANCH  22  23
ENDBRANCH  16  22
ENDBRANCH   1  21
TORSDOF 5
