REMARK  Name = ZINCrg000000sjSf.0
REMARK                            x       y       z     vdW  Elec       q    Type
REMARK                         _______ _______ _______ _____ _____    ______ ____
ROOT
ATOM      1  C   LIG    1       -0.386   1.342   2.462  0.00  0.00    +0.590 C 
ATOM      2  N   LIG    1       -0.738   1.578   1.182  0.00  0.00    -0.540 N 
ATOM      3  C   LIG    1       -0.013   1.086   0.008  0.00  0.00    +0.300 C 
ATOM      4  C   LIG    1       -0.797   1.615  -1.204  0.00  0.00    +0.110 C 
ATOM      5  C   LIG    1       -1.946   2.392  -0.603  0.00  0.00    -0.150 A 
ATOM      6  C   LIG    1       -2.979   3.089  -1.200  0.00  0.00    +0.160 A 
ATOM      7  C   LIG    1       -3.926   3.729  -0.422  0.00  0.00    -0.700 A 
ATOM      8  C   LIG    1       -3.837   3.670   0.957  0.00  0.00    +0.160 A 
ATOM      9  C   LIG    1       -2.809   2.976   1.557  0.00  0.00    +0.000 A 
ATOM     10  C   LIG    1       -1.849   2.327   0.778  0.00  0.00    +0.200 A 
ATOM     11  O   LIG    1       -1.056   1.796   3.369  0.00  0.00    -0.500 OA
ENDROOT
BRANCH   1  16
ATOM     12  C   LIG    1        4.203  -1.756   3.664  0.00  0.00    +0.160 C 
ATOM     13  C   LIG    1        2.980  -0.930   3.359  0.00  0.00    +0.110 A 
ATOM     14  C   LIG    1        2.619  -0.688   2.042  0.00  0.00    +0.230 A 
ATOM     15  N   LIG    1        1.550   0.034   1.771  0.00  0.00    -0.410 NA
ATOM     16  C   LIG    1        0.816   0.531   2.762  0.00  0.00    +0.010 A 
ATOM     17  C   LIG    1        1.185   0.291   4.086  0.00  0.00    +0.320 A 
ATOM     18  N   LIG    1        2.254  -0.438   4.348  0.00  0.00    -0.440 NA
ENDBRANCH   1  16
BRANCH   7  19
ATOM     19  S   LIG    1       -5.242   4.618  -1.185  0.00  0.00    +2.700 S 
ATOM     20  O   LIG    1       -4.788   4.969  -2.485  0.00  0.00    -0.950 OA
ATOM     21  O   LIG    1       -5.685   5.575  -0.232  0.00  0.00    -0.950 OA
BRANCH  19  22
ATOM     22  N   LIG    1       -6.494   3.555  -1.397  0.00  0.00    -1.000 NA
ATOM     23  C   LIG    1       -6.617   2.767  -2.634  0.00  0.00    +0.280 C 
ATOM     24  C   LIG    1       -6.808   1.292  -2.245  0.00  0.00    +0.220 C 
ATOM     25  O   LIG    1       -7.890   1.189  -1.317  0.00  0.00    -0.380 OA
ATOM     26  C   LIG    1       -7.669   1.874  -0.082  0.00  0.00    +0.220 C 
ATOM     27  C   LIG    1       -7.519   3.375  -0.357  0.00  0.00    +0.280 C 
ENDBRANCH  19  22
ENDBRANCH   7  19
TORSDOF 3
