REMARK  Name = ZINCrg000000s0j3.0
REMARK                            x       y       z     vdW  Elec       q    Type
REMARK                         _______ _______ _______ _____ _____    ______ ____
ROOT
ATOM      1  C   LIG    1        6.199   5.559   2.416  0.00  0.00    +0.050 C 
ENDROOT
BRANCH   1   4
ATOM      2  N   LIG    1        4.170   4.147   2.497  0.00  0.00    -0.730 N 
ATOM      3  H   LIG    1        3.669   4.902   2.150  0.00  0.00    +0.400 HD
ATOM      4  C   LIG    1        5.495   4.260   2.713  0.00  0.00    +0.520 C 
ATOM      5  O   LIG    1        6.121   3.316   3.147  0.00  0.00    -0.530 OA
BRANCH   2   6
ATOM      6  C   LIG    1        3.485   2.885   2.785  0.00  0.00    +0.270 C 
BRANCH   6   7
ATOM      7  C   LIG    1        1.998   3.024   2.454  0.00  0.00    +0.010 C 
BRANCH   7   8
ATOM      8  C   LIG    1        1.283   1.705   2.756  0.00  0.00    +0.340 C 
BRANCH   8  15
ATOM      9  C   LIG    1       -0.013   1.086   0.008  0.00  0.00    +0.150 C 
ATOM     10  C   LIG    1       -0.718   1.572   1.248  0.00  0.00    +0.080 A 
ATOM     11  C   LIG    1       -2.042   1.825   1.365  0.00  0.00    -0.120 A 
ATOM     12  C   LIG    1       -2.284   2.253   2.675  0.00  0.00    +0.080 A 
ATOM     13  N   LIG    1       -1.145   2.264   3.318  0.00  0.00    -0.300 NA
ATOM     14  C   LIG    1       -3.625   2.639   3.244  0.00  0.00    +0.160 C 
ATOM     15  N   LIG    1       -0.141   1.838   2.438  0.00  0.00    -0.370 N 
ENDBRANCH   8  15
ENDBRANCH   7   8
ENDBRANCH   6   7
ENDBRANCH   2   6
ENDBRANCH   1   4
BRANCH   1  16
ATOM     16  C   LIG    1        7.687   5.420   2.747  0.00  0.00    +0.350 C 
BRANCH  16  17
ATOM     17  N   LIG    1        8.371   6.682   2.458  0.00  0.00    -0.400 N 
ATOM     18  N   LIG    1        8.906   6.887   1.186  0.00  0.00    -0.510 N 
ATOM     19  H   LIG    1        8.813   6.189   0.519  0.00  0.00    +0.430 HD
ATOM     20  C   LIG    1        9.547   8.025   0.856  0.00  0.00    +0.560 A 
ATOM     21  C   LIG    1        9.695   9.096   1.865  0.00  0.00    -0.110 A 
ATOM     22  C   LIG    1       10.348  10.285   1.573  0.00  0.00    +0.090 A 
ATOM     23  C   LIG    1       10.462  11.260   2.549  0.00  0.00    +0.040 A 
ATOM     24  C   LIG    1        9.932  11.057   3.810  0.00  0.00    +0.040 A 
ATOM     25  C   LIG    1        9.278   9.876   4.117  0.00  0.00    +0.090 A 
ATOM     26  C   LIG    1        9.155   8.890   3.150  0.00  0.00    -0.110 A 
ATOM     27  O   LIG    1       10.002   8.169  -0.262  0.00  0.00    -0.510 OA
ATOM     28  C   LIG    1        8.461   7.613   3.428  0.00  0.00    +0.560 A 
ATOM     29  O   LIG    1        7.980   7.404   4.524  0.00  0.00    -0.510 OA
ENDBRANCH  16  17
ENDBRANCH   1  16
TORSDOF 7
