REMARK  Name = ZINCvU000000063y.2
REMARK                            x       y       z     vdW  Elec       q    Type
REMARK                         _______ _______ _______ _____ _____    ______ ____
ROOT
ATOM      1  C   LIG    1        0.790  -0.388   0.491  0.00  0.00    -0.040 C 
ATOM      2  C   LIG    1        1.736  -1.102  -0.081  0.00  0.00    -0.080 C 
ATOM      3  C   LIG    1        2.971  -0.494  -0.681  0.00  0.00    +0.250 C 
ATOM      4  N   LIG    1        2.776   0.945  -0.898  0.00  0.00    -0.520 NA
ATOM      5  C   LIG    1        2.287   1.585   0.334  0.00  0.00    +0.220 C 
ATOM      6  C   LIG    1        0.855   1.111   0.593  0.00  0.00    +0.030 C 
ENDROOT
BRANCH   1  10
ATOM      7  C   LIG    1       -2.585  -2.401   2.120  0.00  0.00    +0.210 A 
ATOM      8  C   LIG    1       -1.470  -2.170   2.913  0.00  0.00    -0.140 A 
ATOM      9  C   LIG    1       -0.368  -1.516   2.389  0.00  0.00    +0.210 A 
ATOM     10  C   LIG    1       -0.381  -1.087   1.056  0.00  0.00    -0.160 A 
ATOM     11  C   LIG    1       -1.512  -1.318   0.264  0.00  0.00    +0.210 A 
ATOM     12  C   LIG    1       -2.604  -1.978   0.798  0.00  0.00    -0.190 A 
BRANCH   7  14
ATOM     13  C   LIG    1       -4.778  -3.248   1.770  0.00  0.00    +0.250 C 
ATOM     14  O   LIG    1       -3.663  -3.043   2.640  0.00  0.00    -0.310 OA
ENDBRANCH   7  14
BRANCH  11  15
ATOM     15  O   LIG    1       -1.534  -0.900  -1.029  0.00  0.00    -0.300 OA
ATOM     16  C   LIG    1       -2.721  -1.170  -1.777  0.00  0.00    +0.250 C 
ENDBRANCH  11  15
BRANCH   9  17
ATOM     17  O   LIG    1        0.723  -1.291   3.166  0.00  0.00    -0.300 OA
ATOM     18  C   LIG    1        0.665  -1.757   4.516  0.00  0.00    +0.240 C 
ENDBRANCH   9  17
ENDBRANCH   1  10
BRANCH   4  19
ATOM     19  C   LIG    1        1.857   1.188  -2.018  0.00  0.00    +0.260 C 
BRANCH  19  20
ATOM     20  C   LIG    1        2.577   0.950  -3.320  0.00  0.00    -0.210 A 
ATOM     21  C   LIG    1        2.418  -0.115  -4.135  0.00  0.00    +0.240 A 
ATOM     22  N   LIG    1        3.239   0.044  -5.195  0.00  0.00    -0.470 N 
ATOM     23  H   LIG    1        3.333  -0.571  -5.940  0.00  0.00    +0.440 HD
ATOM     24  N   LIG    1        3.932   1.250  -5.032  0.00  0.00    -0.280 NA
ATOM     25  C   LIG    1        3.532   1.803  -3.907  0.00  0.00    +0.130 A 
BRANCH  25  26
ATOM     26  C   LIG    1        4.007   3.096  -3.353  0.00  0.00    +0.010 A 
ATOM     27  C   LIG    1        3.096   3.999  -2.809  0.00  0.00    +0.050 A 
ATOM     28  C   LIG    1        3.542   5.198  -2.291  0.00  0.00    +0.030 A 
ATOM     29  C   LIG    1        4.892   5.507  -2.319  0.00  0.00    -0.030 A 
ATOM     30  C   LIG    1        5.800   4.615  -2.863  0.00  0.00    +0.030 A 
ATOM     31 CL   LIG    1        5.446   7.019  -1.671  0.00  0.00    -0.070 Cl
ATOM     32  C   LIG    1        5.363   3.412  -3.379  0.00  0.00    +0.050 A 
ENDBRANCH  25  26
ENDBRANCH  19  20
ENDBRANCH   4  19
TORSDOF 7
