REMARK  Name = ZINCtV00000L6l4p.0
REMARK                            x       y       z     vdW  Elec       q    Type
REMARK                         _______ _______ _______ _____ _____    ______ ____
ROOT
ATOM      1  C   LIG    1        4.462  -5.931  -0.151  0.00  0.00    -0.130 A 
ATOM      2  C   LIG    1        3.372  -6.796  -0.026  0.00  0.00    +0.100 A 
ATOM      3  C   LIG    1        3.579  -8.155   0.068  0.00  0.00    +0.010 A 
ATOM      4  C   LIG    1        4.865  -8.671   0.038  0.00  0.00    +0.070 A 
ATOM      5  C   LIG    1        5.953  -7.831  -0.085  0.00  0.00    +0.010 A 
ATOM      6  C   LIG    1        5.764  -6.458  -0.186  0.00  0.00    +0.210 A 
ENDROOT
BRANCH   1   7
ATOM      7  C   LIG    1        4.248  -4.477  -0.251  0.00  0.00    +0.510 C 
ATOM      8  O   LIG    1        5.189  -3.737  -0.460  0.00  0.00    -0.480 OA
BRANCH   7   9
ATOM      9  O   LIG    1        3.008  -3.968  -0.111  0.00  0.00    -0.330 OA
BRANCH   9  10
ATOM     10  C   LIG    1        2.872  -2.526  -0.222  0.00  0.00    +0.240 C 
BRANCH  10  12
ATOM     11  O   LIG    1        0.591  -3.002   0.165  0.00  0.00    -0.420 OA
ATOM     12  C   LIG    1        1.426  -2.143  -0.039  0.00  0.00    +0.430 C 
BRANCH  12  13
ATOM     13  C   LIG    1        1.041  -0.787  -0.105  0.00  0.00    -0.300 A 
ATOM     14  C   LIG    1       -0.238  -0.314   0.044  0.00  0.00    +0.140 A 
ATOM     15  C   LIG    1       -0.327   1.050  -0.067  0.00  0.00    +0.040 A 
ATOM     16  C   LIG    1        0.834   1.680  -0.299  0.00  0.00    -0.210 A 
ATOM     17 BR   LIG    1        1.017   3.552  -0.498  0.00  0.00    +0.030 Br
ATOM     18  S   LIG    1        2.125   0.568  -0.392  0.00  0.00    +0.290 S 
ENDBRANCH  12  13
ENDBRANCH  10  12
ENDBRANCH   9  10
ENDBRANCH   7   9
ENDBRANCH   1   7
BRANCH   6  19
ATOM     19  N   LIG    1        6.857  -5.611  -0.316  0.00  0.00    -0.690 N 
ATOM     20  H   LIG    1        7.270  -5.482  -1.184  0.00  0.00    +0.410 HD
BRANCH  19  21
ATOM     21  C   LIG    1        7.361  -4.944   0.804  0.00  0.00    +0.230 A 
ATOM     22  C   LIG    1        6.793  -5.154   2.053  0.00  0.00    -0.030 A 
ATOM     23  C   LIG    1        7.296  -4.497   3.159  0.00  0.00    +0.060 A 
ATOM     24  C   LIG    1        8.358  -3.622   3.021  0.00  0.00    +0.000 A 
ATOM     25  C   LIG    1        8.923  -3.406   1.777  0.00  0.00    -0.140 A 
ATOM     26  C   LIG    1        8.428  -4.064   0.668  0.00  0.00    +0.000 A 
BRANCH  25  27
ATOM     27  C   LIG    1       10.080  -2.452   1.631  0.00  0.00    +0.510 C 
ATOM     28  F   LIG    1       10.893  -2.863   0.570  0.00  0.00    -0.180 F 
ATOM     29  F   LIG    1       10.828  -2.442   2.814  0.00  0.00    -0.180 F 
ATOM     30  F   LIG    1        9.594  -1.165   1.375  0.00  0.00    -0.180 F 
ENDBRANCH  25  27
ENDBRANCH  19  21
ENDBRANCH   6  19
TORSDOF 8
