REMARK  Name = ZINCpe00000gNi8W.0
REMARK                            x       y       z     vdW  Elec       q    Type
REMARK                         _______ _______ _______ _____ _____    ______ ____
ROOT
ATOM      1  C   LIG    1        4.299  -1.041  -5.615  0.00  0.00    +0.520 C 
ATOM      2  N   LIG    1        3.962  -0.852  -4.324  0.00  0.00    -0.610 N 
ATOM      3  C   LIG    1        4.393   0.358  -3.608  0.00  0.00    +0.290 C 
ATOM      4  C   LIG    1        5.151  -0.065  -2.344  0.00  0.00    +0.310 C 
ATOM      5  N   LIG    1        4.347  -1.064  -1.626  0.00  0.00    -1.000 NA
ATOM      6  C   LIG    1        3.921  -2.276  -2.340  0.00  0.00    +0.300 C 
ATOM      7  C   LIG    1        3.158  -1.851  -3.606  0.00  0.00    +0.270 C 
ATOM      8  O   LIG    1        4.963  -0.210  -6.197  0.00  0.00    -0.510 OA
ENDROOT
BRANCH   5   9
ATOM      9  S   LIG    1        3.934  -0.832  -0.039  0.00  0.00    +2.690 S 
ATOM     10  O   LIG    1        3.679  -2.121   0.502  0.00  0.00    -0.950 OA
ATOM     11  O   LIG    1        4.899   0.061   0.500  0.00  0.00    -0.950 OA
BRANCH   9  12
ATOM     12  C   LIG    1        2.396   0.029  -0.021  0.00  0.00    -0.680 A 
ATOM     13  C   LIG    1        1.208  -0.679  -0.013  0.00  0.00    +0.120 A 
ATOM     14  C   LIG    1        0.002  -0.004   0.002  0.00  0.00    -0.010 A 
ATOM     15  C   LIG    1       -0.017   1.378   0.010  0.00  0.00    +0.070 A 
ATOM     16  C   LIG    1        1.171   2.086   0.002  0.00  0.00    -0.010 A 
ATOM     17  C   LIG    1        2.377   1.411  -0.015  0.00  0.00    +0.120 A 
ENDBRANCH   9  12
ENDBRANCH   5   9
BRANCH   1  18
ATOM     18  C   LIG    1        3.850  -2.286  -6.336  0.00  0.00    +0.250 C 
BRANCH  18  19
ATOM     19  O   LIG    1        4.337  -2.255  -7.704  0.00  0.00    -0.330 OA
BRANCH  19  21
ATOM     20  O   LIG    1        3.361  -4.209  -8.043  0.00  0.00    -0.510 OA
ATOM     21  C   LIG    1        4.021  -3.299  -8.486  0.00  0.00    +0.470 C 
BRANCH  21  22
ATOM     22  C   LIG    1        4.491  -3.337  -9.918  0.00  0.00    +0.020 C 
ATOM     23  C   LIG    1        3.621  -2.504 -10.874  0.00  0.00    +0.050 C 
ATOM     24  C   LIG    1        3.785  -3.648 -11.891  0.00  0.00    +0.030 C 
ATOM     25  C   LIG    1        4.016  -4.580 -10.689  0.00  0.00    +0.060 C 
ENDBRANCH  21  22
ENDBRANCH  19  21
ENDBRANCH  18  19
ENDBRANCH   1  18
TORSDOF 6
