REMARK  Name = ZINCkj000005iT7g.0
REMARK                            x       y       z     vdW  Elec       q    Type
REMARK                         _______ _______ _______ _____ _____    ______ ____
ROOT
ATOM      1  N   LIG    1       -0.451   2.952  -1.609  0.00  0.00    -0.380 N 
ATOM      2  C   LIG    1        0.978   3.159  -1.660  0.00  0.00    +0.230 C 
ATOM      3  C   LIG    1        1.698   3.323  -0.344  0.00  0.00    +0.090 C 
ATOM      4  C   LIG    1        1.806   1.975   0.389  0.00  0.00    +0.160 C 
ATOM      5  C   LIG    1        0.450   1.716   1.026  0.00  0.00    +0.030 A 
ATOM      6  C   LIG    1       -0.682   1.545   0.330  0.00  0.00    -0.250 A 
ATOM      7  C   LIG    1       -1.718   1.336   1.258  0.00  0.00    -0.030 A 
ATOM      8  C   LIG    1       -1.151   1.391   2.481  0.00  0.00    +0.200 A 
ATOM      9  O   LIG    1        0.167   1.622   2.330  0.00  0.00    -0.150 OA
ATOM     10  C   LIG    1       -0.783   1.579  -1.184  0.00  0.00    +0.360 C 
ATOM     11  H   LIG    1       -0.857   3.606  -0.957  0.00  0.00    +0.420 HD
ENDROOT
BRANCH   1  12
ATOM     12  C   LIG    1       -1.019   3.191  -2.943  0.00  0.00    +0.280 C 
BRANCH  12  16
ATOM     13  N   LIG    1       -1.766   6.374  -4.731  0.00  0.00    -1.020 NA
ATOM     14  C   LIG    1       -2.056   6.781  -3.348  0.00  0.00    +0.280 C 
ATOM     15  C   LIG    1       -1.823   5.548  -2.449  0.00  0.00    +0.040 C 
ATOM     16  C   LIG    1       -0.871   4.670  -3.303  0.00  0.00    -0.020 C 
ATOM     17  C   LIG    1       -1.392   4.948  -4.735  0.00  0.00    +0.310 C 
BRANCH  13  19
ATOM     18  C   LIG    1       -3.553   7.181  -6.651  0.00  0.00    -0.280 C 
ATOM     19  S   LIG    1       -1.845   7.355  -6.063  0.00  0.00    +2.630 S 
ATOM     20  O   LIG    1       -0.938   6.768  -6.985  0.00  0.00    -0.950 OA
ATOM     21  O   LIG    1       -1.625   8.661  -5.549  0.00  0.00    -0.940 OA
ENDBRANCH  13  19
ENDBRANCH  12  16
ENDBRANCH   1  12
TORSDOF 3
