REMARK  Name = ZINCkj000005iT7g.1
REMARK                            x       y       z     vdW  Elec       q    Type
REMARK                         _______ _______ _______ _____ _____    ______ ____
ROOT
ATOM      1  N   LIG    1       -6.037  -2.096   1.031  0.00  0.00    -0.380 N 
ATOM      2  C   LIG    1       -6.298  -3.463   0.641  0.00  0.00    +0.240 C 
ATOM      3  C   LIG    1       -7.678  -3.781   0.124  0.00  0.00    +0.090 C 
ATOM      4  C   LIG    1       -8.701  -3.796   1.273  0.00  0.00    +0.160 C 
ATOM      5  C   LIG    1       -9.022  -2.344   1.589  0.00  0.00    +0.030 A 
ATOM      6  C   LIG    1       -8.124  -1.462   2.049  0.00  0.00    -0.250 A 
ATOM      7  C   LIG    1       -8.788  -0.235   2.217  0.00  0.00    -0.030 A 
ATOM      8  C   LIG    1      -10.069  -0.441   1.847  0.00  0.00    +0.200 A 
ATOM      9  O   LIG    1      -10.202  -1.726   1.468  0.00  0.00    -0.150 OA
ATOM     10  C   LIG    1       -6.665  -1.778   2.327  0.00  0.00    +0.360 C 
ATOM     11  H   LIG    1       -6.404  -1.476   0.325  0.00  0.00    +0.420 HD
ENDROOT
BRANCH   1  12
ATOM     12  C   LIG    1       -4.585  -1.896   1.139  0.00  0.00    +0.280 C 
BRANCH  12  16
ATOM     13  N   LIG    1       -2.440   1.072   0.882  0.00  0.00    -1.020 NA
ATOM     14  C   LIG    1       -3.672   1.641   0.306  0.00  0.00    +0.290 C 
ATOM     15  C   LIG    1       -4.619   0.426   0.122  0.00  0.00    +0.030 C 
ATOM     16  C   LIG    1       -4.292  -0.415   1.384  0.00  0.00    -0.020 C 
ATOM     17  C   LIG    1       -2.778  -0.182   1.572  0.00  0.00    +0.300 C 
BRANCH  13  19
ATOM     18  C   LIG    1       -0.224   1.026  -0.735  0.00  0.00    -0.280 C 
ATOM     19  S   LIG    1       -0.928   1.738   0.777  0.00  0.00    +2.620 S 
ATOM     20  O   LIG    1       -1.169   3.129   0.609  0.00  0.00    -0.940 OA
ATOM     21  O   LIG    1       -0.247   1.246   1.924  0.00  0.00    -0.940 OA
ENDBRANCH  13  19
ENDBRANCH  12  16
ENDBRANCH   1  12
TORSDOF 3
