REMARK  Name = ZINCvU0000000EoB.0
REMARK                            x       y       z     vdW  Elec       q    Type
REMARK                         _______ _______ _______ _____ _____    ______ ____
ROOT
ATOM      1  C   LIG    1       -1.568  -4.525   0.390  0.00  0.00    +0.560 C 
ATOM      2  N   LIG    1       -1.864  -3.225   0.587  0.00  0.00    -0.630 N 
ATOM      3  H   LIG    1       -2.732  -2.972   0.938  0.00  0.00    +0.410 HD
ATOM      4  O   LIG    1       -0.519  -4.836  -0.138  0.00  0.00    -0.490 OA
ENDROOT
BRANCH   2   5
ATOM      5  C   LIG    1       -0.928  -2.249   0.288  0.00  0.00    +0.040 A 
ATOM      6  C   LIG    1       -1.160  -0.902   0.351  0.00  0.00    -0.230 A 
ATOM      7  C   LIG    1       -0.007  -0.101  -0.015  0.00  0.00    -0.050 A 
ATOM      8  C   LIG    1        1.052  -0.851  -0.342  0.00  0.00    -0.240 A 
ATOM      9  C   LIG    1        2.396  -0.293  -0.767  0.00  0.00    +0.120 C 
ATOM     10  C   LIG    1        2.218   1.177  -1.158  0.00  0.00    +0.020 C 
ATOM     11  C   LIG    1        1.457   1.901  -0.043  0.00  0.00    +0.020 C 
ATOM     12  C   LIG    1        0.004   1.419  -0.030  0.00  0.00    +0.100 C 
ATOM     13  S   LIG    1        0.670  -2.560  -0.211  0.00  0.00    +0.290 S 
BRANCH   6  14
ATOM     14  C   LIG    1       -2.449  -0.324   0.751  0.00  0.00    +0.500 C 
ATOM     15  O   LIG    1       -2.635   0.006   1.910  0.00  0.00    -0.430 OA
BRANCH  14  16
ATOM     16  C   LIG    1       -3.512  -0.144  -0.243  0.00  0.00    -0.300 A 
ATOM     17  C   LIG    1       -4.713   0.467  -0.018  0.00  0.00    +0.100 A 
ATOM     18  C   LIG    1       -5.524   0.498  -1.128  0.00  0.00    -0.010 A 
ATOM     19  C   LIG    1       -5.007  -0.067  -2.225  0.00  0.00    -0.060 A 
ATOM     20  S   LIG    1       -3.442  -0.674  -1.918  0.00  0.00    +0.240 S 
ENDBRANCH  14  16
ENDBRANCH   6  14
ENDBRANCH   2   5
BRANCH   1  23
ATOM     21  C   LIG    1       -3.061  -7.896   1.112  0.00  0.00    +0.140 A 
ATOM     22  C   LIG    1       -2.169  -6.919   0.711  0.00  0.00    -0.020 A 
ATOM     23  C   LIG    1       -2.518  -5.570   0.817  0.00  0.00    -0.060 A 
ATOM     24  C   LIG    1       -3.767  -5.213   1.333  0.00  0.00    -0.060 A 
ATOM     25  C   LIG    1       -4.657  -6.194   1.727  0.00  0.00    +0.150 A 
ATOM     26  C   LIG    1       -4.306  -7.537   1.620  0.00  0.00    +0.060 A 
BRANCH  21  28
ATOM     27  C   LIG    1       -1.428  -9.505   0.478  0.00  0.00    +0.250 C 
ATOM     28  O   LIG    1       -2.721  -9.209   1.009  0.00  0.00    -0.300 OA
ENDBRANCH  21  28
BRANCH  25  29
ATOM     29  O   LIG    1       -5.874  -5.847   2.224  0.00  0.00    -0.300 OA
ATOM     30  C   LIG    1       -6.211  -4.459   2.205  0.00  0.00    +0.250 C 
ENDBRANCH  25  29
BRANCH  26  31
ATOM     31  O   LIG    1       -5.181  -8.500   2.014  0.00  0.00    -0.310 OA
ATOM     32  C   LIG    1       -5.108  -8.925   3.377  0.00  0.00    +0.240 C 
ENDBRANCH  26  31
ENDBRANCH   1  23
TORSDOF 7
