REMARK  Name = ZINCqH0000007pUf.0
REMARK                            x       y       z     vdW  Elec       q    Type
REMARK                         _______ _______ _______ _____ _____    ______ ____
ROOT
ATOM      1  N   LIG    1       -1.281  -2.094   0.003  0.00  0.00    -0.700 N 
ATOM      2  H   LIG    1       -0.441  -2.578  -0.008  0.00  0.00    +0.420 HD
ATOM      3  C   LIG    1       -1.282  -0.746   0.010  0.00  0.00    +0.570 C 
ATOM      4  O   LIG    1       -2.334  -0.139   0.024  0.00  0.00    -0.530 OA
ENDROOT
BRANCH   3   5
ATOM      5  C   LIG    1        0.002  -0.004   0.002  0.00  0.00    +0.120 A 
ATOM      6  N   LIG    1        1.135  -0.678  -0.013  0.00  0.00    -0.440 NA
ATOM      7  C   LIG    1        2.313  -0.053  -0.021  0.00  0.00    +0.130 A 
ATOM      8  C   LIG    1        3.518  -0.779  -0.037  0.00  0.00    +0.070 A 
ATOM      9  C   LIG    1        4.707  -0.115  -0.046  0.00  0.00    -0.020 A 
ATOM     10  C   LIG    1        4.752   1.279  -0.039  0.00  0.00    +0.040 A 
ATOM     11  C   LIG    1        3.607   2.016  -0.023  0.00  0.00    +0.070 A 
ATOM     12 CL   LIG    1        6.189  -1.018  -0.067  0.00  0.00    -0.050 Cl
ATOM     13  C   LIG    1        2.362   1.366  -0.013  0.00  0.00    -0.090 A 
ATOM     14  C   LIG    1        1.158   2.094   0.002  0.00  0.00    +0.100 A 
ATOM     15  C   LIG    1       -0.017   1.398   0.010  0.00  0.00    +0.030 A 
ENDBRANCH   3   5
BRANCH   1  16
ATOM     16  C   LIG    1       -2.550  -2.826   0.011  0.00  0.00    +0.210 C 
ATOM     17  C   LIG    1       -3.068  -2.965  -1.422  0.00  0.00    +0.030 C 
BRANCH  16  18
ATOM     18  C   LIG    1       -2.332  -4.217   0.611  0.00  0.00    +0.270 C 
BRANCH  18  22
ATOM     19  C   LIG    1       -6.088  -6.225   0.957  0.00  0.00    +0.130 A 
ATOM     20  C   LIG    1       -5.569  -5.530   2.040  0.00  0.00    -0.020 A 
ATOM     21  C   LIG    1       -4.355  -4.881   1.925  0.00  0.00    +0.060 A 
ATOM     22  C   LIG    1       -3.656  -4.925   0.733  0.00  0.00    -0.160 A 
ATOM     23  C   LIG    1       -4.174  -5.612  -0.349  0.00  0.00    +0.050 A 
ATOM     24  C   LIG    1       -5.385  -6.267  -0.238  0.00  0.00    -0.080 A 
BRANCH  19  26
ATOM     25  C   LIG    1       -7.755  -7.559  -0.088  0.00  0.00    +0.250 C 
ATOM     26  O   LIG    1       -7.282  -6.864   1.067  0.00  0.00    -0.320 OA
ENDBRANCH  19  26
ENDBRANCH  18  22
BRANCH  18  27
ATOM     27  O   LIG    1       -1.464  -4.971  -0.238  0.00  0.00    -0.550 OA
ATOM     28  H   LIG    1       -1.804  -5.098  -1.134  0.00  0.00    +0.370 HD
ENDBRANCH  18  27
ENDBRANCH  16  18
ENDBRANCH   1  16
TORSDOF 6
