REMARK  Name = ZINCrD00000hQ4bc.0
REMARK                            x       y       z     vdW  Elec       q    Type
REMARK                         _______ _______ _______ _____ _____    ______ ____
ROOT
ATOM      1  N   LIG    1       -0.011   0.966   0.007  0.00  0.00    -0.740 N 
ATOM      2  H   LIG    1        0.002  -0.004   0.002  0.00  0.00    +0.390 HD
ATOM      3  C   LIG    1        1.147   1.655   0.000  0.00  0.00    +0.710 C 
ATOM      4  N   LIG    1        2.323   0.998  -0.015  0.00  0.00    -0.740 N 
ATOM      5  H   LIG    1        2.336   0.028  -0.020  0.00  0.00    +0.400 HD
ATOM      6  O   LIG    1        1.130   2.871   0.007  0.00  0.00    -0.580 OA
ENDROOT
BRANCH   1  11
ATOM      7  C   LIG    1       -2.405   0.804  -0.594  0.00  0.00    +0.240 C 
ATOM      8  O   LIG    1       -3.577   1.092   0.200  0.00  0.00    -0.360 OA
ATOM      9  C   LIG    1       -3.103   1.173   1.562  0.00  0.00    +0.200 C 
ATOM     10  C   LIG    1       -1.760   1.929   1.468  0.00  0.00    -0.000 C 
ATOM     11  C   LIG    1       -1.290   1.681   0.017  0.00  0.00    +0.250 C 
BRANCH   7  14
ATOM     12  N   LIG    1       -2.591   1.176  -4.216  0.00  0.00    -0.360 N 
ATOM     13  C   LIG    1       -2.156   0.527  -3.116  0.00  0.00    +0.240 A 
ATOM     14  C   LIG    1       -2.639   1.181  -2.034  0.00  0.00    -0.240 A 
ATOM     15  C   LIG    1       -3.388   2.271  -2.489  0.00  0.00    +0.250 A 
ATOM     16  N   LIG    1       -3.360   2.269  -3.797  0.00  0.00    -0.300 NA
BRANCH  12  18
ATOM     17  C   LIG    1       -0.959   1.398  -6.024  0.00  0.00    +0.040 C 
ATOM     18  C   LIG    1       -2.306   0.805  -5.605  0.00  0.00    +0.250 C 
ATOM     19  C   LIG    1       -2.252  -0.719  -5.725  0.00  0.00    +0.050 C 
ENDBRANCH  12  18
ENDBRANCH   7  14
ENDBRANCH   1  11
BRANCH   4  20
ATOM     20  C   LIG    1        3.582   1.747  -0.023  0.00  0.00    +0.310 C 
BRANCH  20  21
ATOM     21  C   LIG    1        4.758   0.769  -0.039  0.00  0.00    -0.040 C 
ATOM     22  C   LIG    1        5.673   0.785  -1.265  0.00  0.00    +0.030 C 
ATOM     23  C   LIG    1        6.167   1.356   0.067  0.00  0.00    +0.020 C 
BRANCH  23  24
ATOM     24  C   LIG    1        7.197   0.560   0.826  0.00  0.00    -0.050 A 
ATOM     25  C   LIG    1        7.526  -0.717   0.412  0.00  0.00    +0.000 A 
ATOM     26  C   LIG    1        8.475  -1.445   1.106  0.00  0.00    +0.000 A 
ATOM     27  C   LIG    1        9.087  -0.900   2.219  0.00  0.00    +0.000 A 
ATOM     28  C   LIG    1        8.754   0.376   2.635  0.00  0.00    +0.000 A 
ATOM     29  C   LIG    1        7.809   1.106   1.939  0.00  0.00    +0.010 A 
ENDBRANCH  23  24
ENDBRANCH  20  21
ENDBRANCH   4  20
TORSDOF 6
