REMARK  Name = ZINCqH0000003cuF.0
REMARK                            x       y       z     vdW  Elec       q    Type
REMARK                         _______ _______ _______ _____ _____    ______ ____
ROOT
ATOM      1  C   LIG    1        5.152   3.324   0.059  0.00  0.00    -0.050 A 
ATOM      2  C   LIG    1        3.893   2.741   0.023  0.00  0.00    -0.020 A 
ATOM      3  C   LIG    1        3.520   1.844   1.033  0.00  0.00    +0.380 A 
ATOM      4  N   LIG    1        4.320   1.533   2.027  0.00  0.00    -0.450 NA
ATOM      5  C   LIG    1        5.551   2.041   2.140  0.00  0.00    +0.160 A 
ATOM      6  C   LIG    1        6.387   1.685   3.212  0.00  0.00    +0.040 A 
ATOM      7  C   LIG    1        7.634   2.223   3.303  0.00  0.00    +0.040 A 
ATOM      8  C   LIG    1        8.099   3.125   2.349  0.00  0.00    +0.010 A 
ATOM      9  C   LIG    1        7.316   3.493   1.295  0.00  0.00    +0.070 A 
ATOM     10  C   LIG    1        6.029   2.958   1.172  0.00  0.00    -0.090 A 
ENDROOT
BRANCH   1  13
ATOM     11  N   LIG    1        4.721   4.681  -1.933  0.00  0.00    -0.720 N 
ATOM     12  H   LIG    1        3.810   4.349  -1.931  0.00  0.00    +0.400 HD
ATOM     13  C   LIG    1        5.589   4.276  -0.985  0.00  0.00    +0.560 C 
ATOM     14  O   LIG    1        6.731   4.693  -0.988  0.00  0.00    -0.520 OA
BRANCH  11  16
ATOM     15  C   LIG    1        3.987   5.918  -3.912  0.00  0.00    +0.030 C 
ATOM     16  C   LIG    1        5.155   5.625  -2.967  0.00  0.00    +0.250 C 
ENDBRANCH  11  16
ENDBRANCH   1  13
BRANCH   3  17
ATOM     17  N   LIG    1        2.255   1.267   0.984  0.00  0.00    -0.660 N 
ATOM     18  H   LIG    1        1.677   1.429   0.222  0.00  0.00    +0.420 HD
ATOM     19  C   LIG    1        1.832   0.483   1.995  0.00  0.00    +0.510 C 
ATOM     20  O   LIG    1        2.586   0.205   2.903  0.00  0.00    -0.460 OA
BRANCH  19  21
ATOM     21  C   LIG    1        0.421  -0.047   1.999  0.00  0.00    +0.000 C 
ATOM     22  C   LIG    1        0.195  -0.901   0.750  0.00  0.00    +0.050 C 
ATOM     23  C   LIG    1       -1.237  -1.440   0.753  0.00  0.00    +0.030 C 
ATOM     24  C   LIG    1       -1.458  -2.295   2.003  0.00  0.00    +0.290 C 
ATOM     25  C   LIG    1       -1.231  -1.441   3.252  0.00  0.00    +0.030 C 
ATOM     26  F   LIG    1       -2.767  -2.787   2.006  0.00  0.00    -0.200 F 
ATOM     27  F   LIG    1       -0.557  -3.365   2.000  0.00  0.00    -0.200 F 
ATOM     28  C   LIG    1        0.201  -0.902   3.248  0.00  0.00    +0.070 C 
ENDBRANCH  19  21
ENDBRANCH   3  17
TORSDOF 4
