REMARK  Name = ZINCpk00000y6vW1.0
REMARK                            x       y       z     vdW  Elec       q    Type
REMARK                         _______ _______ _______ _____ _____    ______ ____
ROOT
ATOM      1  N   LIG    1       -2.153   5.546  -0.500  0.00  0.00    -0.530 NA
ATOM      2  C   LIG    1       -2.184   5.777   0.924  0.00  0.00    +0.170 C 
ATOM      3  C   LIG    1       -0.877   5.335   1.609  0.00  0.00    +0.020 C 
ATOM      4  C   LIG    1       -0.346   3.999   1.048  0.00  0.00    +0.010 C 
ATOM      5  C   LIG    1       -1.432   2.984   0.816  0.00  0.00    +0.260 C 
ATOM      6  C   LIG    1       -1.932   3.112  -0.640  0.00  0.00    +0.040 C 
ATOM      7  C   LIG    1       -2.816   4.261  -0.805  0.00  0.00    +0.180 C 
ENDROOT
BRANCH   1   8
ATOM      8  C   LIG    1       -2.789   6.653  -1.227  0.00  0.00    +0.310 C 
BRANCH   8  13
ATOM      9  N   LIG    1       -0.951   8.285  -1.907  0.00  0.00    -0.290 N 
ATOM     10  N   LIG    1       -0.490   9.396  -1.440  0.00  0.00    -0.090 NA
ATOM     11  N   LIG    1       -1.151   9.707  -0.380  0.00  0.00    -0.080 NA
ATOM     12  N   LIG    1       -2.044   8.807  -0.154  0.00  0.00    -0.300 NA
ATOM     13  C   LIG    1       -1.946   7.894  -1.089  0.00  0.00    +0.190 A 
BRANCH   9  15
ATOM     14  C   LIG    1       -0.645   8.485  -4.325  0.00  0.00    +0.060 C 
ATOM     15  C   LIG    1       -0.480   7.581  -3.102  0.00  0.00    +0.260 C 
ATOM     16  C   LIG    1        0.997   7.219  -2.931  0.00  0.00    +0.070 C 
ENDBRANCH   9  15
ENDBRANCH   8  13
ENDBRANCH   1   8
BRANCH   5  17
ATOM     17  N   LIG    1       -0.900   1.637   1.035  0.00  0.00    -0.980 NA
BRANCH  17  18
ATOM     18  S   LIG    1       -1.659   0.608   2.087  0.00  0.00    +2.600 S 
ATOM     19  O   LIG    1       -1.627  -0.652   1.430  0.00  0.00    -0.940 OA
ATOM     20  O   LIG    1       -2.893   1.251   2.377  0.00  0.00    -0.960 OA
ATOM     21  C   LIG    1       -0.591   0.589   3.553  0.00  0.00    -0.290 C 
ENDBRANCH  17  18
BRANCH  17  22
ATOM     22  C   LIG    1        0.304   1.200   0.324  0.00  0.00    +0.220 C 
ATOM     23  C   LIG    1        0.600  -0.301   0.475  0.00  0.00    +0.010 C 
ATOM     24  C   LIG    1       -0.277  -0.519  -0.769  0.00  0.00    +0.030 C 
ATOM     25  C   LIG    1        0.071   0.924  -1.171  0.00  0.00    +0.010 C 
ENDBRANCH  17  22
ENDBRANCH   5  17
TORSDOF 6
