REMARK  Name = ZINCrD0000074TbM.0
REMARK                            x       y       z     vdW  Elec       q    Type
REMARK                         _______ _______ _______ _____ _____    ______ ____
ROOT
ATOM      1  N   LIG    1       -2.023  -6.332  -0.015  0.00  0.00    -0.520 N 
ATOM      2  H   LIG    1       -1.234  -6.896  -0.026  0.00  0.00    +0.430 HD
ATOM      3  C   LIG    1       -3.250  -6.890  -0.007  0.00  0.00    +0.520 C 
ATOM      4  O   LIG    1       -4.237  -6.186   0.007  0.00  0.00    -0.510 OA
ENDROOT
BRANCH   1   6
ATOM      5  C   LIG    1       -0.661  -4.379  -0.017  0.00  0.00    +0.540 C 
ATOM      6  N   LIG    1       -1.888  -4.938  -0.008  0.00  0.00    -0.520 N 
ATOM      7  H   LIG    1       -2.677  -4.374   0.002  0.00  0.00    +0.430 HD
ATOM      8  O   LIG    1        0.326  -5.084  -0.030  0.00  0.00    -0.520 OA
BRANCH   5   9
ATOM      9  C   LIG    1       -0.516  -2.879  -0.009  0.00  0.00    +0.090 C 
BRANCH   9  10
ATOM     10  S   LIG    1        1.244  -2.442  -0.024  0.00  0.00    -0.010 S 
BRANCH  10  17
ATOM     11  C   LIG    1        3.725  -0.694  -0.038  0.00  0.00    +0.100 C 
ATOM     12  C   LIG    1        2.407   0.036  -0.021  0.00  0.00    -0.060 A 
ATOM     13  C   LIG    1        2.380   1.416  -0.013  0.00  0.00    +0.030 A 
ATOM     14  C   LIG    1        1.170   2.086   0.002  0.00  0.00    +0.010 A 
ATOM     15  C   LIG    1       -0.017   1.377   0.010  0.00  0.00    +0.020 A 
ATOM     16  C   LIG    1        0.002  -0.004   0.002  0.00  0.00    -0.010 A 
ATOM     17  C   LIG    1        1.216  -0.681  -0.013  0.00  0.00    -0.110 A 
ENDBRANCH  10  17
ENDBRANCH   9  10
ENDBRANCH   5   9
ENDBRANCH   1   6
BRANCH   3  18
ATOM     18  C   LIG    1       -3.395  -8.390  -0.014  0.00  0.00    +0.170 C 
ATOM     19  C   LIG    1       -2.738  -8.960  -1.273  0.00  0.00    +0.090 C 
BRANCH  18  20
ATOM     20  N   LIG    1       -4.817  -8.743  -0.003  0.00  0.00    -0.520 NA
ATOM     21  C   LIG    1       -5.306  -9.456   0.978  0.00  0.00    +0.400 A 
ATOM     22  N   LIG    1       -6.598  -9.858   1.135  0.00  0.00    -0.630 N 
ATOM     23  H   LIG    1       -7.277  -9.625   0.483  0.00  0.00    +0.420 HD
ATOM     24  C   LIG    1       -6.911 -10.615   2.252  0.00  0.00    +0.150 A 
ATOM     25  C   LIG    1       -8.163 -11.137   2.612  0.00  0.00    +0.000 A 
ATOM     26  C   LIG    1       -8.314 -11.870   3.766  0.00  0.00    +0.070 A 
ATOM     27  C   LIG    1       -7.236 -12.111   4.599  0.00  0.00    +0.010 A 
ATOM     28  C   LIG    1       -5.994 -11.607   4.264  0.00  0.00    +0.100 A 
ATOM     29  C   LIG    1       -5.837 -10.869   3.104  0.00  0.00    -0.150 A 
ATOM     30  S   LIG    1       -4.425 -10.088   2.379  0.00  0.00    -0.020 S 
ENDBRANCH  18  20
ENDBRANCH   3  18
TORSDOF 6
