REMARK  Name = ZINCqH00000037Fj.0
REMARK                            x       y       z     vdW  Elec       q    Type
REMARK                         _______ _______ _______ _____ _____    ______ ____
ROOT
ATOM      1  N   LIG    1        1.090   7.275   0.232  0.00  0.00    -0.620 N 
ATOM      2  C   LIG    1        1.104   5.932   0.123  0.00  0.00    +0.710 C 
ATOM      3  N   LIG    1       -0.056   5.252   0.029  0.00  0.00    -0.690 N 
ATOM      4  H   LIG    1       -0.896   5.732  -0.038  0.00  0.00    +0.410 HD
ATOM      5  O   LIG    1        2.162   5.334   0.111  0.00  0.00    -0.560 OA
ENDROOT
BRANCH   3   6
ATOM      6  C   LIG    1       -0.048   3.852   0.028  0.00  0.00    +0.160 A 
ATOM      7  C   LIG    1       -0.993   3.153  -0.712  0.00  0.00    +0.010 A 
ATOM      8  C   LIG    1       -0.990   1.770  -0.717  0.00  0.00    +0.040 A 
ATOM      9  C   LIG    1       -0.048   1.076   0.015  0.00  0.00    +0.020 A 
ATOM     10  C   LIG    1        0.902   1.769   0.766  0.00  0.00    -0.120 A 
ATOM     11  C   LIG    1        0.902   3.164   0.766  0.00  0.00    +0.090 A 
BRANCH  10  12
ATOM     12  C   LIG    1        1.909   1.027   1.555  0.00  0.00    +0.560 C 
ATOM     13  N   LIG    1        1.910  -0.320   1.550  0.00  0.00    -0.700 N 
ATOM     14  H   LIG    1        1.251  -0.804   1.028  0.00  0.00    +0.400 HD
ATOM     15  O   LIG    1        2.736   1.633   2.208  0.00  0.00    -0.530 OA
BRANCH  13  16
ATOM     16  C   LIG    1        2.908  -1.055   2.331  0.00  0.00    +0.220 C 
ATOM     17  C   LIG    1        3.583  -2.256   1.665  0.00  0.00    +0.010 C 
ATOM     18  C   LIG    1        2.552  -2.476   2.774  0.00  0.00    +0.020 C 
ENDBRANCH  13  16
ENDBRANCH  10  12
ENDBRANCH   3   6
BRANCH   1  20
ATOM     19  C   LIG    1       -0.678   8.131   1.689  0.00  0.00    +0.010 C 
ATOM     20  C   LIG    1       -0.185   7.996   0.247  0.00  0.00    +0.260 C 
ENDBRANCH   1  20
BRANCH   1  21
ATOM     21  C   LIG    1        2.351   8.015   0.334  0.00  0.00    +0.360 C 
BRANCH  21  22
ATOM     22  C   LIG    1        2.831   8.383  -1.046  0.00  0.00    -0.080 A 
ATOM     23  C   LIG    1        3.664   7.525  -1.739  0.00  0.00    +0.040 A 
ATOM     24  C   LIG    1        4.102   7.859  -3.008  0.00  0.00    +0.040 A 
ATOM     25  C   LIG    1        3.715   9.056  -3.579  0.00  0.00    -0.010 A 
ATOM     26  C   LIG    1        2.884   9.919  -2.884  0.00  0.00    +0.090 A 
ATOM     27  F   LIG    1        2.504  11.089  -3.442  0.00  0.00    -0.140 F 
ATOM     28  C   LIG    1        2.442   9.581  -1.616  0.00  0.00    -0.010 A 
ENDBRANCH  21  22
ENDBRANCH   1  21
TORSDOF 6
