REMARK  Name = ZINCrH00000tj11p.0
REMARK                            x       y       z     vdW  Elec       q    Type
REMARK                         _______ _______ _______ _____ _____    ______ ____
ROOT
ATOM      1  O   LIG    1        0.446  -1.302  -1.941  0.00  0.00    -0.430 OA
ATOM      2  C   LIG    1        0.857  -0.482  -1.154  0.00  0.00    +0.380 C 
ATOM      3  C   LIG    1        0.002  -0.004   0.002  0.00  0.00    +0.030 C 
ATOM      4  C   LIG    1       -0.019   1.527   0.010  0.00  0.00    +0.060 C 
ATOM      5  C   LIG    1        1.413   2.072  -0.000  0.00  0.00    +0.030 C 
ATOM      6  C   LIG    1        2.107   1.634  -1.285  0.00  0.00    +0.360 C 
ATOM      7  N   LIG    1        3.440   2.216  -1.411  0.00  0.00    -0.620 N 
ATOM      8  C   LIG    1        4.384   1.583  -2.133  0.00  0.00    +0.720 C 
ATOM      9  O   LIG    1        5.475   2.106  -2.249  0.00  0.00    -0.580 OA
ATOM     10  N   LIG    1        4.172   0.400  -2.729  0.00  0.00    -0.730 N 
ATOM     11  H   LIG    1        4.882   0.006  -3.260  0.00  0.00    +0.420 HD
ATOM     12  C   LIG    1        2.904  -0.329  -2.592  0.00  0.00    +0.310 C 
ATOM     13  C   LIG    1        2.241   0.104  -1.284  0.00  0.00    -0.010 C 
ENDROOT
BRANCH  12  14
ATOM     14  C   LIG    1        3.154  -1.815  -2.566  0.00  0.00    -0.110 A 
ATOM     15  C   LIG    1        4.250  -2.320  -1.892  0.00  0.00    +0.040 A 
ATOM     16  C   LIG    1        4.476  -3.684  -1.863  0.00  0.00    +0.010 A 
ATOM     17  C   LIG    1        3.613  -4.542  -2.518  0.00  0.00    +0.050 A 
ATOM     18  C   LIG    1        2.519  -4.037  -3.197  0.00  0.00    -0.090 A 
ATOM     19 BR   LIG    1        1.336  -5.210  -4.092  0.00  0.00    -0.050 Br
ATOM     20  C   LIG    1        2.289  -2.673  -3.221  0.00  0.00    +0.100 A 
ENDBRANCH  12  14
BRANCH   6  21
ATOM     21  O   LIG    1        1.308   2.037  -2.400  0.00  0.00    -0.560 OA
ATOM     22  H   LIG    1        1.180   2.993  -2.466  0.00  0.00    +0.390 HD
ENDBRANCH   6  21
BRANCH   7  23
ATOM     23  C   LIG    1        3.750   3.488  -0.754  0.00  0.00    +0.360 C 
BRANCH  23  24
ATOM     24  C   LIG    1        4.273   3.222   0.634  0.00  0.00    -0.110 A 
ATOM     25  C   LIG    1        3.397   3.155   1.702  0.00  0.00    +0.010 A 
ATOM     26  C   LIG    1        3.877   2.906   2.974  0.00  0.00    -0.010 A 
ATOM     27  C   LIG    1        5.233   2.733   3.181  0.00  0.00    +0.010 A 
ATOM     28  C   LIG    1        6.109   2.805   2.114  0.00  0.00    +0.000 A 
ATOM     29  C   LIG    1        5.629   3.050   0.841  0.00  0.00    +0.040 A 
ENDBRANCH  23  24
ENDBRANCH   7  23
TORSDOF 4
