REMARK  Name = ZINCpk000000mWKs.0
REMARK                            x       y       z     vdW  Elec       q    Type
REMARK                         _______ _______ _______ _____ _____    ______ ____
ROOT
ATOM      1  C   LIG    1       -2.490   1.379   0.021  0.00  0.00    +0.290 C 
ENDROOT
BRANCH   1   7
ATOM      2  C   LIG    1        2.125   1.677   1.158  0.00  0.00    +0.220 C 
ATOM      3  C   LIG    1        2.263   0.156   1.052  0.00  0.00    +0.020 C 
ATOM      4  C   LIG    1        0.880  -0.492   1.159  0.00  0.00    +0.030 C 
ATOM      5  C   LIG    1        0.002  -0.004   0.002  0.00  0.00    +0.270 C 
ATOM      6  N   LIG    1       -0.018   1.465   0.010  0.00  0.00    -0.610 N 
ATOM      7  C   LIG    1       -1.187   2.136   0.019  0.00  0.00    +0.510 C 
ATOM      8  O   LIG    1       -1.190   3.349   0.026  0.00  0.00    -0.530 OA
ATOM      9  C   LIG    1        1.261   2.189   0.002  0.00  0.00    +0.270 C 
BRANCH   2  12
ATOM     10  C   LIG    1        5.026   4.140   1.572  0.00  0.00    +0.100 C 
ATOM     11  C   LIG    1        3.661   3.505   1.643  0.00  0.00    +0.510 C 
ATOM     12  N   LIG    1        3.452   2.294   1.089  0.00  0.00    -0.730 N 
ATOM     13  H   LIG    1        4.179   1.832   0.644  0.00  0.00    +0.400 HD
ATOM     14  O   LIG    1        2.752   4.083   2.199  0.00  0.00    -0.540 OA
ENDBRANCH   2  12
ENDBRANCH   1   7
BRANCH   1  15
ATOM     15  N   LIG    1       -3.606   2.328   0.032  0.00  0.00    -0.730 N 
ATOM     16  H   LIG    1       -3.431   3.282   0.036  0.00  0.00    +0.410 HD
BRANCH  15  17
ATOM     17  C   LIG    1       -4.923   1.859   0.036  0.00  0.00    +0.210 A 
ATOM     18  C   LIG    1       -5.173   0.492   0.024  0.00  0.00    -0.050 A 
ATOM     19  C   LIG    1       -6.473   0.029   0.033  0.00  0.00    +0.040 A 
ATOM     20  C   LIG    1       -7.531   0.929   0.043  0.00  0.00    +0.100 A 
ATOM     21  C   LIG    1       -7.281   2.295   0.049  0.00  0.00    +0.080 A 
ATOM     22  C   LIG    1       -5.981   2.759   0.045  0.00  0.00    -0.040 A 
BRANCH  20  23
ATOM     23  N   LIG    1       -8.853   0.458   0.046  0.00  0.00    -0.310 N 
ATOM     24  C   LIG    1       -9.235  -0.839   0.041  0.00  0.00    +0.230 A 
ATOM     25  C   LIG    1      -10.588  -0.869   0.047  0.00  0.00    -0.120 A 
ATOM     26  C   LIG    1      -11.049   0.452   0.056  0.00  0.00    +0.240 A 
ATOM     27  N   LIG    1      -10.009   1.248   0.062  0.00  0.00    -0.290 NA
ENDBRANCH  20  23
ENDBRANCH  15  17
ENDBRANCH   1  15
TORSDOF 5
