REMARK  Name = ZINCpk000004ATb9.0
REMARK                            x       y       z     vdW  Elec       q    Type
REMARK                         _______ _______ _______ _____ _____    ______ ____
ROOT
ATOM      1  C   LIG    1       -2.046   2.111   1.229  0.00  0.00    +0.560 C 
ATOM      2  N   LIG    1       -0.703   2.001   1.216  0.00  0.00    -0.720 N 
ATOM      3  H   LIG    1       -0.190   2.234   2.005  0.00  0.00    +0.400 HD
ATOM      4  O   LIG    1       -2.690   1.819   0.240  0.00  0.00    -0.520 OA
ENDROOT
BRANCH   2   5
ATOM      5  C   LIG    1       -0.019   1.528   0.010  0.00  0.00    +0.230 C 
ATOM      6  C   LIG    1        1.419   2.053  -0.001  0.00  0.00    +0.020 C 
ATOM      7  C   LIG    1        2.124   1.587  -1.276  0.00  0.00    +0.030 C 
ATOM      8  C   LIG    1        2.170   0.056  -1.299  0.00  0.00    +0.280 C 
ATOM      9  N   LIG    1        0.803  -0.460  -1.143  0.00  0.00    -0.590 N 
ATOM     10  C   LIG    1        0.293  -1.335  -2.032  0.00  0.00    +0.650 C 
ATOM     11  O   LIG    1       -0.839  -1.754  -1.892  0.00  0.00    -0.560 OA
ATOM     12  C   LIG    1        0.002  -0.004   0.002  0.00  0.00    +0.290 C 
BRANCH  10  13
ATOM     13  O   LIG    1        1.038  -1.744  -3.076  0.00  0.00    -0.370 OA
ATOM     14  C   LIG    1        0.424  -2.687  -3.994  0.00  0.00    +0.280 C 
ENDBRANCH  10  13
ENDBRANCH   2   5
BRANCH   1  18
ATOM     15  C   LIG    1       -4.032   3.482   4.725  0.00  0.00    -0.080 A 
ATOM     16  C   LIG    1       -4.767   3.151   3.601  0.00  0.00    +0.020 A 
ATOM     17  C   LIG    1       -4.128   2.705   2.462  0.00  0.00    +0.080 A 
ATOM     18  C   LIG    1       -2.737   2.589   2.446  0.00  0.00    -0.130 A 
ATOM     19  C   LIG    1       -2.002   2.920   3.585  0.00  0.00    +0.040 A 
ATOM     20  C   LIG    1       -2.652   3.369   4.715  0.00  0.00    +0.020 A 
BRANCH  15  21
ATOM     21  C   LIG    1       -4.736   3.968   5.966  0.00  0.00    +0.320 C 
BRANCH  21  23
ATOM     22  C   LIG    1       -5.705   3.020   7.990  0.00  0.00    +0.540 C 
ATOM     23  N   LIG    1       -5.067   2.824   6.819  0.00  0.00    -0.720 N 
ATOM     24  H   LIG    1       -4.828   1.926   6.541  0.00  0.00    +0.400 HD
ATOM     25  O   LIG    1       -6.005   4.146   8.338  0.00  0.00    -0.540 OA
BRANCH  22  27
ATOM     26  C   LIG    1       -6.668   2.064  10.002  0.00  0.00    +0.150 C 
ATOM     27  C   LIG    1       -6.038   1.871   8.847  0.00  0.00    -0.090 C 
ENDBRANCH  22  27
ENDBRANCH  21  23
ENDBRANCH  15  21
ENDBRANCH   1  18
TORSDOF 6
