REMARK  Name = ZINCb70000003XY8.0
REMARK                            x       y       z     vdW  Elec       q    Type
REMARK                         _______ _______ _______ _____ _____    ______ ____
ROOT
ATOM      1  C   LIG    1       -0.753   1.593  -1.232  0.00  0.00    +0.150 C 
ATOM      2  C   LIG    1       -0.145   0.943  -2.471  0.00  0.00    +0.020 C 
ATOM      3  C   LIG    1       -0.695   1.573  -3.766  0.00  0.00    +0.060 C 
ATOM      4  C   LIG    1       -0.466   3.067  -3.646  0.00  0.00    -0.060 C 
ATOM      5  C   LIG    1       -1.023   3.971  -4.743  0.00  0.00    +0.220 C 
ATOM      6  O   LIG    1       -1.489   5.173  -4.088  0.00  0.00    -0.370 OA
ATOM      7  C   LIG    1       -1.312   5.046  -2.655  0.00  0.00    +0.240 C 
ATOM      8  C   LIG    1       -1.309   3.536  -2.422  0.00  0.00    +0.130 C 
ATOM      9  O   LIG    1       -0.664   3.029  -1.274  0.00  0.00    -0.370 OA
ENDROOT
BRANCH   1  10
ATOM     10  C   LIG    1       -0.013   1.086   0.008  0.00  0.00    +0.290 C 
BRANCH  10  11
ATOM     11  N   LIG    1       -0.700   1.560   1.217  0.00  0.00    -0.640 N 
ATOM     12  H   LIG    1       -1.647   1.210   1.224  0.00  0.00    +0.430 HD
ATOM     13  H   LIG    1       -0.714   2.568   1.222  0.00  0.00    +0.440 HD
ATOM     14  H   LIG    1       -0.212   1.225   2.034  0.00  0.00    +0.440 HD
ENDBRANCH  10  11
ENDBRANCH   1  10
TORSDOF 2
