REMARK  Name = ZINCpe000000ZEbg.0
REMARK                            x       y       z     vdW  Elec       q    Type
REMARK                         _______ _______ _______ _____ _____    ______ ____
ROOT
ATOM      1  C   LIG    1        2.839  -3.242  -3.138  0.00  0.00    +0.520 C 
ATOM      2  N   LIG    1        2.205  -2.474  -2.230  0.00  0.00    -0.720 N 
ATOM      3  H   LIG    1        1.597  -1.778  -2.523  0.00  0.00    +0.410 HD
ATOM      4  O   LIG    1        3.599  -4.113  -2.771  0.00  0.00    -0.480 OA
ENDROOT
BRANCH   2   5
ATOM      5  C   LIG    1        2.434  -2.692  -0.799  0.00  0.00    +0.280 C 
ATOM      6  C   LIG    1        1.223  -2.193  -0.010  0.00  0.00    +0.140 C 
ATOM      7  C   LIG    1        1.198  -0.688  -0.018  0.00  0.00    -0.190 A 
ATOM      8  C   LIG    1        0.002  -0.004   0.002  0.00  0.00    +0.300 A 
ATOM      9  N   LIG    1       -0.016   1.317   0.009  0.00  0.00    -0.500 NA
ATOM     10  C   LIG    1        1.093   2.031   0.003  0.00  0.00    +0.300 A 
ATOM     11  C   LIG    1        2.331   1.419  -0.019  0.00  0.00    -0.070 A 
ATOM     12  C   LIG    1        2.390   0.029  -0.035  0.00  0.00    +0.210 A 
ATOM     13  N   LIG    1        3.612  -0.634  -0.078  0.00  0.00    -0.660 N 
ATOM     14  H   LIG    1        4.431  -0.146   0.106  0.00  0.00    +0.420 HD
ATOM     15  C   LIG    1        3.669  -1.946  -0.371  0.00  0.00    +0.510 C 
ATOM     16  O   LIG    1        4.727  -2.533  -0.291  0.00  0.00    -0.480 OA
ENDBRANCH   2   5
BRANCH   1  20
ATOM     17  O   LIG    1        4.385  -3.719  -7.430  0.00  0.00    -0.440 OA
ATOM     18  C   LIG    1        3.395  -3.725  -6.726  0.00  0.00    +0.530 C 
ATOM     19  O   LIG    1        3.484  -3.886  -5.381  0.00  0.00    -0.330 OA
ATOM     20  C   LIG    1        2.603  -3.018  -4.610  0.00  0.00    +0.200 C 
ATOM     21  C   LIG    1        1.148  -3.343  -4.949  0.00  0.00    +0.110 C 
ATOM     22  C   LIG    1        0.952  -3.367  -6.442  0.00  0.00    -0.040 A 
ATOM     23  C   LIG    1       -0.311  -3.200  -6.973  0.00  0.00    +0.020 A 
ATOM     24  C   LIG    1       -0.497  -3.225  -8.344  0.00  0.00    +0.050 A 
ATOM     25  C   LIG    1        0.578  -3.416  -9.194  0.00  0.00    +0.010 A 
ATOM     26  C   LIG    1        1.847  -3.583  -8.678  0.00  0.00    +0.090 A 
ATOM     27  C   LIG    1        2.039  -3.557  -7.298  0.00  0.00    -0.170 A 
ENDBRANCH   1  20
TORSDOF 2
