REMARK  Name = ZINCpe000000ZtoV.1
REMARK                            x       y       z     vdW  Elec       q    Type
REMARK                         _______ _______ _______ _____ _____    ______ ____
ROOT
ATOM      1  O   LIG    1        3.779   1.744   2.098  0.00  0.00    -0.520 OA
ATOM      2  C   LIG    1        4.178   2.432   1.182  0.00  0.00    +0.530 C 
ATOM      3  N   LIG    1        5.163   3.328   1.392  0.00  0.00    -0.620 N 
ATOM      4  C   LIG    1        5.662   4.164   0.291  0.00  0.00    +0.260 C 
ATOM      5  C   LIG    1        7.178   4.011   0.197  0.00  0.00    +0.020 C 
ATOM      6  C   LIG    1        7.806   4.322   1.558  0.00  0.00    +0.140 C 
ATOM      7  C   LIG    1        7.282   3.333   2.602  0.00  0.00    +0.010 C 
ATOM      8  C   LIG    1        5.763   3.483   2.724  0.00  0.00    +0.280 C 
ENDROOT
BRANCH   2   9
ATOM      9  C   LIG    1        3.574   2.285  -0.191  0.00  0.00    +0.020 C 
ATOM     10  C   LIG    1        2.782   3.554  -0.585  0.00  0.00    +0.260 C 
ATOM     11  O   LIG    1        1.444   3.239  -0.161  0.00  0.00    -0.300 OA
ATOM     12  C   LIG    1        1.270   1.890  -0.195  0.00  0.00    +0.110 A 
ATOM     13  C   LIG    1        0.096   1.141  -0.218  0.00  0.00    -0.010 A 
ATOM     14  C   LIG    1        0.151  -0.237  -0.233  0.00  0.00    +0.050 A 
ATOM     15  C   LIG    1        1.371  -0.888  -0.225  0.00  0.00    -0.020 A 
ATOM     16  C   LIG    1        2.542  -0.151  -0.205  0.00  0.00    +0.070 A 
ATOM     17  C   LIG    1        2.490   1.225  -0.194  0.00  0.00    -0.150 A 
ENDBRANCH   2   9
BRANCH   6  18
ATOM     18  O   LIG    1        7.460   5.653   1.948  0.00  0.00    -0.550 OA
ATOM     19  H   LIG    1        6.509   5.804   2.031  0.00  0.00    +0.370 HD
ENDBRANCH   6  18
BRANCH   6  20
ATOM     20  C   LIG    1        9.328   4.199   1.458  0.00  0.00    +0.210 C 
BRANCH  20  21
ATOM     21  N   LIG    1        9.816   5.042   0.358  0.00  0.00    -0.530 NA
ATOM     22  C   LIG    1       11.144   4.602  -0.094  0.00  0.00    +0.130 C 
ATOM     23  C   LIG    1       11.587   5.466  -1.277  0.00  0.00    +0.220 C 
ATOM     24  O   LIG    1       11.577   6.842  -0.885  0.00  0.00    -0.390 OA
ATOM     25  C   LIG    1       10.299   7.304  -0.440  0.00  0.00    +0.220 C 
ATOM     26  C   LIG    1        9.842   6.458   0.751  0.00  0.00    +0.160 C 
ENDBRANCH  20  21
ENDBRANCH   6  20
TORSDOF 4
