REMARK  Name = ZINCrD00000l5oZk.0
REMARK                            x       y       z     vdW  Elec       q    Type
REMARK                         _______ _______ _______ _____ _____    ______ ____
ROOT
ATOM      1  C   LIG    1       -2.356   1.298  -2.822  0.00  0.00    +0.630 A 
ATOM      2  N   LIG    1       -1.719   0.866  -1.737  0.00  0.00    -0.610 NA
ATOM      3  C   LIG    1       -0.757   1.595  -1.199  0.00  0.00    +0.430 A 
ATOM      4  N   LIG    1       -0.418   2.751  -1.742  0.00  0.00    -0.610 NA
ATOM      5  C   LIG    1       -1.047   3.187  -2.831  0.00  0.00    +0.630 A 
ATOM      6  N   LIG    1       -2.018   2.459  -3.372  0.00  0.00    -0.630 NA
ENDROOT
BRANCH   5   7
ATOM      7  N   LIG    1       -0.691   4.394  -3.398  0.00  0.00    -0.800 N 
ATOM      8  H   LIG    1       -1.150   4.711  -4.191  0.00  0.00    +0.420 HD
ATOM      9  H   LIG    1        0.018   4.925  -3.002  0.00  0.00    +0.420 HD
ENDBRANCH   5   7
BRANCH   1  10
ATOM     10  N   LIG    1       -3.365   0.536  -3.381  0.00  0.00    -0.620 N 
ATOM     11  H   LIG    1       -3.554  -0.349  -3.032  0.00  0.00    +0.430 HD
BRANCH  10  18
ATOM     12  C   LIG    1       -4.598  -1.317  -5.153  0.00  0.00    +0.080 C 
ATOM     13  C   LIG    1       -4.731   0.172  -5.339  0.00  0.00    -0.110 A 
ATOM     14  C   LIG    1       -5.474   0.675  -6.389  0.00  0.00    +0.030 A 
ATOM     15  C   LIG    1       -5.591   2.042  -6.563  0.00  0.00    -0.010 A 
ATOM     16  C   LIG    1       -4.971   2.910  -5.684  0.00  0.00    +0.010 A 
ATOM     17  C   LIG    1       -4.232   2.414  -4.627  0.00  0.00    +0.030 A 
ATOM     18  C   LIG    1       -4.112   1.042  -4.449  0.00  0.00    +0.160 A 
ENDBRANCH  10  18
ENDBRANCH   1  10
BRANCH   3  19
ATOM     19  C   LIG    1       -0.042   1.105   0.034  0.00  0.00    +0.340 C 
BRANCH  19  20
ATOM     20  O   LIG    1       -0.731   1.588   1.217  0.00  0.00    -0.350 OA
BRANCH  20  21
ATOM     21  C   LIG    1       -0.217   1.237   2.407  0.00  0.00    +0.470 C 
ATOM     22  O   LIG    1        0.775   0.550   2.457  0.00  0.00    -0.500 OA
BRANCH  21  23
ATOM     23  C   LIG    1       -0.878   1.701   3.679  0.00  0.00    +0.110 C 
BRANCH  23  24
ATOM     24  C   LIG    1       -0.099   1.167   4.883  0.00  0.00    +0.000 C 
ATOM     25  C   LIG    1        1.305   1.810   4.944  0.00  0.00    +0.020 C 
ATOM     26  C   LIG    1        1.331   2.570   6.306  0.00  0.00    -0.010 C 
ATOM     27  C   LIG    1        1.366   1.442   7.382  0.00  0.00    +0.000 C 
ATOM     28  C   LIG    1       -0.038   0.799   7.320  0.00  0.00    +0.010 C 
ATOM     29  C   LIG    1       -0.167   3.026   6.412  0.00  0.00    +0.010 C 
ATOM     30  C   LIG    1       -0.789   1.599   6.213  0.00  0.00    +0.000 C 
ENDBRANCH  23  24
ENDBRANCH  21  23
ENDBRANCH  20  21
ENDBRANCH  19  20
ENDBRANCH   3  19
TORSDOF 8
