REMARK  Name = ZINCkj000005lcWE.0
REMARK                            x       y       z     vdW  Elec       q    Type
REMARK                         _______ _______ _______ _____ _____    ______ ____
ROOT
ATOM      1  N   LIG    1        0.257   6.032   2.637  0.00  0.00    -0.660 N 
ATOM      2  H   LIG    1       -0.131   5.500   3.349  0.00  0.00    +0.420 HD
ATOM      3  C   LIG    1        0.725   5.430   1.525  0.00  0.00    +0.520 C 
ATOM      4  O   LIG    1        1.134   6.099   0.601  0.00  0.00    -0.500 OA
ENDROOT
BRANCH   1  10
ATOM      5  C   LIG    1        0.565   8.001   4.018  0.00  0.00    -0.050 A 
ATOM      6  C   LIG    1        0.636   9.391   4.130  0.00  0.00    +0.090 A 
ATOM      7  C   LIG    1        0.475  10.180   3.011  0.00  0.00    +0.020 A 
ATOM      8  C   LIG    1        0.243   9.602   1.775  0.00  0.00    +0.070 A 
ATOM      9  C   LIG    1        0.176   8.228   1.647  0.00  0.00    +0.030 A 
ATOM     10  C   LIG    1        0.330   7.418   2.763  0.00  0.00    +0.180 A 
BRANCH   5  12
ATOM     11  N   LIG    1        0.864   6.519   6.094  0.00  0.00    -0.400 NA
ATOM     12  C   LIG    1        0.732   7.175   5.175  0.00  0.00    +0.240 C 
ENDBRANCH   5  12
ENDBRANCH   1  10
BRANCH   3  13
ATOM     13  C   LIG    1        0.739   3.926   1.431  0.00  0.00    +0.070 C 
BRANCH  13  14
ATOM     14  C   LIG    1        1.314   3.505   0.077  0.00  0.00    +0.290 C 
BRANCH  14  15
ATOM     15  N   LIG    1        1.328   2.039  -0.014  0.00  0.00    -0.380 N 
ATOM     16  C   LIG    1       -0.051   1.537  -0.004  0.00  0.00    +0.240 C 
ATOM     17  C   LIG    1       -0.041   0.006  -0.018  0.00  0.00    +0.070 C 
ATOM     18  C   LIG    1        0.673  -0.483  -1.281  0.00  0.00    +0.020 C 
ATOM     19  C   LIG    1        2.086   0.108  -1.318  0.00  0.00    +0.170 C 
ATOM     20  C   LIG    1        1.996   1.634  -1.256  0.00  0.00    +0.280 C 
ATOM     21  H   LIG    1        1.829   1.659   0.775  0.00  0.00    +0.420 HD
BRANCH  19  22
ATOM     22  O   LIG    1        2.735  -0.284  -2.529  0.00  0.00    -0.550 OA
ATOM     23  H   LIG    1        2.823  -1.241  -2.637  0.00  0.00    +0.410 HD
ENDBRANCH  19  22
ENDBRANCH  14  15
ENDBRANCH  13  14
ENDBRANCH   3  13
TORSDOF 6
