REMARK  Name = ZINCkj000005lcWE.1
REMARK                            x       y       z     vdW  Elec       q    Type
REMARK                         _______ _______ _______ _____ _____    ______ ____
ROOT
ATOM      1  N   LIG    1        2.407   1.477  -0.013  0.00  0.00    -0.660 N 
ATOM      2  H   LIG    1        2.429   0.510   0.063  0.00  0.00    +0.420 HD
ATOM      3  C   LIG    1        3.557   2.171  -0.122  0.00  0.00    +0.520 C 
ATOM      4  O   LIG    1        3.537   3.384  -0.115  0.00  0.00    -0.500 OA
ENDROOT
BRANCH   1  10
ATOM      5  C   LIG    1        0.063   1.569   0.602  0.00  0.00    -0.060 A 
ATOM      6  C   LIG    1       -1.156   2.250   0.595  0.00  0.00    +0.090 A 
ATOM      7  C   LIG    1       -1.247   3.490  -0.001  0.00  0.00    +0.010 A 
ATOM      8  C   LIG    1       -0.138   4.060  -0.604  0.00  0.00    +0.080 A 
ATOM      9  C   LIG    1        1.073   3.395  -0.609  0.00  0.00    +0.020 A 
ATOM     10  C   LIG    1        1.185   2.149  -0.009  0.00  0.00    +0.180 A 
BRANCH   5  12
ATOM     11  N   LIG    1        0.248  -0.736   1.719  0.00  0.00    -0.400 NA
ATOM     12  C   LIG    1        0.166   0.283   1.225  0.00  0.00    +0.240 C 
ENDBRANCH   5  12
ENDBRANCH   1  10
BRANCH   3  13
ATOM     13  C   LIG    1        4.868   1.440  -0.251  0.00  0.00    +0.070 C 
BRANCH  13  14
ATOM     14  C   LIG    1        6.009   2.454  -0.358  0.00  0.00    +0.290 C 
BRANCH  14  15
ATOM     15  N   LIG    1        7.287   1.741  -0.484  0.00  0.00    -0.380 N 
ATOM     16  C   LIG    1        7.548   0.985   0.747  0.00  0.00    +0.240 C 
ATOM     17  C   LIG    1        8.838   0.177   0.590  0.00  0.00    +0.060 C 
ATOM     18  C   LIG    1       10.004   1.133   0.319  0.00  0.00    +0.020 C 
ATOM     19  C   LIG    1        9.687   1.968  -0.925  0.00  0.00    +0.180 C 
ATOM     20  C   LIG    1        8.366   2.710  -0.710  0.00  0.00    +0.280 C 
ATOM     21  H   LIG    1        7.240   1.103  -1.265  0.00  0.00    +0.430 HD
BRANCH  19  22
ATOM     22  O   LIG    1        9.575   1.108  -2.061  0.00  0.00    -0.570 OA
ATOM     23  H   LIG    1       10.377   0.604  -2.253  0.00  0.00    +0.410 HD
ENDBRANCH  19  22
ENDBRANCH  14  15
ENDBRANCH  13  14
ENDBRANCH   3  13
TORSDOF 6
