REMARK  Name = ZINCtV000002LHvu.0
REMARK                            x       y       z     vdW  Elec       q    Type
REMARK                         _______ _______ _______ _____ _____    ______ ____
ROOT
ATOM      1  C   LIG    1       -1.271   2.547   0.022  0.00  0.00    +0.240 C 
ENDROOT
BRANCH   1   2
ATOM      2  C   LIG    1       -0.021   1.705   0.011  0.00  0.00    +0.020 A 
ATOM      3  N   LIG    1        1.179   2.172   0.003  0.00  0.00    -0.440 NA
ATOM      4  C   LIG    1        2.170   1.292  -0.012  0.00  0.00    +0.100 A 
ATOM      5  C   LIG    1        1.764   0.006  -0.015  0.00  0.00    -0.060 A 
ATOM      6  S   LIG    1        0.002  -0.004   0.002  0.00  0.00    +0.220 S 
BRANCH   4   7
ATOM      7  C   LIG    1        3.600   1.687  -0.024  0.00  0.00    -0.020 A 
ATOM      8  C   LIG    1        4.595   0.711  -0.033  0.00  0.00    +0.050 A 
ATOM      9  C   LIG    1        5.923   1.083  -0.049  0.00  0.00    +0.030 A 
ATOM     10  C   LIG    1        6.269   2.424  -0.045  0.00  0.00    -0.030 A 
ATOM     11  C   LIG    1        5.285   3.397  -0.030  0.00  0.00    +0.030 A 
ATOM     12 CL   LIG    1        7.942   2.885  -0.059  0.00  0.00    -0.070 Cl
ATOM     13  C   LIG    1        3.953   3.035  -0.020  0.00  0.00    +0.070 A 
ENDBRANCH   4   7
ENDBRANCH   1   2
BRANCH   1  15
ATOM     14  N   LIG    1       -2.690   2.024  -2.103  0.00  0.00    -0.370 NA
ATOM     15  C   LIG    1       -2.072   2.252  -1.177  0.00  0.00    +0.210 C 
ENDBRANCH   1  15
BRANCH   1  16
ATOM     16  C   LIG    1       -2.078   2.232   1.255  0.00  0.00    +0.430 C 
ATOM     17  O   LIG    1       -1.962   1.154   1.797  0.00  0.00    -0.400 OA
BRANCH  16  18
ATOM     18  C   LIG    1       -3.010   3.237   1.803  0.00  0.00    +0.050 A 
ATOM     19  C   LIG    1       -3.753   2.939   2.943  0.00  0.00    +0.050 A 
ATOM     20  C   LIG    1       -4.630   3.903   3.448  0.00  0.00    -0.000 A 
ATOM     21  C   LIG    1       -4.723   5.127   2.783  0.00  0.00    +0.020 A 
ATOM     22  C   LIG    1       -3.949   5.344   1.655  0.00  0.00    +0.280 A 
ATOM     23  N   LIG    1       -3.128   4.420   1.207  0.00  0.00    -0.450 NA
BRANCH  20  24
ATOM     24  C   LIG    1       -5.443   3.632   4.660  0.00  0.00    -0.060 A 
ATOM     25  C   LIG    1       -5.343   2.402   5.308  0.00  0.00    +0.030 A 
ATOM     26  C   LIG    1       -6.098   2.157   6.437  0.00  0.00    +0.010 A 
ATOM     27  C   LIG    1       -6.961   3.126   6.919  0.00  0.00    +0.020 A 
ATOM     28  C   LIG    1       -7.067   4.346   6.277  0.00  0.00    +0.010 A 
ATOM     29  C   LIG    1       -6.313   4.604   5.150  0.00  0.00    +0.030 A 
ENDBRANCH  20  24
ENDBRANCH  16  18
ENDBRANCH   1  16
TORSDOF 6
