REMARK  Name = ZINCtV000002McLw.0
REMARK                            x       y       z     vdW  Elec       q    Type
REMARK                         _______ _______ _______ _____ _____    ______ ____
ROOT
ATOM      1  O   LIG    1       -1.712   5.260  -1.877  0.00  0.00    -0.500 OA
ATOM      2  C   LIG    1       -1.363   4.137  -2.174  0.00  0.00    +0.510 C 
ATOM      3  N   LIG    1       -1.519   3.128  -1.294  0.00  0.00    -0.620 N 
ATOM      4  C   LIG    1       -1.221   1.740  -1.676  0.00  0.00    +0.290 C 
ATOM      5  C   LIG    1       -0.037   1.247  -0.838  0.00  0.00    +0.110 C 
ATOM      6  C   LIG    1       -0.254   1.642   0.608  0.00  0.00    -0.170 A 
ATOM      7  C   LIG    1       -1.113   2.590   1.030  0.00  0.00    -0.120 A 
ATOM      8  C   LIG    1       -1.119   2.768   2.409  0.00  0.00    +0.020 A 
ATOM      9  C   LIG    1       -0.294   1.982   3.094  0.00  0.00    -0.040 A 
ATOM     10  S   LIG    1        0.574   0.931   1.986  0.00  0.00    +0.110 S 
ATOM     11  C   LIG    1       -1.993   3.387   0.073  0.00  0.00    +0.390 C 
ENDROOT
BRANCH  11  12
ATOM     12  C   LIG    1       -1.883   4.858   0.382  0.00  0.00    -0.140 A 
ATOM     13  C   LIG    1       -2.896   5.644   0.749  0.00  0.00    +0.000 A 
ATOM     14  C   LIG    1       -2.554   6.966   0.982  0.00  0.00    +0.000 A 
ATOM     15  C   LIG    1       -1.263   7.252   0.803  0.00  0.00    -0.050 A 
ATOM     16  S   LIG    1       -0.398   5.798   0.321  0.00  0.00    +0.130 S 
ENDBRANCH  11  12
BRANCH   2  17
ATOM     17  C   LIG    1       -0.753   3.869  -3.526  0.00  0.00    +0.060 C 
BRANCH  17  18
ATOM     18  C   LIG    1       -0.690   5.173  -4.324  0.00  0.00    +0.170 C 
BRANCH  18  19
ATOM     19  C   LIG    1       -0.081   4.906  -5.676  0.00  0.00    -0.000 A 
ATOM     20  C   LIG    1       -0.759   4.564  -6.789  0.00  0.00    -0.050 A 
ATOM     21  C   LIG    1        0.190   4.410  -7.820  0.00  0.00    -0.040 A 
ATOM     22  C   LIG    1        1.407   4.669  -7.272  0.00  0.00    +0.030 A 
ATOM     23  O   LIG    1        1.227   4.973  -5.973  0.00  0.00    -0.170 OA
BRANCH  22  24
ATOM     24  C   LIG    1        2.703   4.628  -7.982  0.00  0.00    -0.020 A 
ATOM     25  C   LIG    1        2.751   4.296  -9.337  0.00  0.00    +0.030 A 
ATOM     26  C   LIG    1        3.963   4.266  -9.994  0.00  0.00    +0.010 A 
ATOM     27  C   LIG    1        5.131   4.553  -9.311  0.00  0.00    +0.020 A 
ATOM     28  C   LIG    1        5.092   4.877  -7.967  0.00  0.00    +0.010 A 
ATOM     29  C   LIG    1        3.886   4.916  -7.298  0.00  0.00    +0.030 A 
ENDBRANCH  22  24
ENDBRANCH  18  19
ENDBRANCH  17  18
ENDBRANCH   2  17
TORSDOF 5
