REMARK  Name = ZINCpk00000jW36K.1
REMARK                            x       y       z     vdW  Elec       q    Type
REMARK                         _______ _______ _______ _____ _____    ______ ____
ROOT
ATOM      1  C   LIG    1       -2.127   1.871   6.042  0.00  0.00    +0.260 C 
ATOM      2  C   LIG    1       -1.243   1.698   7.290  0.00  0.00    +0.280 C 
ATOM      3  N   LIG    1       -2.435   1.107   7.929  0.00  0.00    -0.640 N 
ATOM      4  C   LIG    1       -2.853   0.970   9.203  0.00  0.00    +0.600 C 
ATOM      5  O   LIG    1       -3.956   0.514   9.435  0.00  0.00    -0.530 OA
ATOM      6  C   LIG    1       -2.985   0.727   6.613  0.00  0.00    +0.280 C 
ENDROOT
BRANCH   4   7
ATOM      7  C   LIG    1       -1.972   1.373  10.317  0.00  0.00    -0.220 A 
ATOM      8  C   LIG    1       -2.445   1.367  11.634  0.00  0.00    +0.380 A 
ATOM      9  N   LIG    1       -1.677   1.722  12.639  0.00  0.00    -0.500 NA
ATOM     10  C   LIG    1       -0.418   2.103  12.458  0.00  0.00    +0.300 A 
ATOM     11  N   LIG    1        0.568   2.512  13.320  0.00  0.00    -0.580 N 
ATOM     12  H   LIG    1        0.469   2.587  14.282  0.00  0.00    +0.420 HD
ATOM     13  C   LIG    1        1.712   2.800  12.625  0.00  0.00    +0.240 A 
ATOM     14  C   LIG    1        1.515   2.593  11.314  0.00  0.00    -0.030 A 
ATOM     15  C   LIG    1        0.132   2.136  11.160  0.00  0.00    -0.160 A 
ATOM     16  C   LIG    1       -0.651   1.760  10.071  0.00  0.00    +0.150 A 
ENDBRANCH   4   7
BRANCH   1  18
ATOM     17  C   LIG    1       -0.502   0.415   4.746  0.00  0.00    +0.290 C 
ATOM     18  N   LIG    1       -1.451   1.531   4.787  0.00  0.00    -0.610 N 
ATOM     19  C   LIG    1       -1.701   2.245   3.672  0.00  0.00    +0.520 C 
ATOM     20  O   LIG    1       -2.486   3.169   3.707  0.00  0.00    -0.520 OA
BRANCH  19  21
ATOM     21  C   LIG    1       -1.005   1.896   2.382  0.00  0.00    +0.090 C 
BRANCH  21  22
ATOM     22  C   LIG    1       -1.463   2.853   1.280  0.00  0.00    +0.170 C 
ATOM     23  C   LIG    1       -0.671   2.598  -0.028  0.00  0.00    +0.010 C 
ATOM     24  C   LIG    1       -1.643   3.136  -1.107  0.00  0.00    +0.000 C 
ATOM     25  C   LIG    1       -3.020   3.123  -0.414  0.00  0.00    +0.190 C 
ATOM     26  O   LIG    1       -2.830   2.580   0.903  0.00  0.00    -0.370 OA
ENDBRANCH  21  22
ENDBRANCH  19  21
ENDBRANCH   1  18
TORSDOF 4
