REMARK  Name = ZINCpk00000jW36K.0
REMARK                            x       y       z     vdW  Elec       q    Type
REMARK                         _______ _______ _______ _____ _____    ______ ____
ROOT
ATOM      1  C   LIG    1        7.604  -0.064  -0.516  0.00  0.00    +0.260 C 
ATOM      2  C   LIG    1        7.741   1.307   0.161  0.00  0.00    +0.270 C 
ATOM      3  N   LIG    1        6.281   1.448   0.052  0.00  0.00    -0.640 N 
ATOM      4  C   LIG    1        5.409   2.472  -0.036  0.00  0.00    +0.610 C 
ATOM      5  O   LIG    1        5.819   3.613  -0.137  0.00  0.00    -0.530 OA
ATOM      6  C   LIG    1        6.191  -0.019   0.087  0.00  0.00    +0.270 C 
ENDROOT
BRANCH   4   7
ATOM      7  C   LIG    1        3.957   2.210  -0.010  0.00  0.00    -0.240 A 
ATOM      8  C   LIG    1        3.067   3.247  -0.238  0.00  0.00    +0.400 A 
ATOM      9  N   LIG    1        1.742   3.061  -0.226  0.00  0.00    -0.490 N 
ATOM     10  H   LIG    1        1.151   3.812  -0.390  0.00  0.00    +0.430 HD
ATOM     11  C   LIG    1        1.210   1.819   0.018  0.00  0.00    +0.240 A 
ATOM     12  N   LIG    1       -0.016   1.337   0.093  0.00  0.00    -0.520 NA
ATOM     13  C   LIG    1        0.001   0.030   0.360  0.00  0.00    +0.220 A 
ATOM     14  C   LIG    1        1.275  -0.423   0.477  0.00  0.00    -0.080 A 
ATOM     15  C   LIG    1        2.118   0.692   0.265  0.00  0.00    -0.170 A 
ATOM     16  C   LIG    1        3.488   0.910   0.246  0.00  0.00    +0.190 A 
ENDBRANCH   4   7
BRANCH   1  18
ATOM     17  C   LIG    1        8.329  -1.476   1.463  0.00  0.00    +0.290 C 
ATOM     18  N   LIG    1        8.465  -1.104   0.053  0.00  0.00    -0.610 N 
ATOM     19  C   LIG    1        9.382  -1.718  -0.721  0.00  0.00    +0.520 C 
ATOM     20  O   LIG    1        9.494  -1.410  -1.888  0.00  0.00    -0.520 OA
BRANCH  19  21
ATOM     21  C   LIG    1       10.267  -2.788  -0.135  0.00  0.00    +0.070 C 
BRANCH  21  22
ATOM     22  C   LIG    1       11.210  -3.318  -1.217  0.00  0.00    +0.170 C 
ATOM     23  C   LIG    1       12.203  -4.322  -0.600  0.00  0.00    +0.010 C 
ATOM     24  C   LIG    1       11.963  -5.630  -1.393  0.00  0.00    +0.000 C 
ATOM     25  C   LIG    1       11.290  -5.106  -2.687  0.00  0.00    +0.190 C 
ATOM     26  O   LIG    1       10.458  -4.022  -2.219  0.00  0.00    -0.360 OA
ENDBRANCH  21  22
ENDBRANCH  19  21
ENDBRANCH   1  18
TORSDOF 4
