REMARK  Name = ZINCrH000004mB2s.0
REMARK                            x       y       z     vdW  Elec       q    Type
REMARK                         _______ _______ _______ _____ _____    ______ ____
ROOT
ATOM      1  N   LIG    1        1.625   3.275   0.004  0.00  0.00    -0.730 N 
ATOM      2  H   LIG    1        0.879   3.895   0.015  0.00  0.00    +0.400 HD
ATOM      3  C   LIG    1        1.397   1.946  -0.001  0.00  0.00    +0.510 C 
ATOM      4  O   LIG    1        2.329   1.171  -0.014  0.00  0.00    -0.510 OA
ENDROOT
BRANCH   1   5
ATOM      5  C   LIG    1        2.999   3.782  -0.006  0.00  0.00    +0.270 C 
BRANCH   5   6
ATOM      6  C   LIG    1        2.978   5.312   0.002  0.00  0.00    +0.070 C 
BRANCH   6  10
ATOM      7  C   LIG    1        6.990   6.793  -0.022  0.00  0.00    +0.100 A 
ATOM      8  C   LIG    1        6.348   6.545   1.180  0.00  0.00    -0.030 A 
ATOM      9  C   LIG    1        5.048   6.071   1.184  0.00  0.00    +0.020 A 
ATOM     10  C   LIG    1        4.392   5.833  -0.009  0.00  0.00    -0.080 A 
ATOM     11  C   LIG    1        5.028   6.078  -1.212  0.00  0.00    -0.030 A 
ATOM     12  C   LIG    1        6.327   6.558  -1.223  0.00  0.00    +0.100 A 
BRANCH   7  14
ATOM     13  C   LIG    1        8.883   7.481   1.242  0.00  0.00    +0.250 C 
ATOM     14  O   LIG    1        8.266   7.264  -0.028  0.00  0.00    -0.310 OA
ENDBRANCH   7  14
BRANCH  12  15
ATOM     15  O   LIG    1        6.954   6.800  -2.406  0.00  0.00    -0.310 OA
ATOM     16  C   LIG    1        6.213   6.536  -3.599  0.00  0.00    +0.240 C 
ENDBRANCH  12  15
ENDBRANCH   6  10
ENDBRANCH   5   6
ENDBRANCH   1   5
BRANCH   3  17
ATOM     17  C   LIG    1       -0.017   1.425   0.010  0.00  0.00    +0.220 C 
BRANCH  17  18
ATOM     18  O   LIG    1        0.002  -0.004   0.002  0.00  0.00    -0.290 OA
BRANCH  18  19
ATOM     19  C   LIG    1       -1.200  -0.637   0.010  0.00  0.00    +0.120 A 
ATOM     20  C   LIG    1       -2.374   0.101   0.031  0.00  0.00    -0.080 A 
ATOM     21  C   LIG    1       -3.595  -0.545   0.034  0.00  0.00    +0.050 A 
ATOM     22  C   LIG    1       -3.648  -1.927   0.026  0.00  0.00    -0.110 A 
ATOM     23  C   LIG    1       -2.479  -2.665   0.011  0.00  0.00    +0.060 A 
ATOM     24  C   LIG    1       -1.255  -2.024   0.003  0.00  0.00    -0.010 A 
BRANCH  22  25
ATOM     25  C   LIG    1       -4.981  -2.629   0.035  0.00  0.00    -0.030 C 
ATOM     26  C   LIG    1       -5.108  -3.498  -1.217  0.00  0.00    +0.040 C 
ATOM     27  C   LIG    1       -6.104  -1.591   0.052  0.00  0.00    +0.030 C 
ATOM     28  C   LIG    1       -5.084  -3.512   1.281  0.00  0.00    +0.040 C 
ENDBRANCH  22  25
ENDBRANCH  18  19
ENDBRANCH  17  18
ENDBRANCH   3  17
TORSDOF 9
