REMARK  Name = ZINCqH000000757H.0
REMARK                            x       y       z     vdW  Elec       q    Type
REMARK                         _______ _______ _______ _____ _____    ______ ____
ROOT
ATOM      1  C   LIG    1       -0.718   1.572   1.248  0.00  0.00    +0.520 C 
ATOM      2  N   LIG    1       -0.242   1.246   2.466  0.00  0.00    -0.730 N 
ATOM      3  H   LIG    1        0.555   0.699   2.544  0.00  0.00    +0.400 HD
ATOM      4  O   LIG    1       -1.714   2.256   1.150  0.00  0.00    -0.530 OA
ENDROOT
BRANCH   1   5
ATOM      5  C   LIG    1       -0.013   1.086   0.008  0.00  0.00    +0.130 C 
BRANCH   5  11
ATOM      6  C   LIG    1       -0.467   2.853  -1.714  0.00  0.00    +0.180 A 
ATOM      7  C   LIG    1       -1.135   3.321  -2.840  0.00  0.00    -0.080 A 
ATOM      8  C   LIG    1       -2.072   2.528  -3.463  0.00  0.00    +0.110 A 
ATOM      9  C   LIG    1       -2.348   1.251  -2.959  0.00  0.00    -0.210 A 
ATOM     10  C   LIG    1       -1.666   0.788  -1.827  0.00  0.00    +0.130 A 
ATOM     11  C   LIG    1       -0.742   1.585  -1.213  0.00  0.00    -0.110 A 
BRANCH   9  12
ATOM     12  C   LIG    1       -3.346   0.399  -3.617  0.00  0.00    +0.400 C 
ATOM     13  O   LIG    1       -3.584  -0.706  -3.178  0.00  0.00    -0.460 OA
ATOM     14  C   LIG    1       -4.075   0.898  -4.838  0.00  0.00    +0.080 C 
ENDBRANCH   9  12
BRANCH   6  16
ATOM     15  C   LIG    1        0.691   4.927  -1.668  0.00  0.00    +0.240 C 
ATOM     16  O   LIG    1        0.457   3.636  -1.101  0.00  0.00    -0.310 OA
ENDBRANCH   6  16
ENDBRANCH   5  11
ENDBRANCH   1   5
BRANCH   2  17
ATOM     17  C   LIG    1       -0.927   1.718   3.671  0.00  0.00    +0.320 C 
BRANCH  17  18
ATOM     18  C   LIG    1       -0.198   1.219   4.892  0.00  0.00    -0.110 A 
ATOM     19  C   LIG    1       -0.546   0.006   5.456  0.00  0.00    +0.070 A 
ATOM     20  C   LIG    1        0.126  -0.454   6.574  0.00  0.00    +0.020 A 
ATOM     21  C   LIG    1        1.138   0.304   7.132  0.00  0.00    +0.080 A 
ATOM     22  C   LIG    1        1.482   1.519   6.571  0.00  0.00    -0.180 A 
ATOM     23  C   LIG    1        0.814   1.977   5.451  0.00  0.00    +0.090 A 
BRANCH  22  24
ATOM     24  C   LIG    1        2.586   2.345   7.179  0.00  0.00    +0.510 C 
ATOM     25  F   LIG    1        3.213   3.096   6.179  0.00  0.00    -0.180 F 
ATOM     26  F   LIG    1        3.523   1.499   7.783  0.00  0.00    -0.180 F 
ATOM     27  F   LIG    1        2.047   3.207   8.141  0.00  0.00    -0.170 F 
ENDBRANCH  22  24
ENDBRANCH  17  18
ENDBRANCH   2  17
TORSDOF 7
