REMARK  Name = ZINCpk00000ebBh5.0
REMARK                            x       y       z     vdW  Elec       q    Type
REMARK                         _______ _______ _______ _____ _____    ______ ____
ROOT
ATOM      1  O   LIG    1       -1.283  -2.936   2.429  0.00  0.00    -0.580 OA
ATOM      2  C   LIG    1       -2.092  -2.028   2.389  0.00  0.00    +0.730 C 
ATOM      3  N   LIG    1       -3.409  -2.302   2.301  0.00  0.00    -0.630 N 
ATOM      4  C   LIG    1       -4.502  -1.327   2.250  0.00  0.00    +0.310 C 
ATOM      5  C   LIG    1       -5.796  -2.094   2.152  0.00  0.00    -0.110 A 
ATOM      6  C   LIG    1       -7.109  -1.661   2.074  0.00  0.00    +0.040 A 
ATOM      7  C   LIG    1       -8.138  -2.581   1.996  0.00  0.00    +0.020 A 
ATOM      8  C   LIG    1       -7.856  -3.934   1.997  0.00  0.00    +0.020 A 
ATOM      9  C   LIG    1       -6.546  -4.366   2.075  0.00  0.00    +0.040 A 
ATOM     10  C   LIG    1       -5.515  -3.446   2.153  0.00  0.00    -0.100 A 
ATOM     11  C   LIG    1       -4.022  -3.633   2.245  0.00  0.00    +0.330 C 
ATOM     12  N   LIG    1       -1.671  -0.749   2.431  0.00  0.00    -0.730 N 
ATOM     13  H   LIG    1       -2.316  -0.025   2.399  0.00  0.00    +0.410 HD
ENDROOT
BRANCH  12  14
ATOM     14  C   LIG    1       -0.240  -0.451   2.527  0.00  0.00    +0.290 C 
BRANCH  14  15
ATOM     15  C   LIG    1       -0.043   1.056   2.706  0.00  0.00    +0.150 C 
BRANCH  15  16
ATOM     16  N   LIG    1       -0.893   1.778   1.750  0.00  0.00    -0.530 NA
ATOM     17  C   LIG    1       -0.552   1.419   0.366  0.00  0.00    +0.150 C 
ATOM     18  C   LIG    1       -1.498   2.147  -0.593  0.00  0.00    +0.230 C 
ATOM     19  O   LIG    1       -1.412   3.555  -0.362  0.00  0.00    -0.380 OA
ATOM     20  C   LIG    1       -1.740   3.941   0.976  0.00  0.00    +0.220 C 
ATOM     21  C   LIG    1       -0.796   3.231   1.951  0.00  0.00    +0.150 C 
ENDBRANCH  15  16
BRANCH  15  22
ATOM     22  C   LIG    1       -0.428   1.454   4.133  0.00  0.00    -0.030 C 
ATOM     23  C   LIG    1        0.534   0.815   5.163  0.00  0.00    +0.010 C 
ATOM     24  C   LIG    1       -0.388   0.369   6.315  0.00  0.00    +0.190 C 
ATOM     25  O   LIG    1       -1.724   0.772   5.973  0.00  0.00    -0.380 OA
ATOM     26  C   LIG    1       -1.791   0.834   4.531  0.00  0.00    +0.210 C 
ENDBRANCH  15  22
ENDBRANCH  14  15
ENDBRANCH  12  14
TORSDOF 4
