REMARK  Name = ZINCrH00000tj0Wx.0
REMARK                            x       y       z     vdW  Elec       q    Type
REMARK                         _______ _______ _______ _____ _____    ______ ____
ROOT
ATOM      1  C   LIG    1        0.658  -4.948  -0.030  0.00  0.00    +0.120 C 
ATOM      2  C   LIG    1       -0.556  -4.055  -0.014  0.00  0.00    +0.010 A 
ATOM      3  C   LIG    1       -0.393  -2.680  -0.009  0.00  0.00    -0.100 A 
ATOM      4  C   LIG    1       -1.498  -1.846   0.006  0.00  0.00    +0.200 A 
ATOM      5  C   LIG    1       -2.785  -2.407   0.021  0.00  0.00    -0.170 A 
ATOM      6  C   LIG    1       -2.941  -3.804   0.012  0.00  0.00    +0.190 A 
ATOM      7  O   LIG    1       -4.181  -4.339   0.022  0.00  0.00    -0.260 OA
ATOM      8  C   LIG    1       -5.277  -3.566   0.051  0.00  0.00    +0.520 A 
ATOM      9  C   LIG    1       -5.195  -2.155   0.055  0.00  0.00    -0.250 A 
ATOM     10  C   LIG    1       -6.286  -1.107   0.073  0.00  0.00    +0.100 C 
ATOM     11  C   LIG    1       -5.595   0.202  -0.367  0.00  0.00    +0.050 C 
ATOM     12  C   LIG    1       -4.130  -0.054   0.047  0.00  0.00    +0.120 C 
ATOM     13  O   LIG    1       -6.374  -4.096   0.065  0.00  0.00    -0.460 OA
ATOM     14  C   LIG    1       -3.977  -1.558   0.041  0.00  0.00    +0.030 A 
ATOM     15  C   LIG    1       -1.817  -4.617  -0.004  0.00  0.00    -0.020 A 
ENDROOT
BRANCH   4  16
ATOM     16  O   LIG    1       -1.339  -0.499   0.012  0.00  0.00    -0.280 OA
BRANCH  16  17
ATOM     17  C   LIG    1        0.002  -0.004   0.002  0.00  0.00    +0.280 C 
BRANCH  17  18
ATOM     18  C   LIG    1       -0.018   1.503   0.010  0.00  0.00    +0.470 C 
ATOM     19  O   LIG    1       -1.073   2.093   0.018  0.00  0.00    -0.480 OA
BRANCH  18  20
ATOM     20  O   LIG    1        1.135   2.190   0.003  0.00  0.00    -0.350 OA
BRANCH  20  21
ATOM     21  C   LIG    1        1.039   3.639   0.012  0.00  0.00    +0.270 C 
BRANCH  21  22
ATOM     22  C   LIG    1        2.424   4.233   0.002  0.00  0.00    -0.100 A 
ATOM     23  C   LIG    1        3.068   4.505   1.194  0.00  0.00    +0.040 A 
ATOM     24  C   LIG    1        4.340   5.046   1.185  0.00  0.00    +0.010 A 
ATOM     25  C   LIG    1        4.963   5.325  -0.017  0.00  0.00    +0.020 A 
ATOM     26  C   LIG    1        4.317   5.059  -1.209  0.00  0.00    +0.010 A 
ATOM     27  C   LIG    1        3.047   4.513  -1.200  0.00  0.00    +0.040 A 
ENDBRANCH  21  22
ENDBRANCH  20  21
ENDBRANCH  18  20
ENDBRANCH  17  18
ENDBRANCH  16  17
ENDBRANCH   4  16
TORSDOF 6
