REMARK  Name = ZINCqH0000035JFX.0
REMARK                            x       y       z     vdW  Elec       q    Type
REMARK                         _______ _______ _______ _____ _____    ______ ____
ROOT
ATOM      1  N   LIG    1        5.270  -1.615  -1.753  0.00  0.00    -0.680 N 
ATOM      2  H   LIG    1        5.866  -1.864  -1.029  0.00  0.00    +0.410 HD
ATOM      3  C   LIG    1        4.119  -0.967  -1.485  0.00  0.00    +0.510 C 
ATOM      4  O   LIG    1        3.414  -0.582  -2.393  0.00  0.00    -0.500 OA
ENDROOT
BRANCH   1   7
ATOM      5  C   LIG    1        5.597  -1.366  -5.412  0.00  0.00    +0.170 A 
ATOM      6  C   LIG    1        5.265  -1.058  -4.103  0.00  0.00    -0.090 A 
ATOM      7  C   LIG    1        5.606  -1.928  -3.076  0.00  0.00    +0.220 A 
ATOM      8  C   LIG    1        6.285  -3.105  -3.360  0.00  0.00    -0.120 A 
ATOM      9  C   LIG    1        6.613  -3.418  -4.670  0.00  0.00    +0.170 A 
ATOM     10  C   LIG    1        6.272  -2.547  -5.698  0.00  0.00    +0.010 A 
BRANCH   5  12
ATOM     11  C   LIG    1        4.571   0.682  -6.052  0.00  0.00    +0.240 C 
ATOM     12  O   LIG    1        5.263  -0.513  -6.418  0.00  0.00    -0.300 OA
ENDBRANCH   5  12
BRANCH   9  13
ATOM     13  O   LIG    1        7.273  -4.574  -4.948  0.00  0.00    -0.300 OA
ATOM     14  C   LIG    1        7.592  -5.421  -3.842  0.00  0.00    +0.240 C 
ENDBRANCH   9  13
BRANCH  10  15
ATOM     15  O   LIG    1        6.599  -2.851  -6.984  0.00  0.00    -0.310 OA
ATOM     16  C   LIG    1        7.868  -2.393  -7.456  0.00  0.00    +0.200 C 
ENDBRANCH  10  15
ENDBRANCH   1   7
BRANCH   3  17
ATOM     17  C   LIG    1        3.707  -0.723  -0.056  0.00  0.00    +0.120 C 
BRANCH  17  18
ATOM     18  C   LIG    1        2.392   0.014  -0.031  0.00  0.00    -0.080 A 
ATOM     19  C   LIG    1        1.203  -0.691  -0.009  0.00  0.00    +0.020 A 
ATOM     20  C   LIG    1        0.004  -0.009   0.011  0.00  0.00    +0.000 A 
ATOM     21  C   LIG    1       -0.019   1.379   0.010  0.00  0.00    -0.070 A 
ATOM     22  C   LIG    1       -1.364   2.059   0.020  0.00  0.00    +0.070 C 
ATOM     23  C   LIG    1       -1.225   3.517   0.453  0.00  0.00    +0.020 C 
ATOM     24  C   LIG    1       -0.133   4.173  -0.401  0.00  0.00    +0.020 C 
ATOM     25  C   LIG    1        1.216   3.586   0.009  0.00  0.00    +0.070 C 
ATOM     26  C   LIG    1        1.165   2.081  -0.006  0.00  0.00    -0.070 A 
ATOM     27  C   LIG    1        2.372   1.393  -0.029  0.00  0.00    +0.020 A 
ENDBRANCH  17  18
ENDBRANCH   3  17
TORSDOF 6
