REMARK  Name = ZINCqH0000003Sw3.0
REMARK                            x       y       z     vdW  Elec       q    Type
REMARK                         _______ _______ _______ _____ _____    ______ ____
ROOT
ATOM      1  C   LIG    1       -4.445   4.940   2.921  0.00  0.00    +0.070 A 
ATOM      2  C   LIG    1       -4.471   3.864   2.048  0.00  0.00    +0.080 A 
ATOM      3  C   LIG    1       -3.290   3.252   1.668  0.00  0.00    -0.070 A 
ATOM      4  C   LIG    1       -2.078   3.708   2.169  0.00  0.00    +0.240 A 
ATOM      5  C   LIG    1       -2.049   4.786   3.044  0.00  0.00    -0.130 A 
ATOM      6  C   LIG    1       -3.230   5.403   3.421  0.00  0.00    +0.160 A 
ENDROOT
BRANCH   1   7
ATOM      7  N   LIG    1       -5.643   5.563   3.302  0.00  0.00    -1.040 N 
ATOM      8  H   LIG    1       -5.667   6.522   3.446  0.00  0.00    +0.430 HD
BRANCH   7   9
ATOM      9  S   LIG    1       -7.017   4.662   3.506  0.00  0.00    +2.610 S 
ATOM     10  O   LIG    1       -7.185   3.992   2.264  0.00  0.00    -0.950 OA
ATOM     11  O   LIG    1       -7.982   5.594   3.972  0.00  0.00    -0.950 OA
BRANCH   9  13
ATOM     12  C   LIG    1       -7.795   2.577   5.097  0.00  0.00    +0.070 C 
ATOM     13  C   LIG    1       -6.592   3.478   4.814  0.00  0.00    -0.370 C 
ENDBRANCH   9  13
ENDBRANCH   7   9
ENDBRANCH   1   7
BRANCH   4  14
ATOM     14  N   LIG    1       -0.885   3.084   1.787  0.00  0.00    -0.730 N 
ATOM     15  H   LIG    1       -0.037   3.404   2.134  0.00  0.00    +0.410 HD
BRANCH  14  16
ATOM     16  C   LIG    1       -0.915   1.946   0.864  0.00  0.00    +0.360 C 
ATOM     17  C   LIG    1       -0.937   2.460  -0.577  0.00  0.00    +0.050 C 
BRANCH  16  18
ATOM     18  C   LIG    1        0.309   1.094   1.076  0.00  0.00    +0.240 A 
ATOM     19  N   LIG    1        1.519   1.551   1.202  0.00  0.00    -0.470 NA
ATOM     20  C   LIG    1        2.368   0.502   1.373  0.00  0.00    +0.020 A 
ATOM     21  C   LIG    1        3.748   0.396   1.554  0.00  0.00    +0.080 A 
ATOM     22  C   LIG    1        4.324  -0.846   1.702  0.00  0.00    +0.020 A 
ATOM     23  C   LIG    1        3.541  -1.991   1.670  0.00  0.00    +0.050 A 
ATOM     24  C   LIG    1        2.176  -1.901   1.492  0.00  0.00    +0.050 A 
ATOM     25  C   LIG    1        1.580  -0.658   1.342  0.00  0.00    +0.010 A 
ATOM     26  O   LIG    1        0.307  -0.245   1.156  0.00  0.00    -0.210 OA
ENDBRANCH  16  18
ENDBRANCH  14  16
ENDBRANCH   4  14
BRANCH   6  27
ATOM     27  O   LIG    1       -3.203   6.458   4.278  0.00  0.00    -0.310 OA
ATOM     28  C   LIG    1       -1.921   6.878   4.750  0.00  0.00    +0.250 C 
ENDBRANCH   6  27
TORSDOF 7
