REMARK  Name = ZINCrD0000074pbY.0
REMARK                            x       y       z     vdW  Elec       q    Type
REMARK                         _______ _______ _______ _____ _____    ______ ____
ROOT
ATOM      1  C   LIG    1       -2.975   4.030  -1.371  0.00  0.00    +0.420 C 
ATOM      2  O   LIG    1       -2.288   3.663  -2.302  0.00  0.00    -0.460 OA
ENDROOT
BRANCH   1   6
ATOM      3  C   LIG    1       -7.428   6.412  -0.696  0.00  0.00    +0.120 C 
ATOM      4  C   LIG    1       -6.213   5.763  -1.307  0.00  0.00    +0.010 A 
ATOM      5  C   LIG    1       -5.197   5.213  -0.623  0.00  0.00    +0.000 A 
ATOM      6  C   LIG    1       -4.247   4.711  -1.624  0.00  0.00    -0.280 A 
ATOM      7  C   LIG    1       -4.802   5.009  -2.854  0.00  0.00    +0.140 A 
ATOM      8  C   LIG    1       -4.199   4.687  -4.198  0.00  0.00    +0.150 C 
ATOM      9  N   LIG    1       -5.973   5.635  -2.645  0.00  0.00    -0.430 N 
BRANCH   9  10
ATOM     10  C   LIG    1       -6.866   6.113  -3.703  0.00  0.00    +0.310 C 
BRANCH  10  11
ATOM     11  C   LIG    1       -7.857   5.008  -4.073  0.00  0.00    +0.150 C 
ATOM     12  C   LIG    1       -8.870   5.523  -5.127  0.00  0.00    +0.020 C 
ATOM     13  C   LIG    1       -9.295   4.189  -5.802  0.00  0.00    +0.020 C 
ATOM     14  C   LIG    1       -7.993   3.361  -5.743  0.00  0.00    +0.190 C 
ATOM     15  O   LIG    1       -7.173   3.917  -4.708  0.00  0.00    -0.370 OA
ENDBRANCH  10  11
ENDBRANCH   9  10
ENDBRANCH   1   6
BRANCH   1  16
ATOM     16  C   LIG    1       -2.519   3.786   0.044  0.00  0.00    +0.320 C 
BRANCH  16  17
ATOM     17  N   LIG    1       -1.228   3.094   0.029  0.00  0.00    -0.480 N 
ATOM     18  C   LIG    1       -1.194   1.737   0.017  0.00  0.00    +0.350 A 
ATOM     19  C   LIG    1       -0.013   1.076   0.008  0.00  0.00    -0.080 A 
ATOM     20  C   LIG    1        1.192   1.794   0.000  0.00  0.00    +0.210 A 
ATOM     21  C   LIG    1        1.155   3.157   0.007  0.00  0.00    -0.330 A 
ATOM     22  C   LIG    1       -0.088   3.812   0.022  0.00  0.00    +0.540 A 
ATOM     23  O   LIG    1       -0.136   5.032   0.029  0.00  0.00    -0.530 OA
BRANCH  21  24
ATOM     24  C   LIG    1        2.434   3.953  -0.001  0.00  0.00    +0.530 C 
ATOM     25  F   LIG    1        2.493   4.754   1.145  0.00  0.00    -0.170 F 
ATOM     26  F   LIG    1        2.471   4.765  -1.140  0.00  0.00    -0.170 F 
ATOM     27  F   LIG    1        3.527   3.080  -0.016  0.00  0.00    -0.180 F 
ENDBRANCH  21  24
ENDBRANCH  16  17
ENDBRANCH   1  16
TORSDOF 6
