REMARK  Name = ZINCrH000004u0Ls.0
REMARK                            x       y       z     vdW  Elec       q    Type
REMARK                         _______ _______ _______ _____ _____    ______ ____
ROOT
ATOM      1  C   LIG    1       -0.825   1.502  -1.212  0.00  0.00    -0.070 C 
ATOM      2  C   LIG    1       -0.221   0.935   0.074  0.00  0.00    +0.030 C 
ATOM      3  C   LIG    1       -0.714   1.751   1.271  0.00  0.00    +0.010 C 
ATOM      4  C   LIG    1       -2.240   1.673   1.347  0.00  0.00    +0.000 C 
ATOM      5  C   LIG    1       -2.844   2.240   0.060  0.00  0.00    +0.010 C 
ATOM      6  C   LIG    1       -2.351   1.424  -1.137  0.00  0.00    +0.050 C 
ENDROOT
BRANCH   1   8
ATOM      7  O   LIG    1       -1.238   3.801  -1.549  0.00  0.00    -0.520 OA
ATOM      8  C   LIG    1       -0.402   2.939  -1.376  0.00  0.00    +0.540 C 
ATOM      9  N   LIG    1        0.904   3.267  -1.329  0.00  0.00    -0.620 N 
ATOM     10  C   LIG    1        1.935   2.224  -1.229  0.00  0.00    +0.290 C 
ATOM     11  C   LIG    1        2.948   2.429  -2.366  0.00  0.00    +0.020 C 
ATOM     12  C   LIG    1        3.492   3.857  -2.306  0.00  0.00    +0.270 C 
ATOM     13  C   LIG    1        2.344   4.851  -2.500  0.00  0.00    +0.030 C 
ATOM     14  C   LIG    1        1.325   4.674  -1.370  0.00  0.00    +0.310 C 
BRANCH  12  15
ATOM     15  N   LIG    1        4.485   4.046  -3.366  0.00  0.00    -0.290 N 
ATOM     16  C   LIG    1        4.444   3.490  -4.599  0.00  0.00    +0.140 A 
ATOM     17  C   LIG    1        5.549   3.928  -5.247  0.00  0.00    +0.140 A 
ATOM     18  N   LIG    1        6.203   4.720  -4.390  0.00  0.00    -0.270 NA
ATOM     19  N   LIG    1        5.544   4.774  -3.287  0.00  0.00    -0.080 NA
ENDBRANCH  12  15
ENDBRANCH   1   8
BRANCH   1  20
ATOM     20  C   LIG    1       -0.331   0.686  -2.409  0.00  0.00    +0.090 C 
BRANCH  20  21
ATOM     21  C   LIG    1       -1.042   1.144  -3.657  0.00  0.00    -0.050 A 
ATOM     22  C   LIG    1       -0.551   2.215  -4.378  0.00  0.00    +0.000 A 
ATOM     23  C   LIG    1       -1.202   2.636  -5.523  0.00  0.00    +0.050 A 
ATOM     24  C   LIG    1       -2.346   1.986  -5.947  0.00  0.00    -0.010 A 
ATOM     25  C   LIG    1       -2.839   0.912  -5.224  0.00  0.00    +0.100 A 
ATOM     26  F   LIG    1       -3.956   0.275  -5.638  0.00  0.00    -0.140 F 
ATOM     27  C   LIG    1       -2.183   0.488  -4.081  0.00  0.00    -0.010 A 
ENDBRANCH  20  21
ENDBRANCH   1  20
TORSDOF 4
