REMARK  Name = ZINCpk00000xI6RQ.0
REMARK                            x       y       z     vdW  Elec       q    Type
REMARK                         _______ _______ _______ _____ _____    ______ ____
ROOT
ATOM      1  C   LIG    1        1.610   1.036   0.031  0.00  0.00    -0.170 A 
ATOM      2  C   LIG    1        2.365   1.488  -1.012  0.00  0.00    +0.160 A 
ATOM      3  N   LIG    1        3.283   2.375  -0.562  0.00  0.00    -0.810 N 
ATOM      4  C   LIG    1        3.165   2.541   0.805  0.00  0.00    +0.090 A 
ATOM      5  C   LIG    1        3.850   3.320   1.731  0.00  0.00    +0.070 A 
ATOM      6  C   LIG    1        3.490   3.288   3.059  0.00  0.00    +0.040 A 
ATOM      7  C   LIG    1        2.448   2.470   3.491  0.00  0.00    +0.140 A 
ATOM      8  C   LIG    1        1.758   1.686   2.584  0.00  0.00    +0.050 A 
ATOM      9  C   LIG    1        2.203   1.063  -2.449  0.00  0.00    +0.180 C 
ATOM     10  C   LIG    1        2.112   1.719   1.238  0.00  0.00    -0.030 A 
ENDROOT
BRANCH   3  11
ATOM     11  S   LIG    1        4.393   3.153  -1.515  0.00  0.00    +2.580 S 
ATOM     12  O   LIG    1        4.812   4.261  -0.731  0.00  0.00    -0.920 OA
ATOM     13  O   LIG    1        3.720   3.343  -2.752  0.00  0.00    -0.920 OA
ATOM     14  C   LIG    1        5.744   1.958  -1.703  0.00  0.00    -0.230 C 
ENDBRANCH   3  11
BRANCH   1  15
ATOM     15  C   LIG    1        0.511   0.067  -0.037  0.00  0.00    +0.550 C 
ATOM     16  O   LIG    1        0.739  -1.121   0.090  0.00  0.00    -0.490 OA
BRANCH  15  17
ATOM     17  O   LIG    1       -0.752   0.492  -0.245  0.00  0.00    -0.340 OA
BRANCH  17  18
ATOM     18  C   LIG    1       -1.788  -0.523  -0.306  0.00  0.00    +0.250 C 
BRANCH  18  20
ATOM     19  C   LIG    1       -3.950  -0.361  -1.430  0.00  0.00    +0.050 C 
ATOM     20  C   LIG    1       -3.123   0.135  -0.544  0.00  0.00    -0.040 C 
ENDBRANCH  18  20
ENDBRANCH  17  18
ENDBRANCH  15  17
ENDBRANCH   1  15
BRANCH   7  21
ATOM     21  N   LIG    1        2.098   2.442   4.846  0.00  0.00    -1.060 N 
ATOM     22  H   LIG    1        1.165   2.490   5.107  0.00  0.00    +0.430 HD
BRANCH  21  23
ATOM     23  S   LIG    1        3.277   2.327   6.003  0.00  0.00    +2.610 S 
ATOM     24  O   LIG    1        2.560   2.251   7.228  0.00  0.00    -0.950 OA
ATOM     25  O   LIG    1        4.145   3.419   5.729  0.00  0.00    -0.950 OA
ATOM     26  C   LIG    1        4.106   0.752   5.651  0.00  0.00    -0.280 C 
ENDBRANCH  21  23
ENDBRANCH   7  21
TORSDOF 7
