REMARK  Name = ZINCrD000000CNhQ.0
REMARK                            x       y       z     vdW  Elec       q    Type
REMARK                         _______ _______ _______ _____ _____    ______ ____
ROOT
ATOM      1  N   LIG    1       -1.684   0.067  -0.412  0.00  0.00    -0.730 N 
ATOM      2  H   LIG    1       -2.137   0.923  -0.365  0.00  0.00    +0.400 HD
ENDROOT
BRANCH   1   3
ATOM      3  C   LIG    1       -2.437  -1.173  -0.207  0.00  0.00    +0.260 C 
ATOM      4  C   LIG    1       -3.907  -0.940  -0.566  0.00  0.00    +0.040 C 
ATOM      5  C   LIG    1       -4.534  -0.048   0.513  0.00  0.00    +0.020 C 
ATOM      6  C   LIG    1       -4.593  -0.834   1.824  0.00  0.00    +0.260 C 
ATOM      7  N   LIG    1       -3.291  -1.415   2.129  0.00  0.00    -0.560 N 
ATOM      8  C   LIG    1       -2.323  -1.594   1.230  0.00  0.00    +0.500 C 
ATOM      9  O   LIG    1       -1.294  -2.125   1.592  0.00  0.00    -0.520 OA
BRANCH   7  10
ATOM     10  C   LIG    1       -3.042  -1.810   3.449  0.00  0.00    +0.120 A 
ATOM     11  C   LIG    1       -3.368  -3.095   3.863  0.00  0.00    +0.050 A 
ATOM     12  C   LIG    1       -3.116  -3.485   5.164  0.00  0.00    +0.000 A 
ATOM     13  C   LIG    1       -2.550  -2.591   6.058  0.00  0.00    +0.110 A 
ATOM     14  C   LIG    1       -2.231  -1.308   5.649  0.00  0.00    +0.000 A 
ATOM     15  F   LIG    1       -2.311  -2.973   7.332  0.00  0.00    -0.140 F 
ATOM     16  C   LIG    1       -2.475  -0.916   4.347  0.00  0.00    +0.050 A 
ENDBRANCH   7  10
ENDBRANCH   1   3
BRANCH   1  21
ATOM     17  C   LIG    1        1.758   1.136  -1.129  0.00  0.00    -0.060 A 
ATOM     18  C   LIG    1        2.401  -0.086  -1.201  0.00  0.00    -0.030 A 
ATOM     19  C   LIG    1        1.692  -1.257  -1.007  0.00  0.00    +0.050 A 
ATOM     20  C   LIG    1        0.338  -1.210  -0.742  0.00  0.00    -0.040 A 
ATOM     21  C   LIG    1       -0.313   0.016  -0.675  0.00  0.00    +0.210 A 
ATOM     22  C   LIG    1        0.404   1.191  -0.864  0.00  0.00    -0.060 A 
BRANCH  17  27
ATOM     23  O   LIG    1        5.707   2.757  -2.759  0.00  0.00    -0.530 OA
ATOM     24  C   LIG    1        4.715   2.761  -2.061  0.00  0.00    +0.520 C 
ATOM     25  C   LIG    1        4.631   3.368  -0.678  0.00  0.00    +0.050 C 
ATOM     26  C   LIG    1        3.347   2.757  -0.072  0.00  0.00    +0.060 C 
ATOM     27  C   LIG    1        2.535   2.410  -1.340  0.00  0.00    +0.260 C 
ATOM     28  N   LIG    1        3.530   2.227  -2.404  0.00  0.00    -0.720 N 
ATOM     29  H   LIG    1        3.355   1.780  -3.246  0.00  0.00    +0.410 HD
ENDBRANCH  17  27
ENDBRANCH   1  21
TORSDOF 4
