REMARK  Name = ZINC650000002pbU.0
REMARK                            x       y       z     vdW  Elec       q    Type
REMARK                         _______ _______ _______ _____ _____    ______ ____
ROOT
ATOM      1  C   LIG    1        0.711   3.537   1.339  0.00  0.00    +0.050 C 
ATOM      2  C   LIG    1       -0.720   3.008   1.225  0.00  0.00    -0.030 C 
ENDROOT
BRANCH   2   3
ATOM      3  C   LIG    1       -1.543   3.501   2.417  0.00  0.00    +0.300 C 
BRANCH   3   4
ATOM      4  N   LIG    1       -1.663   4.964   2.358  0.00  0.00    -0.640 N 
ATOM      5  H   LIG    1       -2.123   5.229   1.500  0.00  0.00    +0.440 HD
ATOM      6  H   LIG    1       -0.744   5.378   2.390  0.00  0.00    +0.440 HD
ATOM      7  H   LIG    1       -2.206   5.288   3.144  0.00  0.00    +0.450 HD
ENDBRANCH   3   4
ENDBRANCH   2   3
BRANCH   2   8
ATOM      8  C   LIG    1       -0.699   1.479   1.216  0.00  0.00    +0.300 C 
BRANCH   8   9
ATOM      9  N   LIG    1       -0.012   1.005   0.008  0.00  0.00    -0.640 N 
ATOM     10  H   LIG    1       -0.500   1.339  -0.810  0.00  0.00    +0.440 HD
ATOM     11  H   LIG    1        0.935   1.354   0.000  0.00  0.00    +0.440 HD
ATOM     12  H   LIG    1        0.002  -0.004   0.002  0.00  0.00    +0.450 HD
ENDBRANCH   8   9
ENDBRANCH   2   8
TORSDOF 4
