REMARK  Name = ZINCpk00000e9ntV.0
REMARK                            x       y       z     vdW  Elec       q    Type
REMARK                         _______ _______ _______ _____ _____    ______ ____
ROOT
ATOM      1  C   LIG    1       -9.857  -1.633  -3.119  0.00  0.00    +0.650 C 
ATOM      2  N   LIG    1       -8.705  -0.956  -2.944  0.00  0.00    -0.600 N 
ATOM      3  C   LIG    1       -7.929  -0.489  -4.101  0.00  0.00    +0.300 C 
ATOM      4  C   LIG    1       -6.500  -1.033  -3.985  0.00  0.00    +0.290 C 
ATOM      5  N   LIG    1       -5.997  -0.749  -2.634  0.00  0.00    -0.610 N 
ATOM      6  C   LIG    1       -6.771  -1.220  -1.476  0.00  0.00    +0.280 C 
ATOM      7  C   LIG    1       -4.845  -0.072  -2.459  0.00  0.00    +0.520 C 
ATOM      8  O   LIG    1       -4.213   0.308  -3.422  0.00  0.00    -0.510 OA
ATOM      9  C   LIG    1       -8.203  -0.671  -1.593  0.00  0.00    +0.290 C 
ATOM     10  O   LIG    1      -10.262  -1.863  -4.241  0.00  0.00    -0.570 OA
ENDROOT
BRANCH   1  11
ATOM     11  O   LIG    1      -10.559  -2.056  -2.050  0.00  0.00    -0.370 OA
BRANCH  11  13
ATOM     12  C   LIG    1      -12.442  -3.175  -0.987  0.00  0.00    +0.070 C 
ATOM     13  C   LIG    1      -11.790  -2.779  -2.313  0.00  0.00    +0.220 C 
ENDBRANCH  11  13
ENDBRANCH   1  11
BRANCH   7  14
ATOM     14  C   LIG    1       -4.342   0.213  -1.067  0.00  0.00    +0.270 C 
BRANCH  14  15
ATOM     15  O   LIG    1       -3.093   0.949  -1.145  0.00  0.00    -0.320 OA
BRANCH  15  16
ATOM     16  C   LIG    1       -2.507   1.284   0.021  0.00  0.00    +0.520 C 
ATOM     17  O   LIG    1       -3.025   0.971   1.074  0.00  0.00    -0.480 OA
BRANCH  16  18
ATOM     18  C   LIG    1       -1.236   2.032   0.019  0.00  0.00    -0.180 A 
ATOM     19  C   LIG    1       -0.016   1.347   0.009  0.00  0.00    +0.170 A 
ATOM     20  C   LIG    1        1.170   2.056   0.002  0.00  0.00    +0.000 A 
ATOM     21  C   LIG    1        1.153   3.439   0.009  0.00  0.00    +0.130 A 
ATOM     22  C   LIG    1       -0.048   4.125   0.024  0.00  0.00    +0.000 A 
ATOM     23  F   LIG    1        0.002  -0.004   0.002  0.00  0.00    -0.120 F 
ATOM     24  C   LIG    1       -1.244   3.432   0.032  0.00  0.00    +0.170 A 
ATOM     25  F   LIG    1       -2.416   4.103   0.046  0.00  0.00    -0.120 F 
ENDBRANCH  16  18
ENDBRANCH  15  16
ENDBRANCH  14  15
ENDBRANCH   7  14
TORSDOF 6
