REMARK  Name = ZINCpe000000Xh9i.0
REMARK                            x       y       z     vdW  Elec       q    Type
REMARK                         _______ _______ _______ _____ _____    ______ ____
ROOT
ATOM      1  N   LIG    1       -1.029   3.889   2.409  0.00  0.00    -0.710 N 
ATOM      2  H   LIG    1       -1.577   3.370   3.018  0.00  0.00    +0.410 HD
ATOM      3  C   LIG    1       -0.289   3.264   1.471  0.00  0.00    +0.550 C 
ATOM      4  O   LIG    1        0.464   3.904   0.767  0.00  0.00    -0.530 OA
ENDROOT
BRANCH   3   5
ATOM      5  C   LIG    1       -0.396   1.771   1.297  0.00  0.00    -0.070 C 
ATOM      6  C   LIG    1        0.572   1.202   0.246  0.00  0.00    +0.060 C 
ATOM      7  C   LIG    1       -0.530   1.457  -0.796  0.00  0.00    +0.030 C 
ATOM      8  C   LIG    1       -1.539   1.341   0.358  0.00  0.00    +0.050 C 
BRANCH   5   9
ATOM      9  C   LIG    1       -0.373   1.025   2.606  0.00  0.00    -0.080 A 
ATOM     10  C   LIG    1        0.824   0.827   3.268  0.00  0.00    +0.010 A 
ATOM     11  C   LIG    1        0.844   0.146   4.470  0.00  0.00    +0.000 A 
ATOM     12  C   LIG    1       -0.332  -0.345   5.007  0.00  0.00    +0.000 A 
ATOM     13  C   LIG    1       -1.528  -0.151   4.343  0.00  0.00    +0.010 A 
ATOM     14  C   LIG    1       -1.549   0.534   3.142  0.00  0.00    +0.010 A 
ENDBRANCH   5   9
ENDBRANCH   3   5
BRANCH   1  16
ATOM     15  C   LIG    1       -2.016   5.944   1.524  0.00  0.00    +0.060 C 
ATOM     16  C   LIG    1       -1.005   5.350   2.507  0.00  0.00    +0.240 C 
BRANCH  16  17
ATOM     17  C   LIG    1       -1.366   5.765   3.910  0.00  0.00    +0.520 C 
ATOM     18  N   LIG    1       -1.123   7.024   4.324  0.00  0.00    -0.620 N 
ATOM     19  C   LIG    1       -0.619   8.016   3.373  0.00  0.00    +0.340 C 
ATOM     20  C   LIG    1       -1.665   9.129   3.200  0.00  0.00    -0.340 C 
ATOM     21  S   LIG    1       -1.996   9.883   4.819  0.00  0.00    +2.420 S 
ATOM     22  C   LIG    1       -2.477   8.431   5.799  0.00  0.00    -0.330 C 
ATOM     23  O   LIG    1       -0.778  10.399   5.339  0.00  0.00    -0.930 OA
ATOM     24  O   LIG    1       -3.120  10.743   4.699  0.00  0.00    -0.930 OA
ATOM     25  C   LIG    1       -1.359   7.386   5.723  0.00  0.00    +0.340 C 
ATOM     26  O   LIG    1       -1.875   4.965   4.667  0.00  0.00    -0.520 OA
ENDBRANCH  16  17
ENDBRANCH   1  16
TORSDOF 4
