REMARK  Name = ZINCrH000004rqcR.0
REMARK                            x       y       z     vdW  Elec       q    Type
REMARK                         _______ _______ _______ _____ _____    ______ ____
ROOT
ATOM      1  N   LIG    1       -2.483  -0.344   0.012  0.00  0.00    -0.670 N 
ATOM      2  H   LIG    1       -1.641  -0.817  -0.069  0.00  0.00    +0.410 HD
ATOM      3  C   LIG    1       -2.500   1.004   0.021  0.00  0.00    +0.560 C 
ATOM      4  O   LIG    1       -3.561   1.599   0.038  0.00  0.00    -0.500 OA
ENDROOT
BRANCH   1   9
ATOM      5  C   LIG    1       -7.338  -3.244   0.447  0.00  0.00    +0.110 C 
ATOM      6  C   LIG    1       -6.049  -2.474   0.332  0.00  0.00    +0.000 A 
ATOM      7  C   LIG    1       -4.896  -2.967   0.914  0.00  0.00    +0.020 A 
ATOM      8  C   LIG    1       -3.710  -2.266   0.805  0.00  0.00    +0.060 A 
ATOM      9  C   LIG    1       -3.680  -1.059   0.119  0.00  0.00    +0.120 A 
ATOM     10  C   LIG    1       -4.841  -0.565  -0.464  0.00  0.00    +0.140 A 
ATOM     11  C   LIG    1       -6.021  -1.274  -0.356  0.00  0.00    -0.660 A 
BRANCH  11  12
ATOM     12  S   LIG    1       -7.493  -0.650  -1.096  0.00  0.00    +2.700 S 
ATOM     13  O   LIG    1       -7.133   0.561  -1.747  0.00  0.00    -0.960 OA
ATOM     14  O   LIG    1       -8.505  -0.726  -0.102  0.00  0.00    -0.960 OA
BRANCH  12  15
ATOM     15  N   LIG    1       -7.929  -1.710  -2.290  0.00  0.00    -1.250 NA
ATOM     16  H   LIG    1       -8.723  -1.543  -2.822  0.00  0.00    +0.420 HD
ATOM     17  H   LIG    1       -7.391  -2.500  -2.458  0.00  0.00    +0.420 HD
ENDBRANCH  12  15
ENDBRANCH  11  12
ENDBRANCH   1   9
BRANCH   3  18
ATOM     18  C   LIG    1       -1.232   1.758   0.011  0.00  0.00    -0.180 A 
ATOM     19  C   LIG    1       -0.013   1.076  -0.008  0.00  0.00    +0.090 A 
ATOM     20  C   LIG    1        1.170   1.780  -0.023  0.00  0.00    +0.010 A 
ATOM     21  C   LIG    1        1.153   3.175  -0.014  0.00  0.00    +0.020 A 
ATOM     22  C   LIG    1       -0.061   3.860   0.010  0.00  0.00    -0.010 A 
ATOM     23  C   LIG    1       -1.248   3.158   0.026  0.00  0.00    +0.170 A 
ATOM     24  F   LIG    1       -2.426   3.820   0.050  0.00  0.00    -0.110 F 
BRANCH  21  25
ATOM     25  C   LIG    1        2.429   3.931  -0.032  0.00  0.00    -0.060 A 
ATOM     26  C   LIG    1        3.645   3.249  -0.051  0.00  0.00    +0.030 A 
ATOM     27  C   LIG    1        4.830   3.958  -0.073  0.00  0.00    +0.010 A 
ATOM     28  C   LIG    1        4.811   5.341  -0.064  0.00  0.00    +0.020 A 
ATOM     29  C   LIG    1        3.608   6.022  -0.039  0.00  0.00    +0.010 A 
ATOM     30  C   LIG    1        2.417   5.324  -0.023  0.00  0.00    +0.030 A 
ENDBRANCH  21  25
ENDBRANCH   3  18
TORSDOF 5
