REMARK  Name = ZINCrD000006fiCC.0
REMARK                            x       y       z     vdW  Elec       q    Type
REMARK                         _______ _______ _______ _____ _____    ______ ____
ROOT
ATOM      1  C   LIG    1       -1.193   3.196   0.025  0.00  0.00    +0.550 C 
ATOM      2  N   LIG    1       -2.365   3.854  -0.068  0.00  0.00    -0.600 N 
ATOM      3  C   LIG    1       -3.624   3.102  -0.071  0.00  0.00    +0.340 C 
ATOM      4  C   LIG    1       -4.218   3.155   1.329  0.00  0.00    -0.140 A 
ATOM      5  C   LIG    1       -4.386   2.004   2.065  0.00  0.00    +0.040 A 
ATOM      6  C   LIG    1       -5.013   2.065   3.298  0.00  0.00    +0.010 A 
ATOM      7  C   LIG    1       -5.463   3.278   3.784  0.00  0.00    +0.030 A 
ATOM      8  C   LIG    1       -5.277   4.436   3.054  0.00  0.00    -0.010 A 
ATOM      9  C   LIG    1       -4.636   4.382   1.823  0.00  0.00    +0.120 A 
ATOM     10  O   LIG    1       -4.413   5.517   1.118  0.00  0.00    -0.320 OA
ATOM     11  C   LIG    1       -3.049   5.951   1.037  0.00  0.00    +0.110 C 
ATOM     12  C   LIG    1       -3.018   7.476   0.894  0.00  0.00    +0.060 C 
ATOM     13  C   LIG    1       -3.743   8.110   2.085  0.00  0.00    +0.300 C 
ATOM     14  N   LIG    1       -3.136   7.612   3.327  0.00  0.00    -0.590 N 
ATOM     15  C   LIG    1       -3.028   6.161   3.527  0.00  0.00    +0.300 C 
ATOM     16  C   LIG    1       -2.686   8.470   4.264  0.00  0.00    +0.650 C 
ATOM     17  O   LIG    1       -2.186   8.046   5.286  0.00  0.00    -0.570 OA
ATOM     18  C   LIG    1       -2.315   5.546   2.318  0.00  0.00    +0.010 C 
ATOM     19  C   LIG    1       -2.372   5.314  -0.170  0.00  0.00    +0.280 C 
ATOM     20  O   LIG    1       -0.151   3.818   0.111  0.00  0.00    -0.540 OA
ENDROOT
BRANCH   1  22
ATOM     21  C   LIG    1       -0.013   1.075   0.009  0.00  0.00    +0.150 C 
ATOM     22  C   LIG    1       -1.174   1.725   0.022  0.00  0.00    -0.090 C 
ENDBRANCH   1  22
BRANCH  16  23
ATOM     23  O   LIG    1       -2.791   9.798   4.067  0.00  0.00    -0.360 OA
BRANCH  23  24
ATOM     24  C   LIG    1       -2.286  10.663   5.118  0.00  0.00    +0.140 C 
ATOM     25  C   LIG    1       -3.041  10.379   6.419  0.00  0.00    +0.040 C 
ATOM     26  C   LIG    1       -2.491  12.125   4.718  0.00  0.00    +0.080 C 
ATOM     27  C   LIG    1       -0.794  10.395   5.326  0.00  0.00    +0.040 C 
ENDBRANCH  23  24
ENDBRANCH  16  23
TORSDOF 3
