REMARK  Name = ZINCpk00000y6wVL.0
REMARK                            x       y       z     vdW  Elec       q    Type
REMARK                         _______ _______ _______ _____ _____    ______ ____
ROOT
ATOM      1  N   LIG    1        6.007   2.661   0.471  0.00  0.00    -0.470 N 
ATOM      2  C   LIG    1        6.356   2.332  -0.917  0.00  0.00    +0.200 C 
ATOM      3  C   LIG    1        5.218   1.532  -1.554  0.00  0.00    +0.050 C 
ATOM      4  C   LIG    1        3.932   2.362  -1.514  0.00  0.00    +0.020 C 
ATOM      5  C   LIG    1        3.618   2.733  -0.062  0.00  0.00    +0.270 C 
ATOM      6  C   LIG    1        4.802   3.498   0.532  0.00  0.00    +0.220 C 
ENDROOT
BRANCH   1  10
ATOM      7  C   LIG    1       10.707   2.664   1.935  0.00  0.00    +0.140 C 
ATOM      8  C   LIG    1        9.342   3.296   1.839  0.00  0.00    +0.200 A 
ATOM      9  C   LIG    1        8.315   2.644   1.186  0.00  0.00    -0.100 A 
ATOM     10  C   LIG    1        7.069   3.272   1.119  0.00  0.00    +0.360 A 
ATOM     11  N   LIG    1        6.917   4.463   1.691  0.00  0.00    -0.560 NA
ATOM     12  C   LIG    1        7.925   5.046   2.308  0.00  0.00    +0.350 A 
ATOM     13  C   LIG    1        7.712   6.396   2.944  0.00  0.00    +0.170 C 
ATOM     14  N   LIG    1        9.113   4.482   2.384  0.00  0.00    -0.540 NA
ENDBRANCH   1  10
BRANCH   5  15
ATOM     15  N   LIG    1        2.420   3.576  -0.021  0.00  0.00    -0.670 N 
ATOM     16  H   LIG    1        2.507   4.542  -0.006  0.00  0.00    +0.420 HD
BRANCH  15  17
ATOM     17  C   LIG    1        1.165   2.994  -0.002  0.00  0.00    +0.640 A 
ATOM     18  N   LIG    1        1.064   1.673  -0.022  0.00  0.00    -0.580 NA
ATOM     19  C   LIG    1       -0.120   1.080  -0.006  0.00  0.00    +0.500 A 
ATOM     20  C   LIG    1       -1.263   1.853   0.028  0.00  0.00    -0.280 A 
ATOM     21  C   LIG    1       -1.126   3.243   0.054  0.00  0.00    +0.540 A 
ATOM     22  N   LIG    1        0.093   3.772   0.035  0.00  0.00    -0.620 NA
BRANCH  21  23
ATOM     23  N   LIG    1       -2.245   4.059   0.093  0.00  0.00    -0.800 N 
ATOM     24  H   LIG    1       -3.131   3.671   0.026  0.00  0.00    +0.430 HD
ATOM     25  H   LIG    1       -2.143   5.019   0.187  0.00  0.00    +0.410 HD
ENDBRANCH  21  23
BRANCH  20  26
ATOM     26  N   LIG    1       -2.603   1.224   0.041  0.00  0.00    +0.070 N 
ATOM     27  O   LIG    1       -3.602   1.917  -0.040  0.00  0.00    -0.210 OA
ATOM     28  O   LIG    1       -2.707   0.014   0.132  0.00  0.00    -0.150 OA
ENDBRANCH  20  26
ENDBRANCH  15  17
ENDBRANCH   5  15
TORSDOF 5
