REMARK  Name = ZINCpe000000YT7D.0
REMARK                            x       y       z     vdW  Elec       q    Type
REMARK                         _______ _______ _______ _____ _____    ______ ____
ROOT
ATOM      1  O   LIG    1        1.674   2.978   2.345  0.00  0.00    -0.520 OA
ATOM      2  C   LIG    1        1.912   3.732   1.425  0.00  0.00    +0.500 C 
ATOM      3  N   LIG    1        2.330   4.989   1.674  0.00  0.00    -0.720 N 
ATOM      4  H   LIG    1        2.521   5.591   0.938  0.00  0.00    +0.400 HD
ENDROOT
BRANCH   3   5
ATOM      5  C   LIG    1        2.497   5.445   3.056  0.00  0.00    +0.290 C 
ATOM      6  C   LIG    1        2.330   6.962   3.109  0.00  0.00    +0.020 C 
ATOM      7  C   LIG    1        2.721   7.443   4.511  0.00  0.00    +0.030 C 
ATOM      8  C   LIG    1        4.231   7.280   4.673  0.00  0.00    +0.080 C 
ATOM      9  C   LIG    1        4.657   5.885   4.297  0.00  0.00    -0.070 A 
ATOM     10  C   LIG    1        5.903   5.451   4.728  0.00  0.00    -0.010 A 
ATOM     11  C   LIG    1        6.353   4.186   4.411  0.00  0.00    +0.010 A 
ATOM     12  C   LIG    1        5.557   3.343   3.658  0.00  0.00    -0.010 A 
ATOM     13  C   LIG    1        4.317   3.772   3.231  0.00  0.00    +0.030 A 
ATOM     14  C   LIG    1        3.862   5.044   3.550  0.00  0.00    -0.100 A 
ENDBRANCH   3   5
BRANCH   2  15
ATOM     15  C   LIG    1        1.741   3.262   0.003  0.00  0.00    +0.360 C 
BRANCH  15  16
ATOM     16  N   LIG    1        1.281   1.871  -0.000  0.00  0.00    -0.560 N 
ATOM     17  C   LIG    1        2.097   0.808  -0.014  0.00  0.00    +0.710 C 
ATOM     18  N   LIG    1        1.419  -0.358  -0.013  0.00  0.00    -0.710 N 
ATOM     19  H   LIG    1        1.797  -1.252  -0.022  0.00  0.00    +0.450 HD
ATOM     20  C   LIG    1        0.002  -0.004   0.002  0.00  0.00    +0.080 C 
ATOM     21  C   LIG    1       -0.712  -0.582   1.234  0.00  0.00    +0.050 C 
ATOM     22  C   LIG    1       -2.090  -0.986   0.643  0.00  0.00    +0.240 C 
ATOM     23  O   LIG    1       -1.766  -1.452  -0.686  0.00  0.00    -0.360 OA
ATOM     24  C   LIG    1       -0.746  -0.577  -1.204  0.00  0.00    +0.250 C 
ATOM     25  O   LIG    1        3.309   0.886  -0.025  0.00  0.00    -0.530 OA
ATOM     26  C   LIG    1       -0.018   1.500   0.010  0.00  0.00    +0.540 C 
ATOM     27  O   LIG    1       -0.991   2.224   0.019  0.00  0.00    -0.450 OA
ENDBRANCH  15  16
ENDBRANCH   2  15
TORSDOF 3
