REMARK  Name = ZINCfA000000b6MK.0
REMARK                            x       y       z     vdW  Elec       q    Type
REMARK                         _______ _______ _______ _____ _____    ______ ____
ROOT
ATOM      1  N   LIG    1        2.824  -0.972   2.339  0.00  0.00    -0.510 N 
ATOM      2  H   LIG    1        2.596  -1.953   2.273  0.00  0.00    +0.430 HD
ATOM      3  H   LIG    1        2.501  -0.610   3.224  0.00  0.00    +0.430 HD
ENDROOT
BRANCH   1   4
ATOM      4  C   LIG    1        2.171  -0.243   1.243  0.00  0.00    +0.180 C 
ATOM      5  C   LIG    1        0.672  -0.523   1.271  0.00  0.00    +0.040 C 
ATOM      6  C   LIG    1        0.002  -0.004   0.002  0.00  0.00    +0.070 C 
ATOM      7  C   LIG    1       -0.019   1.527   0.010  0.00  0.00    +0.110 C 
ATOM      8  S   LIG    1        1.693   2.137  -0.003  0.00  0.00    -0.180 S 
ATOM      9  C   LIG    1        2.426   1.258   1.409  0.00  0.00    +0.110 C 
ENDBRANCH   1   4
BRANCH   1  10
ATOM     10  C   LIG    1        4.280  -0.800   2.242  0.00  0.00    +0.270 C 
BRANCH  10  11
ATOM     11  C   LIG    1        4.960  -1.560   3.383  0.00  0.00    +0.170 C 
BRANCH  11  16
ATOM     12 BR   LIG    1       10.096  -2.494   1.969  0.00  0.00    +0.070 Br
ATOM     13  C   LIG    1        8.550  -1.722   2.737  0.00  0.00    -0.010 A 
ATOM     14  C   LIG    1        8.521  -0.620   3.510  0.00  0.00    +0.010 A 
ATOM     15  C   LIG    1        7.169  -0.403   3.862  0.00  0.00    -0.010 A 
ATOM     16  C   LIG    1        6.453  -1.384   3.284  0.00  0.00    -0.030 A 
ATOM     17  O   LIG    1        7.295  -2.183   2.609  0.00  0.00    -0.160 OA
ENDBRANCH  11  16
ENDBRANCH  10  11
ENDBRANCH   1  10
TORSDOF 4
