REMARK  Name = ZINCtV000002KGxT.0
REMARK                            x       y       z     vdW  Elec       q    Type
REMARK                         _______ _______ _______ _____ _____    ______ ____
ROOT
ATOM      1  C   LIG    1        0.087   0.930  -2.735  0.00  0.00    +0.170 A 
ATOM      2  N   LIG    1        1.243   0.333  -2.552  0.00  0.00    -0.280 NA
ATOM      3  N   LIG    1        1.766   0.023  -3.684  0.00  0.00    -0.260 NA
ATOM      4  C   LIG    1        0.974   0.404  -4.663  0.00  0.00    +0.260 A 
ATOM      5  N   LIG    1       -0.129   0.992  -4.084  0.00  0.00    -0.450 N 
ENDROOT
BRANCH   4   6
ATOM      6  C   LIG    1        1.218   0.229  -6.104  0.00  0.00    -0.140 A 
ATOM      7  C   LIG    1        2.119  -0.619  -6.645  0.00  0.00    +0.090 A 
ATOM      8  C   LIG    1        2.163  -0.609  -8.023  0.00  0.00    +0.020 A 
ATOM      9  C   LIG    1        1.317   0.243  -8.611  0.00  0.00    -0.030 A 
ATOM     10  S   LIG    1        0.388   1.099  -7.388  0.00  0.00    +0.120 S 
ENDBRANCH   4   6
BRANCH   1  11
ATOM     11  S   LIG    1       -0.989   1.533  -1.477  0.00  0.00    +0.030 S 
BRANCH  11  12
ATOM     12  C   LIG    1       -0.035   1.084  -0.006  0.00  0.00    +0.110 C 
BRANCH  12  13
ATOM     13  C   LIG    1       -0.794   1.522   1.248  0.00  0.00    +0.230 C 
BRANCH  13  14
ATOM     14  O   LIG    1       -0.041   1.168   2.409  0.00  0.00    -0.290 OA
BRANCH  14  19
ATOM     15 CL   LIG    1       -2.362   2.553   7.612  0.00  0.00    -0.050 Cl
ATOM     16  C   LIG    1       -1.674   2.142   6.072  0.00  0.00    -0.060 A 
ATOM     17  C   LIG    1       -2.352   2.456   4.907  0.00  0.00    +0.080 A 
ATOM     18  C   LIG    1       -1.804   2.136   3.680  0.00  0.00    -0.040 A 
ATOM     19  C   LIG    1       -0.579   1.488   3.616  0.00  0.00    +0.150 A 
ATOM     20  C   LIG    1        0.100   1.174   4.786  0.00  0.00    -0.060 A 
ATOM     21 CL   LIG    1        1.637   0.370   4.709  0.00  0.00    -0.040 Cl
ATOM     22  C   LIG    1       -0.450   1.501   6.011  0.00  0.00    +0.090 A 
ENDBRANCH  14  19
ENDBRANCH  13  14
ENDBRANCH  12  13
ENDBRANCH  11  12
ENDBRANCH   1  11
BRANCH   5  23
ATOM     23  C   LIG    1       -1.289   1.565  -4.770  0.00  0.00    +0.360 C 
BRANCH  23  24
ATOM     24  C   LIG    1       -2.387   0.537  -4.846  0.00  0.00    -0.130 A 
ATOM     25  C   LIG    1       -2.402  -0.385  -5.877  0.00  0.00    +0.030 A 
ATOM     26  C   LIG    1       -3.407  -1.331  -5.943  0.00  0.00    +0.010 A 
ATOM     27  C   LIG    1       -4.403  -1.350  -4.985  0.00  0.00    +0.030 A 
ATOM     28  C   LIG    1       -4.392  -0.426  -3.958  0.00  0.00    +0.010 A 
ATOM     29  C   LIG    1       -3.384   0.518  -3.888  0.00  0.00    +0.040 A 
ENDBRANCH  23  24
ENDBRANCH   5  23
TORSDOF 8
