REMARK  Name = ZINCrg00000cg3oV.0
REMARK                            x       y       z     vdW  Elec       q    Type
REMARK                         _______ _______ _______ _____ _____    ______ ____
ROOT
ATOM      1  C   LIG    1       -0.811  10.532  -1.597  0.00  0.00    +0.450 C 
ENDROOT
BRANCH   1  10
ATOM      2  O   LIG    1        1.054  11.833  -0.183  0.00  0.00    -0.560 OA
ATOM      3  C   LIG    1        1.413  11.450  -1.279  0.00  0.00    +0.710 C 
ATOM      4  N   LIG    1        2.626  11.805  -1.730  0.00  0.00    -0.720 N 
ATOM      5  H   LIG    1        3.231  12.289  -1.147  0.00  0.00    +0.430 HD
ATOM      6  C   LIG    1        3.046  11.476  -3.093  0.00  0.00    +0.300 C 
ATOM      7  C   LIG    1        2.485  10.107  -3.485  0.00  0.00    +0.010 C 
ATOM      8  C   LIG    1        1.026  10.044  -3.109  0.00  0.00    +0.520 C 
ATOM      9  O   LIG    1        0.248   9.422  -3.800  0.00  0.00    -0.460 OA
ATOM     10  N   LIG    1        0.588  10.679  -2.007  0.00  0.00    -0.570 N 
BRANCH   7  11
ATOM     11  C   LIG    1        2.633   9.907  -4.995  0.00  0.00    +0.000 C 
ATOM     12  C   LIG    1        4.131   9.823  -5.397  0.00  0.00    +0.020 C 
ATOM     13  C   LIG    1        4.044   8.946  -6.671  0.00  0.00    +0.200 C 
ATOM     14  O   LIG    1        3.001   7.995  -6.402  0.00  0.00    -0.380 OA
ATOM     15  C   LIG    1        2.101   8.521  -5.420  0.00  0.00    +0.220 C 
ENDBRANCH   7  11
ENDBRANCH   1  10
BRANCH   1  16
ATOM     16  C   LIG    1       -0.941   9.352  -0.667  0.00  0.00    +0.260 A 
ATOM     17  N   LIG    1       -1.092   8.104  -1.027  0.00  0.00    -0.500 NA
ATOM     18  C   LIG    1       -1.173   7.329   0.054  0.00  0.00    +0.220 A 
ATOM     19  N   LIG    1       -1.080   8.078   1.121  0.00  0.00    -0.280 NA
ATOM     20  N   LIG    1       -0.922   9.400   0.676  0.00  0.00    -0.450 N 
ATOM     21  H   LIG    1       -0.823  10.191   1.228  0.00  0.00    +0.450 HD
BRANCH  18  22
ATOM     22  C   LIG    1       -1.350   5.832   0.047  0.00  0.00    +0.350 C 
BRANCH  22  23
ATOM     23  O   LIG    1       -0.069   5.201   0.031  0.00  0.00    -0.310 OA
BRANCH  23  24
ATOM     24  C   LIG    1       -0.050   3.842   0.023  0.00  0.00    +0.130 A 
ATOM     25  C   LIG    1        1.160   3.163   0.008  0.00  0.00    -0.020 A 
ATOM     26  C   LIG    1        1.176   1.782   0.000  0.00  0.00    +0.050 A 
ATOM     27  C   LIG    1       -0.013   1.076   0.008  0.00  0.00    -0.040 A 
ATOM     28  C   LIG    1       -1.220   1.750   0.017  0.00  0.00    +0.050 A 
ATOM     29  C   LIG    1       -1.241   3.131   0.031  0.00  0.00    -0.080 A 
ENDBRANCH  23  24
ENDBRANCH  22  23
ENDBRANCH  18  22
ENDBRANCH   1  16
TORSDOF 6
