REMARK  Name = ZINCrg00000cg3oV.1
REMARK                            x       y       z     vdW  Elec       q    Type
REMARK                         _______ _______ _______ _____ _____    ______ ____
ROOT
ATOM      1  C   LIG    1       -2.406  10.727   0.078  0.00  0.00    +0.460 C 
ENDROOT
BRANCH   1  10
ATOM      2  O   LIG    1       -4.423   9.831   1.594  0.00  0.00    -0.530 OA
ATOM      3  C   LIG    1       -3.756  10.714   2.095  0.00  0.00    +0.700 C 
ATOM      4  N   LIG    1       -4.143  11.239   3.268  0.00  0.00    -0.730 N 
ATOM      5  H   LIG    1       -4.897  10.854   3.740  0.00  0.00    +0.430 HD
ATOM      6  C   LIG    1       -3.443  12.390   3.843  0.00  0.00    +0.300 C 
ATOM      7  C   LIG    1       -1.947  12.283   3.539  0.00  0.00    +0.000 C 
ATOM      8  C   LIG    1       -1.760  11.936   2.084  0.00  0.00    +0.520 C 
ATOM      9  O   LIG    1       -0.810  12.376   1.472  0.00  0.00    -0.470 OA
ATOM     10  N   LIG    1       -2.648  11.137   1.464  0.00  0.00    -0.570 N 
BRANCH   7  11
ATOM     11  C   LIG    1       -1.268  13.622   3.837  0.00  0.00    +0.000 C 
ATOM     12  C   LIG    1       -1.405  13.977   5.334  0.00  0.00    +0.020 C 
ATOM     13  C   LIG    1        0.054  14.045   5.839  0.00  0.00    +0.190 C 
ATOM     14  O   LIG    1        0.839  14.324   4.659  0.00  0.00    -0.380 OA
ATOM     15  C   LIG    1        0.256  13.518   3.610  0.00  0.00    +0.230 C 
ENDBRANCH   7  11
ENDBRANCH   1  10
BRANCH   1  16
ATOM     16  C   LIG    1       -1.616   9.444   0.065  0.00  0.00    +0.210 A 
ATOM     17  N   LIG    1       -0.312   9.354   0.051  0.00  0.00    -0.280 NA
ATOM     18  N   LIG    1        0.000   7.985   0.047  0.00  0.00    -0.460 N 
ATOM     19  H   LIG    1        0.886   7.591   0.041  0.00  0.00    +0.450 HD
ATOM     20  C   LIG    1       -1.173   7.329   0.050  0.00  0.00    +0.280 A 
ATOM     21  N   LIG    1       -2.135   8.216   0.064  0.00  0.00    -0.500 NA
BRANCH  20  22
ATOM     22  C   LIG    1       -1.350   5.832   0.045  0.00  0.00    +0.350 C 
BRANCH  22  23
ATOM     23  O   LIG    1       -0.069   5.201   0.029  0.00  0.00    -0.320 OA
BRANCH  23  24
ATOM     24  C   LIG    1       -0.050   3.842   0.023  0.00  0.00    +0.130 A 
ATOM     25  C   LIG    1        1.160   3.163   0.007  0.00  0.00    -0.020 A 
ATOM     26  C   LIG    1        1.176   1.782   0.000  0.00  0.00    +0.050 A 
ATOM     27  C   LIG    1       -0.013   1.076   0.008  0.00  0.00    -0.020 A 
ATOM     28  C   LIG    1       -1.220   1.750   0.017  0.00  0.00    +0.050 A 
ATOM     29  C   LIG    1       -1.241   3.131   0.031  0.00  0.00    -0.080 A 
ENDBRANCH  23  24
ENDBRANCH  22  23
ENDBRANCH  20  22
ENDBRANCH   1  16
TORSDOF 6
