REMARK  Name = ZINCrg00000cg3oV.2
REMARK                            x       y       z     vdW  Elec       q    Type
REMARK                         _______ _______ _______ _____ _____    ______ ____
ROOT
ATOM      1  C   LIG    1        2.395   1.165  -0.280  0.00  0.00    +0.460 C 
ENDROOT
BRANCH   1  10
ATOM      2  O   LIG    1        0.002  -0.004   0.002  0.00  0.00    -0.530 OA
ATOM      3  C   LIG    1       -0.014   1.211   0.009  0.00  0.00    +0.710 C 
ATOM      4  N   LIG    1       -1.195   1.851   0.018  0.00  0.00    -0.730 N 
ATOM      5  H   LIG    1       -2.015   1.339   0.103  0.00  0.00    +0.430 HD
ATOM      6  C   LIG    1       -1.263   3.308  -0.094  0.00  0.00    +0.300 C 
ATOM      7  C   LIG    1       -0.073   3.936   0.636  0.00  0.00    +0.010 C 
ATOM      8  C   LIG    1        1.188   3.205   0.248  0.00  0.00    +0.520 C 
ATOM      9  O   LIG    1        2.235   3.808   0.158  0.00  0.00    -0.490 OA
ATOM     10  N   LIG    1        1.149   1.883   0.001  0.00  0.00    -0.570 N 
BRANCH   7  11
ATOM     11  C   LIG    1        0.048   5.409   0.243  0.00  0.00    -0.010 C 
ATOM     12  C   LIG    1       -1.213   6.190   0.674  0.00  0.00    +0.010 C 
ATOM     13  C   LIG    1       -0.680   7.246   1.667  0.00  0.00    +0.190 C 
ATOM     14  O   LIG    1        0.711   7.416   1.315  0.00  0.00    -0.370 OA
ATOM     15  C   LIG    1        1.197   6.085   1.024  0.00  0.00    +0.220 C 
ENDBRANCH   7  11
ENDBRANCH   1  10
BRANCH   1  16
ATOM     16  C   LIG    1        2.661   1.182  -1.763  0.00  0.00    +0.150 A 
ATOM     17  N   LIG    1        2.187   0.344  -2.644  0.00  0.00    -0.250 NA
ATOM     18  N   LIG    1        2.615   0.658  -3.815  0.00  0.00    -0.280 NA
ATOM     19  C   LIG    1        3.390   1.705  -3.733  0.00  0.00    +0.190 A 
ATOM     20  N   LIG    1        3.441   2.068  -2.429  0.00  0.00    -0.550 N 
ATOM     21  H   LIG    1        3.936   2.810  -2.049  0.00  0.00    +0.440 HD
BRANCH  19  22
ATOM     22  C   LIG    1        4.097   2.385  -4.878  0.00  0.00    +0.350 C 
BRANCH  22  23
ATOM     23  O   LIG    1        4.849   3.494  -4.381  0.00  0.00    -0.320 OA
BRANCH  23  24
ATOM     24  C   LIG    1        5.550   4.220  -5.291  0.00  0.00    +0.130 A 
ATOM     25  C   LIG    1        5.521   3.868  -6.633  0.00  0.00    -0.080 A 
ATOM     26  C   LIG    1        6.231   4.611  -7.556  0.00  0.00    +0.050 A 
ATOM     27  C   LIG    1        6.979   5.698  -7.143  0.00  0.00    -0.020 A 
ATOM     28  C   LIG    1        7.014   6.047  -5.806  0.00  0.00    +0.050 A 
ATOM     29  C   LIG    1        6.302   5.311  -4.879  0.00  0.00    -0.020 A 
ENDBRANCH  23  24
ENDBRANCH  22  23
ENDBRANCH  19  22
ENDBRANCH   1  16
TORSDOF 6
