REMARK  Name = ZINCpe00000MJK8z.0
REMARK                            x       y       z     vdW  Elec       q    Type
REMARK                         _______ _______ _______ _____ _____    ______ ____
ROOT
ATOM      1  C   LIG    1        0.744  -1.913  -1.227  0.00  0.00    +0.140 C 
ATOM      2  C   LIG    1        1.294  -2.170  -2.632  0.00  0.00    +0.080 C 
ENDROOT
BRANCH   1   3
ATOM      3  N   LIG    1        0.728  -0.468  -0.965  0.00  0.00    -0.510 NA
ATOM      4  C   LIG    1        0.163  -0.179   0.361  0.00  0.00    +0.160 C 
ATOM      5  C   LIG    1        0.109   1.337   0.568  0.00  0.00    +0.250 C 
ATOM      6  O   LIG    1        1.422   1.881   0.409  0.00  0.00    -0.370 OA
ATOM      7  C   LIG    1        2.002   1.619  -0.871  0.00  0.00    +0.280 C 
ATOM      8  C   LIG    1        2.075   0.106  -1.093  0.00  0.00    +0.180 C 
BRANCH   7   9
ATOM      9  C   LIG    1        3.391   2.203  -0.923  0.00  0.00    +0.180 A 
ATOM     10  N   LIG    1        4.413   1.832  -0.202  0.00  0.00    -0.260 NA
ATOM     11  N   LIG    1        5.439   2.544  -0.507  0.00  0.00    -0.290 NA
ATOM     12  C   LIG    1        5.119   3.401  -1.438  0.00  0.00    +0.190 A 
ATOM     13  C   LIG    1        6.035   4.416  -2.072  0.00  0.00    +0.200 C 
ATOM     14  N   LIG    1        3.811   3.206  -1.732  0.00  0.00    -0.570 N 
ATOM     15  H   LIG    1        3.281   3.688  -2.387  0.00  0.00    +0.430 HD
ENDBRANCH   7   9
ENDBRANCH   1   3
BRANCH   1  17
ATOM     16  N   LIG    1       -0.860  -3.726  -0.721  0.00  0.00    -0.620 N 
ATOM     17  C   LIG    1       -0.657  -2.458  -1.129  0.00  0.00    +0.520 C 
ATOM     18  O   LIG    1       -1.603  -1.755  -1.417  0.00  0.00    -0.500 OA
ATOM     19  C   LIG    1        0.283  -4.611  -0.483  0.00  0.00    +0.280 C 
BRANCH  16  20
ATOM     20  C   LIG    1       -2.224  -4.220  -0.515  0.00  0.00    +0.400 C 
BRANCH  20  24
ATOM     21  C   LIG    1       -3.512  -7.405  -4.271  0.00  0.00    +0.180 C 
ATOM     22  C   LIG    1       -3.285  -6.198  -3.398  0.00  0.00    -0.030 A 
ATOM     23  C   LIG    1       -2.702  -6.179  -2.175  0.00  0.00    -0.060 A 
ATOM     24  C   LIG    1       -2.741  -4.817  -1.799  0.00  0.00    -0.010 A 
ATOM     25  N   LIG    1       -3.307  -4.180  -2.783  0.00  0.00    -0.340 NA
ATOM     26  O   LIG    1       -3.616  -4.929  -3.680  0.00  0.00    +0.100 OA
ENDBRANCH  20  24
ENDBRANCH  16  20
ENDBRANCH   1  17
TORSDOF 5
