REMARK  Name = ZINCpe00000MJK8z.1
REMARK                            x       y       z     vdW  Elec       q    Type
REMARK                         _______ _______ _______ _____ _____    ______ ____
ROOT
ATOM      1  C   LIG    1       -2.800   1.670  -2.597  0.00  0.00    +0.180 C 
ATOM      2  C   LIG    1       -2.091   1.126  -3.839  0.00  0.00    +0.070 C 
ENDROOT
BRANCH   1   3
ATOM      3  N   LIG    1       -2.051   1.279  -1.395  0.00  0.00    -0.500 NA
ATOM      4  C   LIG    1       -0.675   1.795  -1.442  0.00  0.00    +0.170 C 
ATOM      5  C   LIG    1        0.086   1.316  -0.202  0.00  0.00    +0.230 C 
ATOM      6  O   LIG    1       -0.611   1.739   0.973  0.00  0.00    -0.370 OA
ATOM      7  C   LIG    1       -1.955   1.255   1.050  0.00  0.00    +0.290 C 
ATOM      8  C   LIG    1       -2.736   1.733  -0.176  0.00  0.00    +0.180 C 
BRANCH   7   9
ATOM      9  C   LIG    1       -2.610   1.782   2.301  0.00  0.00    +0.230 A 
ATOM     10  N   LIG    1       -2.538   3.013   2.734  0.00  0.00    -0.280 NA
ATOM     11  N   LIG    1       -3.288   3.070   3.920  0.00  0.00    -0.480 N 
ATOM     12  H   LIG    1       -3.431   3.849   4.481  0.00  0.00    +0.440 HD
ATOM     13  C   LIG    1       -3.765   1.831   4.126  0.00  0.00    +0.280 A 
ATOM     14  C   LIG    1       -4.628   1.395   5.283  0.00  0.00    +0.190 C 
ATOM     15  N   LIG    1       -3.350   1.068   3.147  0.00  0.00    -0.530 NA
ENDBRANCH   7   9
ENDBRANCH   1   3
BRANCH   1  17
ATOM     16  N   LIG    1       -3.620   3.761  -3.633  0.00  0.00    -0.610 N 
ATOM     17  C   LIG    1       -2.873   3.173  -2.678  0.00  0.00    +0.490 C 
ATOM     18  O   LIG    1       -2.259   3.853  -1.883  0.00  0.00    -0.510 OA
ATOM     19  C   LIG    1       -4.446   2.943  -4.524  0.00  0.00    +0.280 C 
BRANCH  16  20
ATOM     20  C   LIG    1       -3.605   5.219  -3.779  0.00  0.00    +0.390 C 
BRANCH  20  24
ATOM     21  C   LIG    1       -0.971   6.531  -7.932  0.00  0.00    +0.180 C 
ATOM     22  C   LIG    1       -1.404   6.177  -6.533  0.00  0.00    -0.030 A 
ATOM     23  C   LIG    1       -2.655   5.855  -6.128  0.00  0.00    -0.060 A 
ATOM     24  C   LIG    1       -2.516   5.616  -4.742  0.00  0.00    -0.010 A 
ATOM     25  N   LIG    1       -1.260   5.813  -4.460  0.00  0.00    -0.340 NA
ATOM     26  O   LIG    1       -0.626   6.119  -5.442  0.00  0.00    +0.100 OA
ENDBRANCH  20  24
ENDBRANCH  16  20
ENDBRANCH   1  17
TORSDOF 5
