REMARK  Name = ZINCrm000000OO5P.0
REMARK                            x       y       z     vdW  Elec       q    Type
REMARK                         _______ _______ _______ _____ _____    ______ ____
ROOT
ATOM      1  C   LIG    1       -2.538   9.029   0.092  0.00  0.00    +0.560 C 
ATOM      2  N   LIG    1       -2.171   7.733   0.150  0.00  0.00    -0.610 N 
ATOM      3  C   LIG    1       -2.388   6.841  -0.997  0.00  0.00    +0.270 C 
ATOM      4  C   LIG    1       -3.167   5.610  -0.524  0.00  0.00    +0.040 C 
ATOM      5  C   LIG    1       -2.425   4.960   0.646  0.00  0.00    +0.080 C 
ATOM      6  C   LIG    1       -2.336   5.951   1.809  0.00  0.00    +0.040 C 
ATOM      7  C   LIG    1       -1.547   7.186   1.363  0.00  0.00    +0.290 C 
ATOM      8  O   LIG    1       -2.449   9.731   1.080  0.00  0.00    -0.530 OA
ENDROOT
BRANCH   5   9
ATOM      9  C   LIG    1       -3.171   3.729   1.092  0.00  0.00    +0.360 A 
ATOM     10  N   LIG    1       -4.413   3.849   1.515  0.00  0.00    -0.500 NA
ATOM     11  C   LIG    1       -5.096   2.791   1.919  0.00  0.00    +0.370 A 
ATOM     12  C   LIG    1       -4.490   1.542   1.882  0.00  0.00    -0.260 A 
ATOM     13  C   LIG    1       -5.258   0.333   2.336  0.00  0.00    +0.360 C 
ATOM     14  N   LIG    1       -4.630  -0.893   1.830  0.00  0.00    -0.510 N 
ATOM     15  C   LIG    1       -3.210  -0.899   2.213  0.00  0.00    +0.290 C 
ATOM     16  C   LIG    1       -2.468   0.135   1.364  0.00  0.00    +0.160 C 
ATOM     17  H   LIG    1       -4.708  -0.922   0.824  0.00  0.00    +0.430 HD
ATOM     18  H   LIG    1       -5.091  -1.697   2.229  0.00  0.00    +0.440 HD
ATOM     19  C   LIG    1       -3.189   1.456   1.431  0.00  0.00    +0.190 A 
ATOM     20  N   LIG    1       -2.564   2.560   1.047  0.00  0.00    -0.500 NA
ENDBRANCH   5   9
BRANCH   1  25
ATOM     21  C   LIG    1       -4.527  11.089  -2.338  0.00  0.00    -0.110 A 
ATOM     22  C   LIG    1       -4.008  10.658  -3.546  0.00  0.00    +0.050 A 
ATOM     23  C   LIG    1       -3.011   9.698  -3.573  0.00  0.00    +0.020 A 
ATOM     24  C   LIG    1       -2.526   9.169  -2.396  0.00  0.00    +0.060 A 
ATOM     25  C   LIG    1       -3.050   9.596  -1.174  0.00  0.00    -0.120 A 
ATOM     26  C   LIG    1       -4.055  10.564  -1.153  0.00  0.00    +0.090 A 
BRANCH  21  27
ATOM     27  C   LIG    1       -5.613  12.134  -2.317  0.00  0.00    +0.100 C 
BRANCH  27  28
ATOM     28  C   LIG    1       -4.979  13.526  -2.249  0.00  0.00    +0.270 C 
BRANCH  28  29
ATOM     29  N   LIG    1       -6.037  14.545  -2.229  0.00  0.00    -0.640 N 
ATOM     30  H   LIG    1       -6.625  14.403  -1.422  0.00  0.00    +0.440 HD
ATOM     31  H   LIG    1       -6.593  14.469  -3.068  0.00  0.00    +0.440 HD
ATOM     32  H   LIG    1       -5.620  15.462  -2.184  0.00  0.00    +0.440 HD
ENDBRANCH  28  29
ENDBRANCH  27  28
ENDBRANCH  21  27
ENDBRANCH   1  25
TORSDOF 5
