REMARK  Name = ZINCpe000000Xs1P.1
REMARK                            x       y       z     vdW  Elec       q    Type
REMARK                         _______ _______ _______ _____ _____    ______ ____
ROOT
ATOM      1  S   LIG    1       -4.493   4.496   3.042  0.00  0.00    +2.500 S 
ATOM      2  O   LIG    1       -3.707   5.599   3.471  0.00  0.00    -0.930 OA
ATOM      3  O   LIG    1       -4.982   3.539   3.972  0.00  0.00    -0.930 OA
ENDROOT
BRANCH   1   4
ATOM      4  C   LIG    1       -5.946   5.233   2.371  0.00  0.00    -0.660 A 
ATOM      5  C   LIG    1       -5.898   6.520   1.871  0.00  0.00    +0.140 A 
ATOM      6  C   LIG    1       -7.034   7.104   1.338  0.00  0.00    +0.010 A 
ATOM      7  C   LIG    1       -8.223   6.396   1.317  0.00  0.00    +0.120 A 
ATOM      8  O   LIG    1       -9.352   6.961   0.799  0.00  0.00    -0.320 OA
ATOM      9  C   LIG    1      -10.390   7.256   1.736  0.00  0.00    +0.230 C 
ATOM     10  C   LIG    1      -11.253   6.030   1.987  0.00  0.00    +0.000 C 
ATOM     11  C   LIG    1      -10.481   4.905   2.658  0.00  0.00    +0.230 C 
ATOM     12  O   LIG    1       -9.450   4.415   1.797  0.00  0.00    -0.310 OA
ATOM     13  C   LIG    1       -8.273   5.105   1.824  0.00  0.00    +0.050 A 
ATOM     14  C   LIG    1       -7.134   4.522   2.352  0.00  0.00    +0.140 A 
ENDBRANCH   1   4
BRANCH   1  15
ATOM     15  C   LIG    1       -3.712   3.668   1.629  0.00  0.00    -0.290 C 
BRANCH  15  16
ATOM     16  C   LIG    1       -2.424   2.982   2.089  0.00  0.00    +0.080 C 
BRANCH  16  25
ATOM     17  C   LIG    1       -0.546   1.532  -1.369  0.00  0.00    +0.060 C 
ATOM     18  C   LIG    1        0.094   1.046  -0.067  0.00  0.00    +0.180 C 
ATOM     19  C   LIG    1        1.556   1.502  -0.011  0.00  0.00    +0.220 C 
ATOM     20  N   LIG    1        2.120   1.163   1.303  0.00  0.00    -0.680 NA
ATOM     21  H   LIG    1        2.099   0.166   1.459  0.00  0.00    +0.340 HD
ATOM     22  C   LIG    1        1.428   1.880   2.381  0.00  0.00    +0.210 C 
ATOM     23  C   LIG    1       -0.039   1.440   2.423  0.00  0.00    +0.230 C 
ATOM     24  N   LIG    1       -0.620   1.621   1.084  0.00  0.00    -0.610 N 
ATOM     25  C   LIG    1       -1.774   2.295   0.915  0.00  0.00    +0.530 C 
ATOM     26  O   LIG    1       -2.291   2.349  -0.180  0.00  0.00    -0.520 OA
ENDBRANCH  16  25
ENDBRANCH  15  16
ENDBRANCH   1  15
TORSDOF 4
