REMARK  Name = ZINCrD000000fHiL.0
REMARK                            x       y       z     vdW  Elec       q    Type
REMARK                         _______ _______ _______ _____ _____    ______ ____
ROOT
ATOM      1  C   LIG    1       -0.018   1.461   0.010  0.00  0.00    +0.290 C 
ENDROOT
BRANCH   1   3
ATOM      2  C   LIG    1       -1.156  -0.694   0.009  0.00  0.00    +0.520 C 
ATOM      3  N   LIG    1        0.002  -0.004   0.002  0.00  0.00    -0.730 N 
ATOM      4  H   LIG    1        0.849  -0.478  -0.009  0.00  0.00    +0.400 HD
ATOM      5  O   LIG    1       -2.214  -0.102   0.023  0.00  0.00    -0.520 OA
BRANCH   2   6
ATOM      6  C   LIG    1       -1.135  -2.201   0.001  0.00  0.00    +0.170 C 
ATOM      7  C   LIG    1       -2.442  -2.725  -0.599  0.00  0.00    +0.070 C 
BRANCH   6  10
ATOM      8  C   LIG    1        1.376  -4.473  -1.784  0.00  0.00    +0.100 C 
ATOM      9  C   LIG    1        0.213  -3.991  -0.955  0.00  0.00    +0.520 C 
ATOM     10  N   LIG    1       -0.005  -2.669  -0.804  0.00  0.00    -0.730 N 
ATOM     11  H   LIG    1        0.586  -2.029  -1.230  0.00  0.00    +0.400 HD
ATOM     12  O   LIG    1       -0.526  -4.792  -0.423  0.00  0.00    -0.530 OA
ENDBRANCH   6  10
BRANCH   6  13
ATOM     13  C   LIG    1       -0.989  -2.717   1.434  0.00  0.00    +0.010 C 
ATOM     14  C   LIG    1       -2.229  -2.333   2.243  0.00  0.00    +0.040 C 
ATOM     15  C   LIG    1        0.252  -2.093   2.076  0.00  0.00    +0.010 C 
ENDBRANCH   6  13
ENDBRANCH   2   6
ENDBRANCH   1   3
BRANCH   1  16
ATOM     16  C   LIG    1        1.418   1.990  -0.001  0.00  0.00    +0.190 C 
BRANCH  16  17
ATOM     17  O   LIG    1        2.050   1.628  -1.230  0.00  0.00    -0.300 OA
BRANCH  17  18
ATOM     18  C   LIG    1        3.338   2.024  -1.401  0.00  0.00    +0.140 A 
ATOM     19  C   LIG    1        3.979   2.751  -0.412  0.00  0.00    -0.080 A 
ATOM     20  C   LIG    1        5.291   3.149  -0.585  0.00  0.00    +0.050 A 
ATOM     21  C   LIG    1        5.968   2.834  -1.750  0.00  0.00    -0.020 A 
ATOM     22  C   LIG    1        5.340   2.115  -2.746  0.00  0.00    +0.060 A 
ATOM     23  C   LIG    1        4.019   1.704  -2.580  0.00  0.00    -0.080 A 
BRANCH  23  24
ATOM     24  C   LIG    1        3.339   0.932  -3.648  0.00  0.00    -0.040 A 
ATOM     25  C   LIG    1        2.673  -0.253  -3.338  0.00  0.00    +0.030 A 
ATOM     26  C   LIG    1        2.038  -0.965  -4.335  0.00  0.00    +0.000 A 
ATOM     27  C   LIG    1        2.071  -0.511  -5.641  0.00  0.00    +0.000 A 
ATOM     28  C   LIG    1        2.734   0.661  -5.955  0.00  0.00    +0.000 A 
ATOM     29  C   LIG    1        3.369   1.384  -4.965  0.00  0.00    +0.010 A 
ENDBRANCH  23  24
ENDBRANCH  17  18
ENDBRANCH  16  17
ENDBRANCH   1  16
TORSDOF 8
