REMARK  Name = ZINCpe000000UVXn.0
REMARK                            x       y       z     vdW  Elec       q    Type
REMARK                         _______ _______ _______ _____ _____    ______ ____
ROOT
ATOM      1  N   LIG    1        5.692   6.496  -0.019  0.00  0.00    -0.700 N 
ATOM      2  H   LIG    1        5.239   7.354  -0.011  0.00  0.00    +0.410 HD
ATOM      3  C   LIG    1        4.976   5.355  -0.017  0.00  0.00    +0.570 C 
ATOM      4  O   LIG    1        5.544   4.281  -0.027  0.00  0.00    -0.510 OA
ENDROOT
BRANCH   3   5
ATOM      5  C   LIG    1        3.495   5.410  -0.004  0.00  0.00    -0.060 A 
ATOM      6  C   LIG    1        2.822   6.636   0.009  0.00  0.00    +0.000 A 
ATOM      7  C   LIG    1        1.441   6.645   0.022  0.00  0.00    +0.320 A 
ATOM      8  N   LIG    1        0.755   5.519   0.018  0.00  0.00    -0.490 NA
ATOM      9  C   LIG    1        1.349   4.337   0.012  0.00  0.00    +0.360 A 
ATOM     10  C   LIG    1        2.734   4.239  -0.002  0.00  0.00    +0.060 A 
BRANCH   9  11
ATOM     11  N   LIG    1        0.573   3.173   0.014  0.00  0.00    -0.340 N 
ATOM     12  C   LIG    1       -0.772   3.099   0.026  0.00  0.00    +0.520 A 
ATOM     13  N   LIG    1       -1.108   1.835   0.017  0.00  0.00    -0.540 NA
ATOM     14  C   LIG    1       -0.013   1.076   0.008  0.00  0.00    +0.450 A 
ATOM     15  N   LIG    1        1.041   1.849   0.002  0.00  0.00    -0.310 NA
ENDBRANCH   9  11
ENDBRANCH   3   5
BRANCH   1  16
ATOM     16  C   LIG    1        7.156   6.442  -0.033  0.00  0.00    +0.300 C 
BRANCH  16  17
ATOM     17  C   LIG    1        7.712   7.707   0.568  0.00  0.00    -0.100 A 
ATOM     18  C   LIG    1        7.123   8.925   0.282  0.00  0.00    +0.010 A 
ATOM     19  C   LIG    1        7.630  10.085   0.836  0.00  0.00    +0.020 A 
ATOM     20  C   LIG    1        8.730  10.029   1.670  0.00  0.00    +0.020 A 
ATOM     21  C   LIG    1        9.322   8.812   1.953  0.00  0.00    +0.020 A 
ATOM     22  C   LIG    1        8.813   7.652   1.401  0.00  0.00    +0.030 A 
ENDBRANCH  16  17
BRANCH  16  26
ATOM     23  C   LIG    1        9.432   6.104  -3.092  0.00  0.00    +0.290 C 
ATOM     24  N   LIG    1        8.962   6.236  -1.711  0.00  0.00    -0.730 N 
ATOM     25  H   LIG    1        9.601   6.274  -0.982  0.00  0.00    +0.400 HD
ATOM     26  C   LIG    1        7.641   6.306  -1.453  0.00  0.00    +0.510 C 
ATOM     27  O   LIG    1        6.842   6.259  -2.365  0.00  0.00    -0.520 OA
ENDBRANCH  16  26
ENDBRANCH   1  16
TORSDOF 5
