REMARK  Name = ZINCvU000000079L.0
REMARK                            x       y       z     vdW  Elec       q    Type
REMARK                         _______ _______ _______ _____ _____    ______ ____
ROOT
ATOM      1  O   LIG    1       -2.434   8.143  -0.038  0.00  0.00    -0.490 OA
ATOM      2  C   LIG    1       -3.077   7.997  -1.056  0.00  0.00    +0.520 C 
ATOM      3  N   LIG    1       -4.098   8.832  -1.333  0.00  0.00    -0.590 N 
ENDROOT
BRANCH   3   4
ATOM      4  C   LIG    1       -4.349   9.992  -0.475  0.00  0.00    +0.210 C 
ATOM      5  C   LIG    1       -3.227  10.428   0.470  0.00  0.00    +0.050 C 
ATOM      6  C   LIG    1       -4.476   9.743   1.030  0.00  0.00    +0.010 C 
ENDBRANCH   3   4
BRANCH   3   7
ATOM      7  C   LIG    1       -4.956   8.580  -2.493  0.00  0.00    +0.470 C 
BRANCH   7   8
ATOM      8  C   LIG    1       -6.113   7.707  -2.082  0.00  0.00    +0.140 A 
ATOM      9  N   LIG    1       -7.267   8.118  -1.635  0.00  0.00    -0.260 NA
ATOM     10  N   LIG    1       -8.018   7.104  -1.384  0.00  0.00    -0.270 NA
ATOM     11  C   LIG    1       -7.360   6.001  -1.656  0.00  0.00    +0.220 A 
ATOM     12  O   LIG    1       -6.141   6.363  -2.103  0.00  0.00    -0.220 OA
BRANCH  11  13
ATOM     13  C   LIG    1       -7.862   4.620  -1.500  0.00  0.00    -0.030 A 
ATOM     14  C   LIG    1       -7.049   3.536  -1.835  0.00  0.00    +0.070 A 
ATOM     15  C   LIG    1       -7.521   2.249  -1.682  0.00  0.00    +0.040 A 
ATOM     16  C   LIG    1       -8.804   2.031  -1.209  0.00  0.00    -0.010 A 
ATOM     17  C   LIG    1       -9.618   3.103  -0.880  0.00  0.00    +0.040 A 
ATOM     18 CL   LIG    1       -9.394   0.409  -1.026  0.00  0.00    -0.050 Cl
ATOM     19  C   LIG    1       -9.155   4.394  -1.023  0.00  0.00    +0.100 A 
ENDBRANCH  11  13
ENDBRANCH   7   8
ENDBRANCH   3   7
BRANCH   2  20
ATOM     20  C   LIG    1       -2.734   6.883  -2.011  0.00  0.00    +0.160 C 
BRANCH  20  21
ATOM     21  C   LIG    1       -1.489   6.179  -1.535  0.00  0.00    +0.090 A 
ATOM     22  C   LIG    1       -1.456   4.859  -1.324  0.00  0.00    -0.070 A 
ATOM     23  S   LIG    1        0.166   4.427  -0.786  0.00  0.00    +0.100 S 
ATOM     24  C   LIG    1        0.646   6.119  -0.895  0.00  0.00    +0.120 A 
ATOM     25  N   LIG    1       -0.369   6.824  -1.303  0.00  0.00    -0.440 NA
BRANCH  24  26
ATOM     26  C   LIG    1        1.990   6.651  -0.580  0.00  0.00    -0.030 A 
ATOM     27  C   LIG    1        3.001   5.791  -0.149  0.00  0.00    +0.020 A 
ATOM     28  C   LIG    1        4.252   6.294   0.144  0.00  0.00    +0.010 A 
ATOM     29  C   LIG    1        4.505   7.647   0.011  0.00  0.00    +0.030 A 
ATOM     30  C   LIG    1        3.505   8.506  -0.410  0.00  0.00    +0.010 A 
ATOM     31  C   LIG    1        2.251   8.015  -0.711  0.00  0.00    +0.070 A 
ENDBRANCH  24  26
ENDBRANCH  20  21
ENDBRANCH   2  20
TORSDOF 7
