REMARK  Name = ZINCrD000000D9vL.0
REMARK                            x       y       z     vdW  Elec       q    Type
REMARK                         _______ _______ _______ _____ _____    ______ ____
ROOT
ATOM      1  C   LIG    1        1.248  -2.162  -0.021  0.00  0.00    +0.120 A 
ATOM      2  C   LIG    1        2.363  -2.946  -0.036  0.00  0.00    -0.020 A 
ATOM      3  C   LIG    1        1.943  -4.290  -0.038  0.00  0.00    +0.140 A 
ATOM      4  N   LIG    1        0.624  -4.310  -0.026  0.00  0.00    -0.200 NA
ATOM      5  N   LIG    1        0.162  -2.988  -0.009  0.00  0.00    -0.450 N 
ATOM      6  H   LIG    1       -0.766  -2.708   0.007  0.00  0.00    +0.450 HD
ENDROOT
BRANCH   1  10
ATOM      7  C   LIG    1        1.170   2.086   0.002  0.00  0.00    -0.040 A 
ATOM      8  C   LIG    1       -0.017   1.376   0.010  0.00  0.00    +0.110 A 
ATOM      9  C   LIG    1        0.002  -0.004   0.002  0.00  0.00    +0.040 A 
ATOM     10  C   LIG    1        1.221  -0.682  -0.013  0.00  0.00    +0.020 A 
ATOM     11  C   LIG    1        2.414   0.040  -0.021  0.00  0.00    +0.070 A 
ATOM     12  C   LIG    1        2.382   1.420  -0.013  0.00  0.00    +0.110 A 
BRANCH   7  14
ATOM     13  O   LIG    1        0.077   4.156   0.023  0.00  0.00    -0.150 OA
ATOM     14  N   LIG    1        1.143   3.566   0.010  0.00  0.00    +0.020 N 
ATOM     15  O   LIG    1        2.186   4.195   0.003  0.00  0.00    -0.150 OA
ENDBRANCH   7  14
ENDBRANCH   1  10
BRANCH   3  16
ATOM     16  C   LIG    1        2.827  -5.473  -0.053  0.00  0.00    +0.250 A 
ATOM     17  N   LIG    1        2.450  -6.740  -0.056  0.00  0.00    -0.440 NA
ATOM     18  C   LIG    1        3.587  -7.453  -0.070  0.00  0.00    +0.180 A 
ATOM     19  N   LIG    1        4.579  -6.613  -0.076  0.00  0.00    -0.370 NA
ATOM     20  O   LIG    1        4.169  -5.472  -0.072  0.00  0.00    +0.100 OA
BRANCH  18  21
ATOM     21  C   LIG    1        3.694  -8.957  -0.080  0.00  0.00    +0.170 C 
BRANCH  21  22
ATOM     22  C   LIG    1        3.717  -9.458  -1.525  0.00  0.00    +0.030 C 
BRANCH  22  23
ATOM     23  C   LIG    1        3.826 -10.984  -1.534  0.00  0.00    -0.010 C 
ATOM     24  C   LIG    1        5.177 -11.405  -0.950  0.00  0.00    -0.010 C 
ATOM     25  C   LIG    1        5.310 -12.927  -1.035  0.00  0.00    +0.200 C 
ATOM     26  O   LIG    1        5.174 -13.340  -2.397  0.00  0.00    -0.380 OA
ATOM     27  C   LIG    1        3.911 -13.015  -2.982  0.00  0.00    +0.200 C 
ATOM     28  C   LIG    1        3.723 -11.496  -2.974  0.00  0.00    +0.000 C 
ENDBRANCH  22  23
ENDBRANCH  21  22
ENDBRANCH  18  21
ENDBRANCH   3  16
TORSDOF 6
