REMARK  Name = ZINCrD000000D9vL.1
REMARK                            x       y       z     vdW  Elec       q    Type
REMARK                         _______ _______ _______ _____ _____    ______ ____
ROOT
ATOM      1  C   LIG    1       -3.332   2.928   0.035  0.00  0.00    +0.100 A 
ATOM      2  N   LIG    1       -2.554   3.991   0.037  0.00  0.00    -0.230 NA
ATOM      3  N   LIG    1       -1.219   3.569   0.033  0.00  0.00    -0.430 N 
ATOM      4  H   LIG    1       -0.439   4.146   0.037  0.00  0.00    +0.460 HD
ATOM      5  C   LIG    1       -1.208   2.203   0.020  0.00  0.00    +0.150 A 
ATOM      6  C   LIG    1       -2.521   1.783   0.025  0.00  0.00    -0.010 A 
ENDROOT
BRANCH   1  10
ATOM      7  C   LIG    1       -7.585   2.961   0.060  0.00  0.00    -0.040 A 
ATOM      8  C   LIG    1       -6.886   4.154   0.062  0.00  0.00    +0.110 A 
ATOM      9  C   LIG    1       -5.506   4.150   0.054  0.00  0.00    +0.070 A 
ATOM     10  C   LIG    1       -4.816   2.939   0.044  0.00  0.00    +0.040 A 
ATOM     11  C   LIG    1       -5.525   1.740   0.036  0.00  0.00    +0.070 A 
ATOM     12  C   LIG    1       -6.905   1.756   0.050  0.00  0.00    +0.110 A 
BRANCH   7  14
ATOM     13  O   LIG    1       -9.666   4.031   0.078  0.00  0.00    -0.160 OA
ATOM     14  N   LIG    1       -9.065   2.972   0.069  0.00  0.00    +0.020 N 
ATOM     15  O   LIG    1       -9.682   1.922   0.067  0.00  0.00    -0.150 OA
ENDBRANCH   7  14
ENDBRANCH   1  10
BRANCH   5  16
ATOM     16  C   LIG    1       -0.016   1.339   0.009  0.00  0.00    +0.240 A 
ATOM     17  N   LIG    1        1.247   1.734  -0.001  0.00  0.00    -0.460 NA
ATOM     18  C   LIG    1        1.976   0.608  -0.013  0.00  0.00    +0.190 A 
ATOM     19  N   LIG    1        1.149  -0.397  -0.011  0.00  0.00    -0.370 NA
ATOM     20  O   LIG    1        0.002  -0.004   0.002  0.00  0.00    +0.110 OA
BRANCH  18  21
ATOM     21  C   LIG    1        3.480   0.522  -0.028  0.00  0.00    +0.170 C 
BRANCH  21  22
ATOM     22  C   LIG    1        3.975   0.500  -1.476  0.00  0.00    +0.030 C 
BRANCH  22  23
ATOM     23  C   LIG    1        5.503   0.414  -1.491  0.00  0.00    -0.010 C 
ATOM     24  C   LIG    1        6.095   1.692  -0.890  0.00  0.00    +0.000 C 
ATOM     25  C   LIG    1        7.622   1.630  -0.981  0.00  0.00    +0.200 C 
ATOM     26  O   LIG    1        8.009   1.462  -2.346  0.00  0.00    -0.380 OA
ATOM     27  C   LIG    1        7.524   0.259  -2.947  0.00  0.00    +0.210 C 
ATOM     28  C   LIG    1        5.993   0.266  -2.934  0.00  0.00    -0.010 C 
ENDBRANCH  22  23
ENDBRANCH  21  22
ENDBRANCH  18  21
ENDBRANCH   5  16
TORSDOF 6
