REMARK  Name = ZINC9u0000000C5I.0
REMARK                            x       y       z     vdW  Elec       q    Type
REMARK                         _______ _______ _______ _____ _____    ______ ____
ROOT
ATOM      1  C   LIG    1        3.676   2.182  -0.023  0.00  0.00    +0.100 C 
ATOM      2  C   LIG    1        2.380   1.413  -0.014  0.00  0.00    -0.050 A 
ATOM      3  C   LIG    1        2.397   0.031  -0.021  0.00  0.00    +0.010 A 
ATOM      4  C   LIG    1        1.209  -0.677  -0.013  0.00  0.00    +0.070 A 
ATOM      5  C   LIG    1        0.002  -0.004   0.002  0.00  0.00    -0.130 A 
ATOM      6  C   LIG    1       -0.017   1.384   0.010  0.00  0.00    +0.140 A 
ATOM      7 BR   LIG    1       -1.622  -0.973   0.012  0.00  0.00    -0.040 Br
ATOM      8  C   LIG    1        1.176   2.091   0.002  0.00  0.00    +0.000 A 
ENDROOT
BRANCH   6   9
ATOM      9  O   LIG    1       -1.202   2.049   0.019  0.00  0.00    -0.490 OA
ATOM     10  H   LIG    1       -1.541   2.236   0.905  0.00  0.00    +0.400 HD
ENDBRANCH   6   9
TORSDOF 1
