REMARK  Name = ZINCtV00000L6jlW.0
REMARK                            x       y       z     vdW  Elec       q    Type
REMARK                         _______ _______ _______ _____ _____    ______ ____
ROOT
ATOM      1  N   LIG    1        4.604  -0.338   1.272  0.00  0.00    -0.490 N 
ATOM      2  C   LIG    1        4.477  -1.281   2.280  0.00  0.00    +0.180 A 
ATOM      3  C   LIG    1        5.220  -0.852   3.389  0.00  0.00    -0.090 A 
ATOM      4  C   LIG    1        5.830   0.438   3.012  0.00  0.00    +0.110 A 
ATOM      5  N   LIG    1        6.617   1.283   3.651  0.00  0.00    -0.380 NA
ATOM      6  C   LIG    1        7.021   2.400   3.041  0.00  0.00    +0.060 A 
ATOM      7  C   LIG    1        7.860   3.319   3.700  0.00  0.00    +0.070 A 
ATOM      8  C   LIG    1        8.258   4.449   3.057  0.00  0.00    +0.030 A 
ATOM      9  C   LIG    1        7.846   4.714   1.751  0.00  0.00    +0.060 A 
ATOM     10  C   LIG    1        7.036   3.850   1.083  0.00  0.00    +0.040 A 
ATOM     11  C   LIG    1        6.603   2.669   1.712  0.00  0.00    +0.130 A 
ATOM     12  N   LIG    1        5.806   1.806   1.075  0.00  0.00    -0.450 NA
ATOM     13  C   LIG    1        5.260  -1.625   4.547  0.00  0.00    +0.120 A 
ATOM     14  C   LIG    1        4.565  -2.816   4.599  0.00  0.00    -0.070 A 
ATOM     15  C   LIG    1        3.830  -3.242   3.502  0.00  0.00    +0.100 A 
ATOM     16 CL   LIG    1        4.612  -3.784   6.039  0.00  0.00    -0.060 Cl
ATOM     17  C   LIG    1        3.784  -2.485   2.351  0.00  0.00    +0.010 A 
ATOM     18  C   LIG    1        5.414   0.700   1.682  0.00  0.00    +0.330 A 
ENDROOT
BRANCH   1  19
ATOM     19  C   LIG    1        3.971  -0.434  -0.046  0.00  0.00    +0.390 C 
BRANCH  19  25
ATOM     20  C   LIG    1        1.905   0.413  -1.187  0.00  0.00    +0.140 A 
ATOM     21  C   LIG    1        0.690   1.083  -1.163  0.00  0.00    -0.070 A 
ATOM     22  C   LIG    1        0.227   1.628   0.019  0.00  0.00    +0.050 A 
ATOM     23  C   LIG    1        0.972   1.506   1.177  0.00  0.00    -0.030 A 
ATOM     24  C   LIG    1        2.183   0.840   1.156  0.00  0.00    +0.050 A 
ATOM     25  C   LIG    1        2.651   0.293  -0.023  0.00  0.00    -0.140 A 
BRANCH  20  26
ATOM     26  O   LIG    1        2.363  -0.124  -2.348  0.00  0.00    -0.310 OA
BRANCH  26  27
ATOM     27  C   LIG    1        1.604   0.142  -3.530  0.00  0.00    +0.230 C 
BRANCH  27  29
ATOM     28  C   LIG    1        1.572  -1.163  -5.593  0.00  0.00    +0.040 C 
ATOM     29  C   LIG    1        2.280  -0.497  -4.715  0.00  0.00    -0.040 C 
ENDBRANCH  27  29
ENDBRANCH  26  27
ENDBRANCH  20  26
ENDBRANCH  19  25
ENDBRANCH   1  19
TORSDOF 5
