REMARK  Name = ZINCqH00000059d7.0
REMARK                            x       y       z     vdW  Elec       q    Type
REMARK                         _______ _______ _______ _____ _____    ______ ____
ROOT
ATOM      1  C   LIG    1        0.509   1.840   0.302  0.00  0.00    +0.190 C 
ATOM      2  N   LIG    1       -0.403   2.092   1.426  0.00  0.00    -0.510 NA
ENDROOT
BRANCH   2   3
ATOM      3  C   LIG    1       -0.907   3.472   1.396  0.00  0.00    +0.230 C 
BRANCH   3   4
ATOM      4  C   LIG    1       -1.775   3.664   0.179  0.00  0.00    -0.090 A 
ATOM      5  C   LIG    1       -1.248   4.234  -0.963  0.00  0.00    +0.030 A 
ATOM      6  C   LIG    1       -2.043   4.405  -2.082  0.00  0.00    -0.020 A 
ATOM      7  C   LIG    1       -3.370   4.017  -2.057  0.00  0.00    +0.030 A 
ATOM      8  C   LIG    1       -3.905   3.451  -0.916  0.00  0.00    -0.040 A 
ATOM      9  C   LIG    1       -3.108   3.273   0.207  0.00  0.00    +0.120 A 
BRANCH   9  10
ATOM     10  N   LIG    1       -3.645   2.701   1.363  0.00  0.00    -0.470 N 
ATOM     11  C   LIG    1       -5.099   2.441   1.202  0.00  0.00    +0.170 C 
ATOM     12  C   LIG    1       -5.391   1.377   2.289  0.00  0.00    +0.020 C 
ATOM     13  C   LIG    1       -4.120   0.496   2.262  0.00  0.00    +0.000 C 
ATOM     14  C   LIG    1       -3.028   1.386   1.640  0.00  0.00    +0.220 C 
ENDBRANCH   9  10
ENDBRANCH   3   4
ENDBRANCH   2   3
BRANCH   2  15
ATOM     15  C   LIG    1        0.248   1.797   2.709  0.00  0.00    +0.210 C 
BRANCH  15  16
ATOM     16  C   LIG    1        0.530   0.320   2.801  0.00  0.00    +0.510 C 
ATOM     17  N   LIG    1        1.128  -0.185   3.898  0.00  0.00    -0.740 N 
ATOM     18  H   LIG    1        1.377   0.402   4.629  0.00  0.00    +0.400 HD
ATOM     19  O   LIG    1        0.220  -0.415   1.887  0.00  0.00    -0.520 OA
BRANCH  17  20
ATOM     20  C   LIG    1        1.403  -1.622   3.987  0.00  0.00    +0.270 C 
BRANCH  20  21
ATOM     21  C   LIG    1        2.081  -1.929   5.324  0.00  0.00    +0.050 C 
BRANCH  21  22
ATOM     22  C   LIG    1        2.363  -3.407   5.415  0.00  0.00    -0.120 C 
ATOM     23  C   LIG    1        3.535  -3.824   5.058  0.00  0.00    -0.050 C 
ATOM     24  C   LIG    1        3.961  -5.263   5.089  0.00  0.00    +0.050 C 
ATOM     25  C   LIG    1        3.007  -6.078   5.964  0.00  0.00    +0.010 C 
ATOM     26  C   LIG    1        1.567  -5.758   5.540  0.00  0.00    +0.010 C 
ATOM     27  C   LIG    1        1.266  -4.303   5.910  0.00  0.00    +0.060 C 
ENDBRANCH  21  22
ENDBRANCH  20  21
ENDBRANCH  17  20
ENDBRANCH  15  16
ENDBRANCH   2  15
TORSDOF 8
