REMARK  Name = ZINCpk000000np10.0
REMARK                            x       y       z     vdW  Elec       q    Type
REMARK                         _______ _______ _______ _____ _____    ______ ____
ROOT
ATOM      1  N   LIG    1       -1.191   1.869   0.018  0.00  0.00    -0.710 N 
ATOM      2  H   LIG    1       -1.204   2.839   0.023  0.00  0.00    +0.410 HD
ATOM      3  C   LIG    1       -0.014   1.211   0.009  0.00  0.00    +0.600 C 
ATOM      4  O   LIG    1        0.002  -0.004   0.002  0.00  0.00    -0.510 OA
ENDROOT
BRANCH   3   5
ATOM      5  C   LIG    1        1.260   1.970   0.001  0.00  0.00    -0.030 A 
ATOM      6  N   LIG    1        1.401   3.272   0.007  0.00  0.00    -0.320 NA
ATOM      7  O   LIG    1        2.567   3.591  -0.002  0.00  0.00    +0.140 OA
ATOM      8  C   LIG    1        3.376   2.522  -0.016  0.00  0.00    -0.040 A 
ATOM      9  C   LIG    1        2.576   1.430  -0.009  0.00  0.00    +0.040 A 
BRANCH   8  10
ATOM     10  C   LIG    1        4.883   2.534  -0.029  0.00  0.00    +0.330 C 
BRANCH  10  11
ATOM     11  O   LIG    1        5.346   2.545  -1.381  0.00  0.00    -0.310 OA
BRANCH  11  12
ATOM     12  C   LIG    1        6.692   2.557  -1.571  0.00  0.00    +0.130 A 
ATOM     13  C   LIG    1        7.548   2.564  -0.479  0.00  0.00    -0.080 A 
ATOM     14  C   LIG    1        8.916   2.571  -0.676  0.00  0.00    +0.050 A 
ATOM     15  C   LIG    1        9.431   2.581  -1.958  0.00  0.00    -0.020 A 
ATOM     16  C   LIG    1        8.580   2.580  -3.048  0.00  0.00    +0.050 A 
ATOM     17  C   LIG    1        7.212   2.568  -2.857  0.00  0.00    -0.020 A 
ENDBRANCH  11  12
ENDBRANCH  10  11
ENDBRANCH   8  10
ENDBRANCH   3   5
BRANCH   1  20
ATOM     18  N   LIG    1       -4.425   1.336  -0.533  0.00  0.00    -0.460 NA
ATOM     19  C   LIG    1       -3.642   1.913   0.583  0.00  0.00    +0.160 C 
ATOM     20  C   LIG    1       -2.449   1.119   0.020  0.00  0.00    +0.240 C 
ATOM     21  C   LIG    1       -3.190   1.148  -1.330  0.00  0.00    +0.180 C 
BRANCH  18  22
ATOM     22  C   LIG    1       -5.297   2.349  -1.143  0.00  0.00    +0.130 C 
BRANCH  22  24
ATOM     23  C   LIG    1       -6.716   0.539  -2.119  0.00  0.00    +0.070 C 
ATOM     24  C   LIG    1       -5.898   1.793  -2.435  0.00  0.00    +0.130 C 
ATOM     25  C   LIG    1       -6.807   2.848  -3.070  0.00  0.00    +0.020 C 
BRANCH  24  26
ATOM     26  O   LIG    1       -4.847   1.460  -3.344  0.00  0.00    -0.550 OA
ATOM     27  H   LIG    1       -4.287   2.209  -3.589  0.00  0.00    +0.370 HD
ENDBRANCH  24  26
ENDBRANCH  22  24
ENDBRANCH  18  22
ENDBRANCH   1  20
TORSDOF 8
