REMARK  Name = ZINCvU00000008CS.1
REMARK                            x       y       z     vdW  Elec       q    Type
REMARK                         _______ _______ _______ _____ _____    ______ ____
ROOT
ATOM      1  C   LIG    1       -6.216   3.357   0.084  0.00  0.00    +0.080 C 
ENDROOT
BRANCH   1   2
ATOM      2  C   LIG    1       -5.559   3.808  -1.195  0.00  0.00    -0.100 A 
ATOM      3  C   LIG    1       -6.153   3.530  -2.412  0.00  0.00    +0.020 A 
ATOM      4  C   LIG    1       -5.553   3.947  -3.586  0.00  0.00    +0.000 A 
ATOM      5  C   LIG    1       -4.354   4.635  -3.542  0.00  0.00    +0.020 A 
ATOM      6  C   LIG    1       -3.758   4.908  -2.325  0.00  0.00    +0.010 A 
ATOM      7  C   LIG    1       -4.360   4.494  -1.152  0.00  0.00    +0.070 A 
ENDBRANCH   1   2
BRANCH   1  10
ATOM      8  N   LIG    1       -7.701   5.261   0.624  0.00  0.00    -0.660 N 
ATOM      9  H   LIG    1       -6.917   5.750   0.919  0.00  0.00    +0.430 HD
ATOM     10  C   LIG    1       -7.580   3.988   0.198  0.00  0.00    +0.550 C 
ATOM     11  O   LIG    1       -8.570   3.350  -0.094  0.00  0.00    -0.500 OA
BRANCH   8  16
ATOM     12  C   LIG    1      -12.793   7.760   0.691  0.00  0.00    +0.120 C 
ATOM     13  C   LIG    1      -11.441   7.096   0.673  0.00  0.00    -0.100 A 
ATOM     14  C   LIG    1      -11.330   5.748   0.960  0.00  0.00    +0.100 A 
ATOM     15  C   LIG    1      -10.091   5.137   0.945  0.00  0.00    +0.040 A 
ATOM     16  C   LIG    1       -8.957   5.877   0.640  0.00  0.00    +0.210 A 
ATOM     17  C   LIG    1       -9.071   7.232   0.358  0.00  0.00    -0.070 A 
ATOM     18  C   LIG    1      -10.312   7.836   0.369  0.00  0.00    +0.120 A 
BRANCH  17  19
ATOM     19  N   LIG    1       -7.863   8.027   0.040  0.00  0.00    +0.040 N 
ATOM     20  O   LIG    1       -6.783   7.475  -0.072  0.00  0.00    -0.170 OA
ATOM     21  O   LIG    1       -7.950   9.232  -0.111  0.00  0.00    -0.150 OA
ENDBRANCH  17  19
ENDBRANCH   8  16
ENDBRANCH   1  10
BRANCH   1  22
ATOM     22  S   LIG    1       -6.384   1.555   0.074  0.00  0.00    +0.090 S 
BRANCH  22  23
ATOM     23  C   LIG    1       -4.685   1.090   0.088  0.00  0.00    +0.250 A 
ATOM     24  N   LIG    1       -3.659   1.912   0.102  0.00  0.00    -0.520 NA
ATOM     25  C   LIG    1       -2.516   1.208   0.110  0.00  0.00    +0.310 A 
ATOM     26  N   LIG    1       -2.808  -0.075   0.094  0.00  0.00    -0.280 NA
ATOM     27  N   LIG    1       -4.208  -0.175   0.086  0.00  0.00    -0.460 N 
ATOM     28  H   LIG    1       -4.731  -0.992   0.076  0.00  0.00    +0.450 HD
BRANCH  25  29
ATOM     29  C   LIG    1       -1.153   1.780   0.126  0.00  0.00    -0.130 A 
ATOM     30  C   LIG    1       -0.009   1.067   0.134  0.00  0.00    +0.060 A 
ATOM     31  C   LIG    1        1.143   1.825   0.142  0.00  0.00    +0.010 A 
ATOM     32  C   LIG    1        0.951   3.147   0.148  0.00  0.00    -0.040 A 
ATOM     33  S   LIG    1       -0.773   3.498   0.142  0.00  0.00    +0.180 S 
ENDBRANCH  25  29
ENDBRANCH  22  23
ENDBRANCH   1  22
TORSDOF 7
