REMARK  Name = ZINCvU00000008cs.0
REMARK                            x       y       z     vdW  Elec       q    Type
REMARK                         _______ _______ _______ _____ _____    ______ ____
ROOT
ATOM      1  C   LIG    1        1.176   1.784   0.006  0.00  0.00    +0.140 A 
ATOM      2  C   LIG    1        1.147   3.164  -0.164  0.00  0.00    +0.030 A 
ATOM      3  C   LIG    1       -0.056   3.843  -0.146  0.00  0.00    +0.020 A 
ATOM      4  C   LIG    1       -1.243   3.152   0.042  0.00  0.00    +0.110 A 
ATOM      5  C   LIG    1       -1.222   1.762   0.209  0.00  0.00    -0.040 A 
ATOM      6  C   LIG    1       -0.004   1.082   0.195  0.00  0.00    +0.090 A 
ENDROOT
BRANCH   5   7
ATOM      7  C   LIG    1       -2.483   1.019   0.404  0.00  0.00    +0.150 A 
ATOM      8  N   LIG    1       -2.569  -0.259   0.565  0.00  0.00    -0.460 NA
ATOM      9  C   LIG    1       -3.792  -0.792   0.737  0.00  0.00    +0.080 A 
ATOM     10  C   LIG    1       -4.148  -2.144   0.935  0.00  0.00    +0.070 A 
ATOM     11  C   LIG    1       -5.453  -2.500   1.085  0.00  0.00    +0.030 A 
ATOM     12  C   LIG    1       -6.459  -1.546   1.047  0.00  0.00    +0.040 A 
ATOM     13  C   LIG    1       -6.143  -0.219   0.857  0.00  0.00    +0.060 A 
ATOM     14  C   LIG    1       -4.813   0.166   0.700  0.00  0.00    -0.190 A 
ATOM     15  S   LIG    1       -4.083   1.748   0.444  0.00  0.00    +0.110 S 
ENDBRANCH   5   7
BRANCH   1  18
ATOM     16  O   LIG    1        1.487  -0.646  -1.037  0.00  0.00    -0.510 OA
ATOM     17  C   LIG    1        2.466  -0.146  -0.515  0.00  0.00    +0.540 C 
ATOM     18  N   LIG    1        2.399   1.104  -0.015  0.00  0.00    -0.670 N 
ATOM     19  H   LIG    1        3.198   1.531   0.331  0.00  0.00    +0.420 HD
BRANCH  17  20
ATOM     20  C   LIG    1        3.720  -0.903  -0.432  0.00  0.00    -0.010 C 
ATOM     21  C   LIG    1        3.788  -2.151  -0.932  0.00  0.00    +0.140 C 
BRANCH  21  22
ATOM     22  C   LIG    1        5.047  -2.912  -0.849  0.00  0.00    +0.120 A 
ATOM     23  N   LIG    1        6.110  -2.363  -0.281  0.00  0.00    -0.410 NA
ATOM     24  C   LIG    1        7.249  -3.054  -0.206  0.00  0.00    +0.080 A 
ATOM     25  C   LIG    1        8.396  -2.498   0.392  0.00  0.00    +0.060 A 
ATOM     26  C   LIG    1        9.543  -3.226   0.455  0.00  0.00    +0.040 A 
ATOM     27  C   LIG    1        9.603  -4.518  -0.066  0.00  0.00    +0.050 A 
ATOM     28  C   LIG    1        8.514  -5.089  -0.651  0.00  0.00    +0.060 A 
ATOM     29  C   LIG    1        7.310  -4.370  -0.736  0.00  0.00    +0.080 A 
ATOM     30  N   LIG    1        6.226  -4.908  -1.306  0.00  0.00    -0.420 NA
ATOM     31  C   LIG    1        5.111  -4.220  -1.369  0.00  0.00    +0.280 A 
ENDBRANCH  21  22
ENDBRANCH  17  20
ENDBRANCH   1  18
BRANCH   4  32
ATOM     32  O   LIG    1       -2.424   3.822   0.059  0.00  0.00    -0.480 OA
ATOM     33  H   LIG    1       -2.841   3.906  -0.809  0.00  0.00    +0.390 HD
ENDBRANCH   4  32
TORSDOF 5
