REMARK  Name = ZINCrD000000CWy7.0
REMARK                            x       y       z     vdW  Elec       q    Type
REMARK                         _______ _______ _______ _____ _____    ______ ____
ROOT
ATOM      1  C   LIG    1       -1.313   2.112   0.021  0.00  0.00    +0.210 A 
ATOM      2  N   LIG    1       -2.411   1.727   0.618  0.00  0.00    -0.370 NA
ATOM      3  O   LIG    1       -3.292   2.540   0.435  0.00  0.00    +0.090 OA
ATOM      4  C   LIG    1       -2.835   3.549  -0.313  0.00  0.00    +0.190 A 
ATOM      5  N   LIG    1       -1.578   3.294  -0.579  0.00  0.00    -0.460 NA
ENDROOT
BRANCH   4   6
ATOM      6  C   LIG    1       -3.617   4.757  -0.761  0.00  0.00    +0.150 C 
ATOM      7  C   LIG    1       -4.254   5.478   0.447  0.00  0.00    +0.120 C 
ATOM      8  C   LIG    1       -5.584   5.991  -0.056  0.00  0.00    -0.150 A 
ATOM      9  C   LIG    1       -6.435   6.956   0.461  0.00  0.00    +0.080 A 
ATOM     10  C   LIG    1       -7.612   7.233  -0.216  0.00  0.00    -0.030 A 
ATOM     11  C   LIG    1       -7.896   6.541  -1.378  0.00  0.00    +0.270 A 
ATOM     12  N   LIG    1       -7.064   5.630  -1.841  0.00  0.00    -0.480 NA
ATOM     13  C   LIG    1       -5.931   5.337  -1.223  0.00  0.00    +0.120 A 
ATOM     14  C   LIG    1       -4.853   4.336  -1.584  0.00  0.00    +0.130 C 
ENDBRANCH   4   6
BRANCH   1  18
ATOM     15  C   LIG    1        2.400   0.035  -0.021  0.00  0.00    +0.160 A 
ATOM     16  C   LIG    1        1.315  -0.497   0.665  0.00  0.00    +0.020 A 
ATOM     17  C   LIG    1        0.111   0.175   0.682  0.00  0.00    +0.070 A 
ATOM     18  C   LIG    1       -0.017   1.390   0.010  0.00  0.00    -0.020 A 
ATOM     19  C   LIG    1        1.073   1.922  -0.677  0.00  0.00    +0.080 A 
ATOM     20  C   LIG    1        2.274   1.246  -0.692  0.00  0.00    +0.020 A 
BRANCH  15  27
ATOM     21  O   LIG    1        2.982  -1.694  -1.857  0.00  0.00    -0.510 OA
ATOM     22  C   LIG    1        3.837  -1.543  -1.006  0.00  0.00    +0.660 C 
ATOM     23  O   LIG    1        4.954  -2.282  -1.083  0.00  0.00    -0.340 OA
ATOM     24  C   LIG    1        6.100  -1.837  -0.305  0.00  0.00    +0.260 C 
ATOM     25  C   LIG    1        5.612  -1.495   1.109  0.00  0.00    +0.030 C 
ATOM     26  C   LIG    1        4.600  -0.348   1.003  0.00  0.00    +0.280 C 
ATOM     27  N   LIG    1        3.619  -0.648  -0.037  0.00  0.00    -0.580 N 
ENDBRANCH  15  27
ENDBRANCH   1  18
TORSDOF 3
