REMARK  Name = ZINCrD00000752Dc.0
REMARK                            x       y       z     vdW  Elec       q    Type
REMARK                         _______ _______ _______ _____ _____    ______ ____
ROOT
ATOM      1  C   LIG    1        5.882   4.888  -0.023  0.00  0.00    +0.210 C 
ATOM      2  C   LIG    1        4.377   4.808  -0.011  0.00  0.00    +0.260 A 
ATOM      3  N   LIG    1        3.565   5.836   0.002  0.00  0.00    -0.320 NA
ATOM      4  N   LIG    1        2.259   5.329   0.010  0.00  0.00    -0.370 N 
ATOM      5  C   LIG    1        1.019   5.907   0.024  0.00  0.00    +0.650 A 
ATOM      6  N   LIG    1       -0.087   5.211   0.030  0.00  0.00    -0.550 NA
ATOM      7  C   LIG    1       -0.082   3.856   0.023  0.00  0.00    +0.180 A 
ATOM      8  C   LIG    1        1.153   3.168   0.008  0.00  0.00    -0.120 A 
ATOM      9  C   LIG    1        1.174   1.775   0.000  0.00  0.00    +0.100 A 
ATOM     10  C   LIG    1       -0.013   1.076   0.008  0.00  0.00    +0.000 A 
ATOM     11  C   LIG    1       -1.228   1.748   0.017  0.00  0.00    +0.070 A 
ATOM     12  C   LIG    1       -1.272   3.123   0.030  0.00  0.00    +0.020 A 
ATOM     13  C   LIG    1        2.384   3.966   0.001  0.00  0.00    +0.350 A 
ATOM     14  N   LIG    1        3.669   3.682  -0.011  0.00  0.00    -0.520 NA
ENDROOT
BRANCH   5  15
ATOM     15  N   LIG    1        0.933   7.279   0.033  0.00  0.00    -0.690 N 
ATOM     16  H   LIG    1        1.742   7.816   0.029  0.00  0.00    +0.420 HD
BRANCH  15  17
ATOM     17  C   LIG    1       -0.379   7.931   0.049  0.00  0.00    +0.270 C 
ATOM     18  C   LIG    1       -0.901   8.065  -1.385  0.00  0.00    +0.010 C 
ATOM     19  C   LIG    1        0.043   8.967  -2.183  0.00  0.00    +0.210 C 
ATOM     20  O   LIG    1        0.142  10.239  -1.538  0.00  0.00    -0.370 OA
ATOM     21  C   LIG    1        0.670  10.181  -0.211  0.00  0.00    +0.200 C 
ATOM     22  C   LIG    1       -0.250   9.327   0.665  0.00  0.00    +0.040 C 
BRANCH  21  23
ATOM     23  C   LIG    1        0.754  11.574   0.357  0.00  0.00    -0.040 A 
ATOM     24  C   LIG    1       -0.251  12.499   0.121  0.00  0.00    -0.010 A 
ATOM     25  C   LIG    1       -0.141  13.766   0.663  0.00  0.00    +0.260 A 
ATOM     26  N   LIG    1        0.908  14.101   1.388  0.00  0.00    -0.480 NA
ATOM     27  C   LIG    1        1.886  13.249   1.628  0.00  0.00    +0.260 A 
ATOM     28  C   LIG    1        1.842  11.963   1.124  0.00  0.00    -0.030 A 
ENDBRANCH  21  23
ENDBRANCH  15  17
ENDBRANCH   5  15
TORSDOF 3
