REMARK  Name = ZINCqH0000001u1Q.0
REMARK                            x       y       z     vdW  Elec       q    Type
REMARK                         _______ _______ _______ _____ _____    ______ ____
ROOT
ATOM      1  N   LIG    1        2.547   0.576  -1.763  0.00  0.00    -0.720 N 
ATOM      2  H   LIG    1        2.874   0.384  -0.870  0.00  0.00    +0.400 HD
ATOM      3  C   LIG    1        3.313   1.270  -2.627  0.00  0.00    +0.560 C 
ATOM      4  O   LIG    1        2.944   1.430  -3.773  0.00  0.00    -0.510 OA
ENDROOT
BRANCH   3   5
ATOM      5  C   LIG    1        4.608   1.838  -2.179  0.00  0.00    -0.030 A 
ATOM      6  C   LIG    1        5.098   1.562  -0.935  0.00  0.00    +0.000 A 
ATOM      7  C   LIG    1        6.380   2.132  -0.525  0.00  0.00    +0.540 A 
ATOM      8  N   LIG    1        7.077   2.932  -1.349  0.00  0.00    -0.630 N 
ATOM      9  H   LIG    1        7.923   3.301  -1.051  0.00  0.00    +0.420 HD
ATOM     10  C   LIG    1        6.614   3.239  -2.611  0.00  0.00    +0.180 A 
ATOM     11  C   LIG    1        7.352   4.070  -3.450  0.00  0.00    -0.030 A 
ATOM     12  C   LIG    1        6.878   4.369  -4.709  0.00  0.00    +0.070 A 
ATOM     13  C   LIG    1        5.669   3.849  -5.151  0.00  0.00    -0.020 A 
ATOM     14  C   LIG    1        4.929   3.032  -4.344  0.00  0.00    +0.110 A 
ATOM     15  O   LIG    1        6.820   1.883   0.584  0.00  0.00    -0.520 OA
ATOM     16  C   LIG    1        5.390   2.716  -3.063  0.00  0.00    -0.110 A 
ENDBRANCH   3   5
BRANCH   1  17
ATOM     17  C   LIG    1        1.219   0.110  -2.171  0.00  0.00    +0.330 C 
BRANCH  17  23
ATOM     18  C   LIG    1       -0.026   0.066  -0.001  0.00  0.00    -0.070 A 
ATOM     19  C   LIG    1       -0.613  -0.616   1.048  0.00  0.00    +0.040 A 
ATOM     20  C   LIG    1       -0.608  -1.998   1.063  0.00  0.00    +0.020 A 
ATOM     21  C   LIG    1       -0.008  -2.698   0.033  0.00  0.00    +0.010 A 
ATOM     22  C   LIG    1        0.583  -2.016  -1.014  0.00  0.00    +0.030 A 
ATOM     23  C   LIG    1        0.575  -0.634  -1.030  0.00  0.00    -0.110 A 
BRANCH  18  24
ATOM     24  C   LIG    1       -0.036   1.573  -0.019  0.00  0.00    +0.220 C 
BRANCH  24  25
ATOM     25  O   LIG    1       -0.710   2.059   1.143  0.00  0.00    -0.380 OA
BRANCH  25  27
ATOM     26  C   LIG    1       -2.049   3.976   0.534  0.00  0.00    +0.020 C 
ATOM     27  C   LIG    1       -0.775   3.484   1.224  0.00  0.00    +0.140 C 
ATOM     28  C   LIG    1       -0.793   3.912   2.693  0.00  0.00    +0.040 C 
ENDBRANCH  25  27
ENDBRANCH  24  25
ENDBRANCH  18  24
ENDBRANCH  17  23
ENDBRANCH   1  17
TORSDOF 6
