REMARK  Name = ZINCLJ0000000uR5.0
REMARK                            x       y       z     vdW  Elec       q    Type
REMARK                         _______ _______ _______ _____ _____    ______ ____
ROOT
ATOM      1  N   LIG    1        5.134  -5.569  -2.572  0.00  0.00    -0.490 N 
ATOM      2  C   LIG    1        3.981  -4.926  -2.474  0.00  0.00    +0.550 A 
ATOM      3  C   LIG    1        4.110  -3.468  -2.445  0.00  0.00    -0.320 A 
ATOM      4  S   LIG    1        5.855  -3.180  -2.566  0.00  0.00    +0.240 S 
ATOM      5  C   LIG    1        3.116  -2.545  -2.352  0.00  0.00    +0.300 C 
ATOM      6  O   LIG    1        2.907  -5.497  -2.414  0.00  0.00    -0.460 OA
ATOM      7  C   LIG    1        6.283  -4.845  -2.633  0.00  0.00    +0.200 A 
ATOM      8  C   LIG    1        7.579  -5.361  -2.737  0.00  0.00    -0.180 C 
ENDROOT
BRANCH   1  13
ATOM      9  C   LIG    1        5.281 -11.240  -2.733  0.00  0.00    +0.100 C 
ATOM     10  C   LIG    1        5.241  -9.734  -2.690  0.00  0.00    -0.050 A 
ATOM     11  C   LIG    1        5.335  -9.008  -3.863  0.00  0.00    +0.030 A 
ATOM     12  C   LIG    1        5.299  -7.628  -3.827  0.00  0.00    +0.030 A 
ATOM     13  C   LIG    1        5.170  -6.969  -2.612  0.00  0.00    +0.090 A 
ATOM     14  C   LIG    1        5.081  -7.701  -1.435  0.00  0.00    +0.030 A 
ATOM     15  C   LIG    1        5.112  -9.081  -1.478  0.00  0.00    -0.070 A 
ATOM     16  C   LIG    1        5.011  -9.877  -0.202  0.00  0.00    +0.110 C 
ENDBRANCH   1  13
BRANCH   5  17
ATOM     17  C   LIG    1        1.714  -2.968  -2.412  0.00  0.00    -0.240 A 
ATOM     18  C   LIG    1        1.182  -3.962  -3.213  0.00  0.00    +0.340 A 
ATOM     19  N   LIG    1       -0.140  -4.026  -2.965  0.00  0.00    -0.310 N 
ATOM     20  N   LIG    1       -0.483  -3.078  -1.997  0.00  0.00    -0.270 NA
ATOM     21  C   LIG    1        0.596  -2.422  -1.633  0.00  0.00    +0.160 A 
BRANCH  21  22
ATOM     22  C   LIG    1        0.669  -1.334  -0.630  0.00  0.00    -0.020 A 
ATOM     23  C   LIG    1       -0.385  -0.430  -0.500  0.00  0.00    +0.070 A 
ATOM     24  C   LIG    1       -0.312   0.581   0.436  0.00  0.00    +0.030 A 
ATOM     25  C   LIG    1        0.805   0.700   1.245  0.00  0.00    -0.020 A 
ATOM     26  C   LIG    1        1.855  -0.195   1.120  0.00  0.00    +0.030 A 
ATOM     27 CL   LIG    1        0.891   1.975   2.420  0.00  0.00    -0.060 Cl
ATOM     28  C   LIG    1        1.792  -1.210   0.187  0.00  0.00    +0.060 A 
ENDBRANCH  21  22
BRANCH  19  29
ATOM     29  C   LIG    1       -1.035  -4.907  -3.584  0.00  0.00    +0.150 A 
ATOM     30  C   LIG    1       -0.579  -5.804  -4.541  0.00  0.00    +0.000 A 
ATOM     31  C   LIG    1       -1.463  -6.675  -5.147  0.00  0.00    +0.040 A 
ATOM     32  C   LIG    1       -2.804  -6.648  -4.809  0.00  0.00    +0.010 A 
ATOM     33  C   LIG    1       -3.262  -5.752  -3.860  0.00  0.00    +0.030 A 
ATOM     34  C   LIG    1       -2.382  -4.882  -3.247  0.00  0.00    +0.030 A 
ENDBRANCH  19  29
ENDBRANCH   5  17
BRANCH   8  35
ATOM     35  C   LIG    1        8.710  -4.459  -2.949  0.00  0.00    +0.590 C 
ATOM     36  N   LIG    1        9.958  -4.955  -3.050  0.00  0.00    -0.720 N 
ATOM     37  H   LIG    1       10.107  -5.912  -2.981  0.00  0.00    +0.400 HD
ATOM     38  O   LIG    1        8.523  -3.258  -3.034  0.00  0.00    -0.530 OA
BRANCH  36  39
ATOM     39  C   LIG    1       11.091  -4.051  -3.261  0.00  0.00    +0.270 C 
BRANCH  39  40
ATOM     40  C   LIG    1       12.385  -4.865  -3.339  0.00  0.00    +0.160 C 
BRANCH  40  41
ATOM     41  N   LIG    1       13.521  -3.958  -3.552  0.00  0.00    -0.530 NA
ATOM     42  C   LIG    1       13.442  -3.314  -4.871  0.00  0.00    +0.150 C 
ATOM     43  C   LIG    1       14.609  -2.336  -5.026  0.00  0.00    +0.220 C 
ATOM     44  O   LIG    1       15.841  -3.038  -4.840  0.00  0.00    -0.390 OA
ATOM     45  C   LIG    1       15.953  -3.677  -3.566  0.00  0.00    +0.220 C 
ATOM     46  C   LIG    1       14.799  -4.669  -3.396  0.00  0.00    +0.160 C 
ENDBRANCH  40  41
ENDBRANCH  39  40
ENDBRANCH  36  39
ENDBRANCH   8  35
BRANCH   8  47
ATOM     47  C   LIG    1        7.798  -6.772  -2.637  0.00  0.00    +0.250 C 
ATOM     48  N   LIG    1        7.972  -7.892  -2.557  0.00  0.00    -0.400 NA
ENDBRANCH   8  47
TORSDOF 9
