REMARK  Name = ZINCqH0000032C1y.0
REMARK                            x       y       z     vdW  Elec       q    Type
REMARK                         _______ _______ _______ _____ _____    ______ ____
ROOT
ATOM      1  C   LIG    1       -7.826  -3.192  -0.988  0.00  0.00    +0.030 C 
ATOM      2  C   LIG    1       -7.198  -4.300  -0.139  0.00  0.00    +0.100 C 
ATOM      3  C   LIG    1       -6.683  -3.709   1.183  0.00  0.00    +0.300 C 
ATOM      4  N   LIG    1       -5.553  -2.818   0.878  0.00  0.00    -0.630 N 
ATOM      5  C   LIG    1       -4.467  -3.343   0.034  0.00  0.00    +0.280 C 
ATOM      6  C   LIG    1       -5.088  -3.953  -1.228  0.00  0.00    +0.140 C 
ATOM      7  C   LIG    1       -5.510  -1.561   1.361  0.00  0.00    +0.710 C 
ATOM      8  N   LIG    1       -4.514  -0.731   0.993  0.00  0.00    -0.740 N 
ATOM      9  H   LIG    1       -3.788  -1.059   0.439  0.00  0.00    +0.390 HD
ATOM     10  O   LIG    1       -6.369  -1.176   2.130  0.00  0.00    -0.570 OA
ATOM     11  C   LIG    1       -8.248  -5.374   0.157  0.00  0.00    +0.080 C 
ATOM     12  O   LIG    1       -6.104  -4.885  -0.849  0.00  0.00    -0.350 OA
ENDROOT
BRANCH   8  13
ATOM     13  C   LIG    1       -4.527   0.668   1.429  0.00  0.00    +0.260 C 
ATOM     14  C   LIG    1       -5.369   1.500   0.456  0.00  0.00    -0.000 C 
ATOM     15  C   LIG    1       -4.718   1.463  -0.930  0.00  0.00    +0.210 C 
ATOM     16  O   LIG    1       -3.379   1.954  -0.839  0.00  0.00    -0.370 OA
ATOM     17  C   LIG    1       -2.533   1.188   0.021  0.00  0.00    +0.240 C 
ATOM     18  C   LIG    1       -3.096   1.213   1.444  0.00  0.00    +0.040 C 
BRANCH  17  19
ATOM     19  C   LIG    1       -1.146   1.778   0.018  0.00  0.00    -0.180 A 
ATOM     20  C   LIG    1       -0.012   1.076   0.011  0.00  0.00    +0.010 A 
ATOM     21  C   LIG    1        1.145   1.837   0.005  0.00  0.00    +0.000 A 
ATOM     22  C   LIG    1        0.949   3.156   0.011  0.00  0.00    -0.050 A 
ATOM     23  S   LIG    1       -0.776   3.497   0.027  0.00  0.00    +0.140 S 
ENDBRANCH  17  19
ENDBRANCH   8  13
BRANCH   6  24
ATOM     24  C   LIG    1       -4.005  -4.677  -2.032  0.00  0.00    +0.470 C 
ATOM     25  F   LIG    1       -3.009  -3.765  -2.397  0.00  0.00    -0.170 F 
ATOM     26  F   LIG    1       -4.573  -5.233  -3.183  0.00  0.00    -0.170 F 
ATOM     27  F   LIG    1       -3.445  -5.692  -1.250  0.00  0.00    -0.170 F 
ENDBRANCH   6  24
TORSDOF 3
