REMARK  Name = ZINCpk00000KfLlW.0
REMARK                            x       y       z     vdW  Elec       q    Type
REMARK                         _______ _______ _______ _____ _____    ______ ____
ROOT
ATOM      1  C   LIG    1        2.886  -2.269   1.954  0.00  0.00    +0.340 A 
ATOM      2  C   LIG    1        3.088  -0.897   1.817  0.00  0.00    -0.030 A 
ATOM      3  C   LIG    1        2.170  -0.173   1.068  0.00  0.00    -0.050 A 
ATOM      4  C   LIG    1        1.112  -0.848   0.493  0.00  0.00    +0.030 A 
ATOM      5  N   LIG    1        0.998  -2.156   0.680  0.00  0.00    -0.200 NA
ATOM      6  C   LIG    1        0.071  -0.158  -0.348  0.00  0.00    +0.120 C 
ATOM      7  C   LIG    1        0.060   1.345  -0.072  0.00  0.00    +0.310 C 
ATOM      8  N   LIG    1        1.450   1.826  -0.105  0.00  0.00    -0.620 N 
ATOM      9  C   LIG    1        1.866   2.705  -1.039  0.00  0.00    +0.610 C 
ATOM     10  O   LIG    1        1.116   3.039  -1.937  0.00  0.00    -0.520 OA
ATOM     11  C   LIG    1        2.366   1.311   0.920  0.00  0.00    +0.340 C 
ATOM     12  N   LIG    1        1.836  -2.832   1.372  0.00  0.00    -0.300 NA
ENDROOT
BRANCH   9  13
ATOM     13  C   LIG    1        3.222   3.258  -0.972  0.00  0.00    -0.300 A 
ATOM     14  C   LIG    1        4.053   3.574  -2.064  0.00  0.00    +0.330 A 
ATOM     15  N   LIG    1        3.883   3.476  -3.383  0.00  0.00    -0.460 NA
ATOM     16  C   LIG    1        4.833   3.845  -4.215  0.00  0.00    +0.220 A 
ATOM     17  C   LIG    1        6.042   4.349  -3.721  0.00  0.00    -0.050 A 
ATOM     18  C   LIG    1        6.222   4.451  -2.379  0.00  0.00    +0.360 A 
ATOM     19  C   LIG    1        4.619   3.727  -5.702  0.00  0.00    +0.160 C 
ATOM     20  N   LIG    1        5.219   4.060  -1.543  0.00  0.00    -0.310 N 
ATOM     21  N   LIG    1        5.111   4.046  -0.148  0.00  0.00    -0.310 NA
ATOM     22  C   LIG    1        3.938   3.582   0.195  0.00  0.00    +0.330 A 
ENDBRANCH   9  13
BRANCH   1  23
ATOM     23  N   LIG    1        3.776  -3.040   2.693  0.00  0.00    -0.720 N 
ATOM     24  H   LIG    1        3.631  -3.995   2.785  0.00  0.00    +0.410 HD
BRANCH  23  26
ATOM     25  C   LIG    1        5.745  -3.473   4.077  0.00  0.00    +0.040 C 
ATOM     26  C   LIG    1        4.934  -2.411   3.333  0.00  0.00    +0.250 C 
ENDBRANCH  23  26
ENDBRANCH   1  23
TORSDOF 3
