REMARK  Name = ZINCvU0000000Dre.0
REMARK                            x       y       z     vdW  Elec       q    Type
REMARK                         _______ _______ _______ _____ _____    ______ ____
ROOT
ATOM      1  O   LIG    1        3.616   3.594  -0.013  0.00  0.00    -0.510 OA
ATOM      2  C   LIG    1        2.555   4.187   0.000  0.00  0.00    +0.570 C 
ATOM      3  N   LIG    1        1.397   3.497   0.007  0.00  0.00    -0.720 N 
ATOM      4  H   LIG    1        0.551   3.971   0.018  0.00  0.00    +0.400 HD
ENDROOT
BRANCH   2   5
ATOM      5  C   LIG    1        2.535   5.665   0.008  0.00  0.00    -0.130 A 
ATOM      6  C   LIG    1        1.319   6.350   0.018  0.00  0.00    +0.140 A 
ATOM      7  C   LIG    1        1.307   7.729   0.031  0.00  0.00    -0.190 A 
ATOM      8  C   LIG    1        2.497   8.434   0.023  0.00  0.00    +0.170 A 
ATOM      9  C   LIG    1        3.707   7.762   0.008  0.00  0.00    -0.190 A 
ATOM     10  C   LIG    1        3.732   6.383   0.001  0.00  0.00    +0.190 A 
BRANCH   9  11
ATOM     11  C   LIG    1        4.998   8.538  -0.000  0.00  0.00    +0.510 C 
ATOM     12  F   LIG    1        5.069   9.338   1.145  0.00  0.00    -0.170 F 
ATOM     13  F   LIG    1        5.048   9.349  -1.139  0.00  0.00    -0.170 F 
ATOM     14  F   LIG    1        6.077   7.647  -0.015  0.00  0.00    -0.170 F 
ENDBRANCH   9  11
BRANCH   7  15
ATOM     15  C   LIG    1       -0.005   8.470   0.047  0.00  0.00    +0.510 C 
ATOM     16  F   LIG    1        0.156   9.690   0.712  0.00  0.00    -0.170 F 
ATOM     17  F   LIG    1       -0.967   7.701   0.712  0.00  0.00    -0.170 F 
ATOM     18  F   LIG    1       -0.424   8.706  -1.267  0.00  0.00    -0.170 F 
ENDBRANCH   7  15
ENDBRANCH   2   5
BRANCH   3  19
ATOM     19  C   LIG    1        1.417   2.032  -0.001  0.00  0.00    +0.290 C 
BRANCH  19  20
ATOM     20  C   LIG    1       -0.018   1.503   0.010  0.00  0.00    +0.200 C 
BRANCH  20  21
ATOM     21  C   LIG    1        0.002  -0.004   0.002  0.00  0.00    +0.190 A 
ATOM     22  N   LIG    1        0.023  -0.788   1.051  0.00  0.00    -0.460 NA
ATOM     23  C   LIG    1        0.035  -2.048   0.563  0.00  0.00    +0.210 A 
ATOM     24  N   LIG    1        0.021  -1.957  -0.741  0.00  0.00    -0.370 NA
ATOM     25  O   LIG    1       -0.003  -0.792  -1.078  0.00  0.00    +0.090 OA
BRANCH  23  26
ATOM     26  C   LIG    1        0.059  -3.301   1.358  0.00  0.00    -0.020 A 
ATOM     27  C   LIG    1        0.078  -3.245   2.751  0.00  0.00    +0.090 A 
ATOM     28  C   LIG    1        0.095  -4.412   3.486  0.00  0.00    +0.030 A 
ATOM     29  C   LIG    1        0.104  -5.638   2.842  0.00  0.00    -0.020 A 
ATOM     30  C   LIG    1        0.092  -5.699   1.459  0.00  0.00    +0.030 A 
ATOM     31 CL   LIG    1        0.132  -7.103   3.773  0.00  0.00    -0.060 Cl
ATOM     32  C   LIG    1        0.069  -4.537   0.716  0.00  0.00    +0.070 A 
ENDBRANCH  23  26
ENDBRANCH  20  21
ENDBRANCH  19  20
ENDBRANCH   3  19
TORSDOF 7
