REMARK  Name = ZINCb70000002qxg.0
REMARK                            x       y       z     vdW  Elec       q    Type
REMARK                         _______ _______ _______ _____ _____    ______ ____
ROOT
ATOM      1  C   LIG    1        3.524   1.974  -1.254  0.00  0.00    +0.110 C 
ATOM      2  C   LIG    1        2.074   1.488  -1.266  0.00  0.00    +0.160 C 
ATOM      3  C   LIG    1        1.362   1.972  -0.000  0.00  0.00    +0.250 C 
ATOM      4  N   LIG    1       -0.018   1.466   0.010  0.00  0.00    -0.510 N 
ATOM      5  C   LIG    1        0.002  -0.004   0.002  0.00  0.00    +0.270 C 
ATOM      6  C   LIG    1        0.739  -0.495  -1.239  0.00  0.00    +0.060 C 
ATOM      7  C   LIG    1       -0.055  -0.132  -2.508  0.00  0.00    -0.020 C 
ATOM      8  C   LIG    1       -0.378  -1.502  -3.147  0.00  0.00    +0.240 C 
ATOM      9  O   LIG    1       -0.326  -2.442  -2.052  0.00  0.00    -0.360 OA
ATOM     10  C   LIG    1        0.803  -2.033  -1.248  0.00  0.00    +0.270 C 
ATOM     11  H   LIG    1       -0.490   1.792   0.840  0.00  0.00    +0.440 HD
ATOM     12  H   LIG    1       -0.505   1.801  -0.807  0.00  0.00    +0.430 HD
ATOM     13  O   LIG    1        2.049   0.057  -1.301  0.00  0.00    -0.340 OA
ENDROOT
TORSDOF 0
