REMARK  Name = ZINCpe000000Yva2.0
REMARK                            x       y       z     vdW  Elec       q    Type
REMARK                         _______ _______ _______ _____ _____    ______ ____
ROOT
ATOM      1  C   LIG    1       -0.386   1.701   2.534  0.00  0.00    -0.200 A 
ATOM      2  C   LIG    1       -0.771   1.599   1.214  0.00  0.00    +0.260 A 
ATOM      3  C   LIG    1       -0.013   1.086   0.008  0.00  0.00    +0.140 C 
ATOM      4  C   LIG    1       -0.810   1.622  -1.202  0.00  0.00    +0.080 C 
ATOM      5  C   LIG    1       -2.221   1.790  -0.603  0.00  0.00    +0.320 C 
ATOM      6  N   LIG    1       -2.020   1.998   0.843  0.00  0.00    -0.530 N 
ATOM      7  C   LIG    1       -2.878   2.501   1.755  0.00  0.00    +0.710 A 
ATOM      8  N   LIG    1       -2.563   2.626   3.053  0.00  0.00    -0.530 N 
ATOM      9  O   LIG    1       -3.981   2.854   1.386  0.00  0.00    -0.520 OA
ATOM     10  C   LIG    1       -1.348   2.248   3.503  0.00  0.00    +0.580 A 
ATOM     11  O   LIG    1       -1.057   2.355   4.680  0.00  0.00    -0.490 OA
ENDROOT
BRANCH   1  13
ATOM     12  N   LIG    1        1.955   0.954   3.281  0.00  0.00    -0.400 NA
ATOM     13  C   LIG    1        0.919   1.284   2.950  0.00  0.00    +0.280 C 
ENDBRANCH   1  13
BRANCH   8  14
ATOM     14  C   LIG    1       -3.546   3.178   3.989  0.00  0.00    +0.370 C 
BRANCH  14  15
ATOM     15  C   LIG    1       -4.381   2.060   4.557  0.00  0.00    +0.510 C 
ATOM     16  N   LIG    1       -5.356   2.333   5.447  0.00  0.00    -0.730 N 
ATOM     17  H   LIG    1       -5.520   3.248   5.721  0.00  0.00    +0.400 HD
ATOM     18  O   LIG    1       -4.176   0.915   4.214  0.00  0.00    -0.530 OA
BRANCH  16  19
ATOM     19  C   LIG    1       -6.168   1.246   6.000  0.00  0.00    +0.270 C 
BRANCH  19  20
ATOM     20  C   LIG    1       -7.194   1.822   6.977  0.00  0.00    +0.060 C 
BRANCH  20  21
ATOM     21  C   LIG    1       -8.030   0.704   7.546  0.00  0.00    -0.120 C 
ATOM     22  C   LIG    1       -7.670   0.194   8.680  0.00  0.00    -0.050 C 
ATOM     23  C   LIG    1       -8.397  -0.925   9.367  0.00  0.00    +0.050 C 
ATOM     24  C   LIG    1       -9.800  -1.083   8.778  0.00  0.00    +0.010 C 
ATOM     25  C   LIG    1       -9.683  -1.127   7.249  0.00  0.00    +0.010 C 
ATOM     26  C   LIG    1       -9.223   0.247   6.759  0.00  0.00    +0.060 C 
ENDBRANCH  20  21
ENDBRANCH  19  20
ENDBRANCH  16  19
ENDBRANCH  14  15
ENDBRANCH   8  14
TORSDOF 6
