REMARK  Name = ZINCrD0000075AYb.0
REMARK                            x       y       z     vdW  Elec       q    Type
REMARK                         _______ _______ _______ _____ _____    ______ ____
ROOT
ATOM      1  O   LIG    1        2.889  -6.229   2.942  0.00  0.00    -0.530 OA
ATOM      2  C   LIG    1        3.709  -6.444   2.071  0.00  0.00    +0.560 C 
ATOM      3  N   LIG    1        3.938  -5.520   1.118  0.00  0.00    -0.730 N 
ATOM      4  H   LIG    1        4.593  -5.692   0.423  0.00  0.00    +0.400 HD
ENDROOT
BRANCH   2   5
ATOM      5  C   LIG    1        4.455  -7.721   2.058  0.00  0.00    -0.120 A 
ATOM      6  C   LIG    1        5.393  -7.974   1.056  0.00  0.00    +0.040 A 
ATOM      7  C   LIG    1        6.089  -9.165   1.053  0.00  0.00    +0.030 A 
ATOM      8  C   LIG    1        5.851 -10.112   2.033  0.00  0.00    -0.070 A 
ATOM      9  C   LIG    1        4.919  -9.869   3.026  0.00  0.00    +0.030 A 
ATOM     10  C   LIG    1        4.220  -8.680   3.044  0.00  0.00    +0.080 A 
BRANCH   8  11
ATOM     11  C   LIG    1        6.612 -11.413   2.019  0.00  0.00    +0.240 C 
BRANCH  11  12
ATOM     12  O   LIG    1        5.892 -12.377   1.248  0.00  0.00    -0.370 OA
BRANCH  12  13
ATOM     13  C   LIG    1        6.530 -13.653   1.171  0.00  0.00    +0.220 C 
BRANCH  13  14
ATOM     14  C   LIG    1        5.676 -14.600   0.325  0.00  0.00    +0.460 C 
ATOM     15  F   LIG    1        4.415 -14.743   0.915  0.00  0.00    -0.170 F 
ATOM     16  F   LIG    1        6.300 -15.849   0.249  0.00  0.00    -0.180 F 
ATOM     17  F   LIG    1        5.530 -14.072  -0.963  0.00  0.00    -0.180 F 
ENDBRANCH  13  14
ENDBRANCH  12  13
ENDBRANCH  11  12
ENDBRANCH   8  11
ENDBRANCH   2   5
BRANCH   3  18
ATOM     18  C   LIG    1        3.199  -4.255   1.131  0.00  0.00    +0.280 C 
BRANCH  18  19
ATOM     19  C   LIG    1        3.645  -3.391  -0.050  0.00  0.00    +0.130 C 
BRANCH  19  20
ATOM     20  C   LIG    1        2.885  -2.090  -0.037  0.00  0.00    +0.060 A 
ATOM     21  C   LIG    1        3.434  -0.856  -0.035  0.00  0.00    +0.090 A 
ATOM     22  N   LIG    1        2.405   0.045  -0.021  0.00  0.00    -0.360 N 
ATOM     23  C   LIG    1        2.372   1.409  -0.013  0.00  0.00    +0.210 A 
ATOM     24  C   LIG    1        1.194   2.068   0.002  0.00  0.00    +0.010 A 
ATOM     25  C   LIG    1       -0.016   1.356   0.009  0.00  0.00    +0.040 A 
ATOM     26  C   LIG    1        0.002  -0.004   0.002  0.00  0.00    +0.070 A 
ATOM     27  C   LIG    1        1.240  -0.678  -0.013  0.00  0.00    +0.230 A 
ATOM     28  N   LIG    1        1.556  -1.965  -0.023  0.00  0.00    -0.480 NA
ENDBRANCH  19  20
ENDBRANCH  18  19
ENDBRANCH   3  18
TORSDOF 8
