REMARK  Name = ZINCrD000000Afwk.0
REMARK                            x       y       z     vdW  Elec       q    Type
REMARK                         _______ _______ _______ _____ _____    ______ ____
ROOT
ATOM      1  O   LIG    1        2.327   1.272  -0.025  0.00  0.00    -0.510 OA
ATOM      2  C   LIG    1        1.395   2.048  -0.001  0.00  0.00    +0.520 C 
ATOM      3  N   LIG    1        1.623   3.376   0.005  0.00  0.00    -0.660 N 
ATOM      4  H   LIG    1        0.880   3.996  -0.056  0.00  0.00    +0.430 HD
ENDROOT
BRANCH   3   5
ATOM      5  C   LIG    1        2.933   3.861   0.101  0.00  0.00    +0.180 A 
ATOM      6  C   LIG    1        3.920   3.086   0.692  0.00  0.00    +0.060 A 
ATOM      7  C   LIG    1        5.213   3.567   0.785  0.00  0.00    -0.010 A 
ATOM      8  C   LIG    1        5.527   4.820   0.289  0.00  0.00    +0.050 A 
ATOM      9  C   LIG    1        4.549   5.598  -0.301  0.00  0.00    +0.050 A 
ATOM     10 CL   LIG    1        6.447   2.596   1.526  0.00  0.00    -0.050 Cl
ATOM     11  C   LIG    1        3.251   5.121  -0.404  0.00  0.00    +0.110 A 
BRANCH  11  12
ATOM     12  N   LIG    1        2.258   5.907  -1.008  0.00  0.00    -0.320 N 
ATOM     13  C   LIG    1        2.429   7.097  -1.616  0.00  0.00    +0.500 A 
ATOM     14  N   LIG    1        1.263   7.502  -2.050  0.00  0.00    -0.530 NA
ATOM     15  C   LIG    1        0.327   6.607  -1.734  0.00  0.00    +0.460 A 
ATOM     16  N   LIG    1        0.888   5.613  -1.096  0.00  0.00    -0.340 NA
ENDBRANCH  11  12
ENDBRANCH   3   5
BRANCH   2  17
ATOM     17  C   LIG    1       -0.019   1.526   0.021  0.00  0.00    +0.070 C 
BRANCH  17  18
ATOM     18  C   LIG    1        0.002  -0.004   0.009  0.00  0.00    +0.290 C 
BRANCH  18  19
ATOM     19  N   LIG    1       -1.372  -0.511   0.030  0.00  0.00    -0.730 N 
ATOM     20  H   LIG    1       -2.118   0.109   0.049  0.00  0.00    +0.400 HD
ATOM     21  C   LIG    1       -1.601  -1.839   0.024  0.00  0.00    +0.560 C 
ATOM     22  O   LIG    1       -0.666  -2.616  -0.000  0.00  0.00    -0.520 OA
BRANCH  21  23
ATOM     23  C   LIG    1       -2.987  -2.351   0.045  0.00  0.00    -0.130 A 
ATOM     24  C   LIG    1       -4.062  -1.460   0.079  0.00  0.00    +0.070 A 
ATOM     25  C   LIG    1       -5.354  -1.944   0.095  0.00  0.00    +0.020 A 
ATOM     26  C   LIG    1       -5.585  -3.309   0.088  0.00  0.00    -0.010 A 
ATOM     27  C   LIG    1       -4.522  -4.197   0.060  0.00  0.00    +0.020 A 
ATOM     28 CL   LIG    1       -7.213  -3.910   0.115  0.00  0.00    -0.060 Cl
ATOM     29  C   LIG    1       -3.227  -3.726   0.039  0.00  0.00    +0.100 A 
ENDBRANCH  21  23
ENDBRANCH  18  19
ENDBRANCH  17  18
ENDBRANCH   2  17
TORSDOF 6
