REMARK  Name = ZINCvU0000000EDl.0
REMARK                            x       y       z     vdW  Elec       q    Type
REMARK                         _______ _______ _______ _____ _____    ______ ____
ROOT
ATOM      1  C   LIG    1       -4.542   1.685  -4.078  0.00  0.00    -0.030 C 
ATOM      2  C   LIG    1       -4.712   3.040  -3.387  0.00  0.00    +0.020 C 
ATOM      3  C   LIG    1       -6.189   3.439  -3.399  0.00  0.00    +0.010 C 
ATOM      4  C   LIG    1       -6.666   3.572  -4.849  0.00  0.00    +0.260 C 
ATOM      5  N   LIG    1       -6.373   2.320  -5.560  0.00  0.00    -0.610 N 
ATOM      6  C   LIG    1       -7.345   1.663  -6.223  0.00  0.00    +0.540 C 
ATOM      7  O   LIG    1       -7.090   0.631  -6.806  0.00  0.00    -0.530 OA
ATOM      8  C   LIG    1       -5.000   1.798  -5.535  0.00  0.00    +0.290 C 
ENDROOT
BRANCH   6   9
ATOM      9  C   LIG    1       -8.749   2.211  -6.239  0.00  0.00    -0.040 C 
ATOM     10  C   LIG    1       -9.621   1.638  -7.369  0.00  0.00    +0.050 C 
ATOM     11  C   LIG    1       -9.102   2.794  -8.245  0.00  0.00    -0.070 C 
ATOM     12  C   LIG    1       -7.813   2.463  -8.999  0.00  0.00    +0.030 C 
ATOM     13  C   LIG    1       -8.870   3.575  -6.941  0.00  0.00    +0.050 C 
BRANCH  11  14
ATOM     14  C   LIG    1      -10.175   3.411  -9.145  0.00  0.00    -0.050 C 
ATOM     15  C   LIG    1      -11.481   3.550  -8.360  0.00  0.00    +0.020 C 
ATOM     16  C   LIG    1      -10.404   2.507 -10.358  0.00  0.00    +0.020 C 
ATOM     17  C   LIG    1       -9.714   4.791  -9.617  0.00  0.00    +0.010 C 
ENDBRANCH  11  14
ENDBRANCH   6   9
BRANCH   1  18
ATOM     18  C   LIG    1       -3.069   1.272  -4.036  0.00  0.00    +0.270 C 
BRANCH  18  19
ATOM     19  N   LIG    1       -2.664   1.047  -2.646  0.00  0.00    -0.700 N 
ATOM     20  H   LIG    1       -3.305   1.169  -1.928  0.00  0.00    +0.410 HD
BRANCH  19  29
ATOM     21  C   LIG    1       -2.417   0.382   2.515  0.00  0.00    +0.030 C 
ATOM     22  C   LIG    1       -1.508  -0.027   1.354  0.00  0.00    -0.010 C 
ATOM     23  C   LIG    1       -0.070   0.419   1.643  0.00  0.00    +0.040 C 
ATOM     24  C   LIG    1        0.851  -0.205   0.595  0.00  0.00    +0.110 C 
ATOM     25  C   LIG    1        0.327   0.061  -0.790  0.00  0.00    +0.220 A 
ATOM     26  N   LIG    1        1.157  -0.086  -1.821  0.00  0.00    -0.550 NA
ATOM     27  C   LIG    1        0.757   0.127  -3.058  0.00  0.00    +0.410 A 
ATOM     28  N   LIG    1       -0.480   0.494  -3.332  0.00  0.00    -0.570 NA
ATOM     29  C   LIG    1       -1.365   0.662  -2.356  0.00  0.00    +0.460 A 
ATOM     30 CL   LIG    1        1.886  -0.080  -4.360  0.00  0.00    +0.020 Cl
ATOM     31  C   LIG    1       -0.968   0.446  -1.031  0.00  0.00    -0.240 A 
ATOM     32  C   LIG    1       -1.976   0.651   0.067  0.00  0.00    +0.090 C 
ENDBRANCH  19  29
ENDBRANCH  18  19
ENDBRANCH   1  18
TORSDOF 5
