REMARK  Name = ZINCrD0000075vIo.0
REMARK                            x       y       z     vdW  Elec       q    Type
REMARK                         _______ _______ _______ _____ _____    ______ ____
ROOT
ATOM      1  O   LIG    1       -3.072   4.732  -2.288  0.00  0.00    -0.520 OA
ATOM      2  C   LIG    1       -3.333   5.468  -1.360  0.00  0.00    +0.520 C 
ATOM      3  N   LIG    1       -3.789   6.714  -1.596  0.00  0.00    -0.610 N 
ATOM      4  C   LIG    1       -4.118   7.620  -0.485  0.00  0.00    +0.290 C 
ATOM      5  C   LIG    1       -3.394   8.955  -0.722  0.00  0.00    +0.170 C 
ATOM      6  N   LIG    1       -3.736   9.462  -2.057  0.00  0.00    -0.530 NA
ATOM      7  C   LIG    1       -3.263   8.552  -3.109  0.00  0.00    +0.170 C 
ATOM      8  C   LIG    1       -3.976   7.202  -2.970  0.00  0.00    +0.300 C 
ENDROOT
BRANCH   6   9
ATOM      9  C   LIG    1       -3.207  10.818  -2.258  0.00  0.00    +0.210 C 
BRANCH   9  10
ATOM     10  C   LIG    1       -3.909  11.785  -1.303  0.00  0.00    +0.080 C 
BRANCH  10  11
ATOM     11  S   LIG    1       -3.256  13.459  -1.550  0.00  0.00    -0.110 S 
BRANCH  11  12
ATOM     12  C   LIG    1       -4.168  14.416  -0.385  0.00  0.00    -0.080 A 
ATOM     13  C   LIG    1       -5.120  13.807   0.424  0.00  0.00    -0.010 A 
ATOM     14  C   LIG    1       -5.829  14.560   1.339  0.00  0.00    +0.030 A 
ATOM     15  C   LIG    1       -5.599  15.919   1.445  0.00  0.00    +0.010 A 
ATOM     16  C   LIG    1       -4.656  16.530   0.638  0.00  0.00    +0.030 A 
ATOM     17  C   LIG    1       -3.940  15.783  -0.276  0.00  0.00    +0.030 A 
ENDBRANCH  11  12
ENDBRANCH  10  11
ENDBRANCH   9  10
ENDBRANCH   6   9
BRANCH   2  18
ATOM     18  C   LIG    1       -3.149   4.988   0.057  0.00  0.00    +0.180 C 
BRANCH  18  19
ATOM     19  C   LIG    1       -2.633   3.572   0.044  0.00  0.00    +0.150 A 
ATOM     20  N   LIG    1       -3.353   2.493   0.030  0.00  0.00    -0.270 NA
ATOM     21  O   LIG    1       -2.512   1.357   0.021  0.00  0.00    -0.090 OA
ATOM     22  C   LIG    1       -1.224   1.756   0.017  0.00  0.00    +0.090 A 
ATOM     23  C   LIG    1       -0.013   1.076   0.008  0.00  0.00    +0.020 A 
ATOM     24  C   LIG    1        1.170   1.783   0.001  0.00  0.00    +0.080 A 
ATOM     25  C   LIG    1        1.164   3.171   0.008  0.00  0.00    -0.010 A 
ATOM     26  C   LIG    1       -0.017   3.859   0.022  0.00  0.00    +0.090 A 
ATOM     27  C   LIG    1       -1.227   3.161   0.030  0.00  0.00    -0.190 A 
ENDBRANCH  18  19
ENDBRANCH   2  18
TORSDOF 6
