REMARK  Name = ZINCkj000005hySm.0
REMARK                            x       y       z     vdW  Elec       q    Type
REMARK                         _______ _______ _______ _____ _____    ______ ____
ROOT
ATOM      1  C   LIG    1       -0.761   1.454   3.743  0.00  0.00    -0.060 A 
ATOM      2  C   LIG    1       -1.193   0.620   4.717  0.00  0.00    +0.200 A 
ATOM      3  N   LIG    1       -1.834   1.396   5.621  0.00  0.00    -0.270 N 
ATOM      4  N   LIG    1       -1.787   2.615   5.212  0.00  0.00    -0.040 NA
ATOM      5  N   LIG    1       -1.148   2.684   4.097  0.00  0.00    -0.300 NA
ENDROOT
BRANCH   1   6
ATOM      6  C   LIG    1        0.011   1.072   2.506  0.00  0.00    +0.190 C 
BRANCH   6   7
ATOM      7  C   LIG    1       -0.729   1.579   1.267  0.00  0.00    +0.170 C 
ATOM      8  C   LIG    1       -0.013   1.086   0.008  0.00  0.00    +0.090 C 
BRANCH   7  10
ATOM      9  C   LIG    1       -1.560   3.533   0.151  0.00  0.00    +0.320 C 
ATOM     10  N   LIG    1       -0.749   3.048   1.275  0.00  0.00    -0.510 N 
ATOM     11  H   LIG    1        0.193   3.398   1.185  0.00  0.00    +0.430 HD
ATOM     12  H   LIG    1       -1.147   3.374   2.143  0.00  0.00    +0.440 HD
ENDBRANCH   7  10
ENDBRANCH   6   7
ENDBRANCH   1   6
BRANCH   3  13
ATOM     13  C   LIG    1       -2.472   0.929   6.855  0.00  0.00    +0.480 C 
BRANCH  13  14
ATOM     14  C   LIG    1       -1.912   1.689   8.029  0.00  0.00    +0.240 A 
ATOM     15  N   LIG    1       -0.648   1.771   8.329  0.00  0.00    -0.460 NA
ATOM     16  C   LIG    1       -0.492   2.533   9.442  0.00  0.00    +0.040 A 
ATOM     17  C   LIG    1        0.621   2.940  10.182  0.00  0.00    +0.070 A 
ATOM     18  C   LIG    1        0.452   3.722  11.290  0.00  0.00    +0.020 A 
ATOM     19  C   LIG    1       -0.815   4.118  11.691  0.00  0.00    +0.060 A 
ATOM     20  C   LIG    1       -1.928   3.728  10.976  0.00  0.00    +0.020 A 
ATOM     21  C   LIG    1       -1.776   2.933   9.847  0.00  0.00    +0.060 A 
ATOM     22  N   LIG    1       -2.653   2.384   8.934  0.00  0.00    -0.580 N 
ATOM     23  H   LIG    1       -3.619   2.476   8.936  0.00  0.00    +0.430 HD
ENDBRANCH  13  14
ENDBRANCH   3  13
TORSDOF 5
