REMARK  Name = ZINCpe00000bcSC4.0
REMARK                            x       y       z     vdW  Elec       q    Type
REMARK                         _______ _______ _______ _____ _____    ______ ____
ROOT
ATOM      1  C   LIG    1        2.612   3.732  -0.376  0.00  0.00    +0.560 C 
ATOM      2  N   LIG    1        2.616   5.080  -0.389  0.00  0.00    -0.700 N 
ATOM      3  H   LIG    1        1.792   5.569  -0.236  0.00  0.00    +0.410 HD
ATOM      4  O   LIG    1        3.657   3.120  -0.478  0.00  0.00    -0.510 OA
ENDROOT
BRANCH   1   8
ATOM      5  C   LIG    1       -1.054   1.623   0.019  0.00  0.00    +0.170 A 
ATOM      6  C   LIG    1        0.143   0.921  -0.094  0.00  0.00    +0.020 A 
ATOM      7  C   LIG    1        1.332   1.602  -0.224  0.00  0.00    +0.100 A 
ATOM      8  C   LIG    1        1.338   2.999  -0.237  0.00  0.00    -0.140 A 
ATOM      9  C   LIG    1        0.135   3.701  -0.119  0.00  0.00    +0.060 A 
ATOM     10  C   LIG    1       -1.051   3.015   0.011  0.00  0.00    +0.000 A 
BRANCH   5  12
ATOM     11  C   LIG    1       -2.703   0.165  -0.870  0.00  0.00    +0.550 C 
ATOM     12  N   LIG    1       -2.256   0.931   0.145  0.00  0.00    -0.580 N 
ATOM     13  C   LIG    1       -3.036   1.037   1.380  0.00  0.00    +0.300 C 
ATOM     14  O   LIG    1       -2.011  -0.000  -1.857  0.00  0.00    -0.520 OA
BRANCH  11  16
ATOM     15  C   LIG    1       -4.466  -1.228  -1.786  0.00  0.00    +0.160 C 
ATOM     16  C   LIG    1       -4.026  -0.471  -0.785  0.00  0.00    -0.090 C 
ENDBRANCH  11  16
ENDBRANCH   5  12
ENDBRANCH   1   8
BRANCH   2  17
ATOM     17  C   LIG    1        3.864   5.806  -0.633  0.00  0.00    +0.060 C 
ATOM     18  C   LIG    1        3.768   7.155  -1.349  0.00  0.00    +0.090 C 
ATOM     19  C   LIG    1        4.333   5.937  -2.084  0.00  0.00    +0.090 C 
BRANCH  17  20
ATOM     20  C   LIG    1        4.922   5.656   0.429  0.00  0.00    +0.560 C 
ATOM     21  N   LIG    1        4.651   4.973   1.559  0.00  0.00    -0.710 N 
ATOM     22  H   LIG    1        3.800   4.518   1.658  0.00  0.00    +0.400 HD
ATOM     23  O   LIG    1        6.018   6.150   0.268  0.00  0.00    -0.540 OA
BRANCH  21  24
ATOM     24  C   LIG    1        5.640   4.918   2.638  0.00  0.00    +0.280 C 
BRANCH  24  25
ATOM     25  C   LIG    1        5.087   4.086   3.796  0.00  0.00    +0.170 C 
BRANCH  25  26
ATOM     26  O   LIG    1        4.915   2.733   3.371  0.00  0.00    -0.380 OA
ATOM     27  C   LIG    1        4.399   1.866   4.384  0.00  0.00    +0.200 C 
ENDBRANCH  25  26
ENDBRANCH  24  25
ENDBRANCH  21  24
ENDBRANCH  17  20
ENDBRANCH   2  17
TORSDOF 8
