REMARK  Name = ZINCqH0000008TSN.0
REMARK                            x       y       z     vdW  Elec       q    Type
REMARK                         _______ _______ _______ _____ _____    ______ ____
ROOT
ATOM      1  C   LIG    1       -2.736   0.408  -1.377  0.00  0.00    +0.200 A 
ATOM      2  N   LIG    1       -1.931  -0.345  -2.085  0.00  0.00    -0.460 NA
ATOM      3  C   LIG    1       -2.567  -0.553  -3.260  0.00  0.00    +0.200 A 
ATOM      4  N   LIG    1       -3.710   0.079  -3.197  0.00  0.00    -0.370 NA
ATOM      5  O   LIG    1       -3.824   0.629  -2.122  0.00  0.00    +0.090 OA
ENDROOT
BRANCH   1   7
ATOM      6  C   LIG    1       -2.316  -0.265   0.969  0.00  0.00    +0.080 C 
ATOM      7  C   LIG    1       -2.487   0.921   0.018  0.00  0.00    +0.080 C 
ATOM      8  C   LIG    1       -3.682   1.760   0.467  0.00  0.00    +0.050 C 
ATOM      9  C   LIG    1       -3.706   3.050  -0.361  0.00  0.00    +0.020 C 
ATOM     10  C   LIG    1       -2.525   3.919   0.066  0.00  0.00    +0.070 C 
ATOM     11  C   LIG    1       -1.245   3.125   0.037  0.00  0.00    -0.060 A 
ATOM     12  C   LIG    1       -0.048   3.828   0.028  0.00  0.00    -0.010 A 
ATOM     13  C   LIG    1        1.159   3.158   0.009  0.00  0.00    +0.010 A 
ATOM     14  C   LIG    1        1.176   1.776   0.000  0.00  0.00    -0.010 A 
ATOM     15  C   LIG    1       -0.013   1.076   0.008  0.00  0.00    +0.040 A 
ATOM     16  C   LIG    1       -1.228   1.748   0.017  0.00  0.00    -0.090 A 
ENDBRANCH   1   7
BRANCH   3  17
ATOM     17  C   LIG    1       -2.062  -1.349  -4.406  0.00  0.00    +0.030 A 
ATOM     18  C   LIG    1       -0.815  -1.965  -4.334  0.00  0.00    +0.050 A 
ATOM     19  C   LIG    1       -0.353  -2.708  -5.401  0.00  0.00    +0.130 A 
ATOM     20  C   LIG    1       -1.121  -2.833  -6.545  0.00  0.00    -0.650 A 
ATOM     21  C   LIG    1       -2.357  -2.218  -6.624  0.00  0.00    +0.130 A 
ATOM     22  C   LIG    1       -2.832  -1.477  -5.561  0.00  0.00    +0.030 A 
BRANCH  20  23
ATOM     23  S   LIG    1       -0.521  -3.778  -7.906  0.00  0.00    +2.500 S 
ATOM     24  O   LIG    1       -1.696  -4.209  -8.578  0.00  0.00    -0.930 OA
ATOM     25  O   LIG    1        0.371  -4.715  -7.316  0.00  0.00    -0.930 OA
ATOM     26  C   LIG    1        0.391  -2.582  -8.920  0.00  0.00    -0.260 C 
ENDBRANCH  20  23
ENDBRANCH   3  17
TORSDOF 3
