REMARK  Name = ZINCqH00000098GS.0
REMARK                            x       y       z     vdW  Elec       q    Type
REMARK                         _______ _______ _______ _____ _____    ______ ____
ROOT
ATOM      1  N   LIG    1       -3.578   2.226   0.615  0.00  0.00    -0.720 N 
ATOM      2  H   LIG    1       -3.518   3.191   0.535  0.00  0.00    +0.400 HD
ATOM      3  C   LIG    1       -4.613   1.667   1.272  0.00  0.00    +0.520 C 
ATOM      4  O   LIG    1       -4.687   0.460   1.372  0.00  0.00    -0.520 OA
ENDROOT
BRANCH   1   6
ATOM      5  C   LIG    1       -2.964   0.969  -1.391  0.00  0.00    +0.040 C 
ATOM      6  C   LIG    1       -2.542   1.377   0.022  0.00  0.00    +0.280 C 
BRANCH   6   7
ATOM      7  C   LIG    1       -1.243   2.139  -0.043  0.00  0.00    -0.080 A 
ATOM      8  C   LIG    1       -1.251   3.497  -0.126  0.00  0.00    +0.010 A 
ATOM      9  C   LIG    1       -0.060   4.218  -0.192  0.00  0.00    +0.020 A 
ATOM     10  C   LIG    1        1.145   3.586  -0.170  0.00  0.00    +0.030 A 
ATOM     11  C   LIG    1        1.193   2.184  -0.079  0.00  0.00    -0.050 A 
ATOM     12  C   LIG    1        2.417   1.496  -0.053  0.00  0.00    +0.020 A 
ATOM     13  C   LIG    1        2.425   0.138   0.035  0.00  0.00    +0.020 A 
ATOM     14  C   LIG    1        1.235  -0.583   0.101  0.00  0.00    +0.020 A 
ATOM     15  C   LIG    1        0.030   0.049   0.079  0.00  0.00    +0.020 A 
ATOM     16  C   LIG    1       -0.018   1.451  -0.011  0.00  0.00    -0.040 A 
ENDBRANCH   6   7
ENDBRANCH   1   6
BRANCH   3  17
ATOM     17  C   LIG    1       -5.679   2.540   1.882  0.00  0.00    +0.310 C 
BRANCH  17  18
ATOM     18  N   LIG    1       -6.685   1.699   2.534  0.00  0.00    -1.100 NA
ATOM     19  H   LIG    1       -6.720   0.749   2.344  0.00  0.00    +0.430 HD
BRANCH  18  20
ATOM     20  S   LIG    1       -7.763   2.371   3.596  0.00  0.00    +2.730 S 
ATOM     21  O   LIG    1       -7.000   3.166   4.494  0.00  0.00    -0.940 OA
ATOM     22  O   LIG    1       -8.616   1.317   4.024  0.00  0.00    -0.940 OA
BRANCH  20  23
ATOM     23  C   LIG    1       -8.773   3.487   2.679  0.00  0.00    -0.800 A 
ATOM     24  C   LIG    1       -9.915   3.166   2.070  0.00  0.00    +0.190 A 
ATOM     25  C   LIG    1      -10.539   4.212   1.411  0.00  0.00    +0.010 A 
ATOM     26  C   LIG    1       -9.897   5.381   1.479  0.00  0.00    -0.110 A 
ATOM     27 CL   LIG    1      -10.434   6.861   0.748  0.00  0.00    +0.010 Cl
ATOM     28  S   LIG    1       -8.424   5.191   2.421  0.00  0.00    +0.270 S 
ENDBRANCH  20  23
ENDBRANCH  18  20
ENDBRANCH  17  18
ENDBRANCH   3  17
TORSDOF 6
