REMARK  Name = ZINCpe000000YIHZ.0
REMARK                            x       y       z     vdW  Elec       q    Type
REMARK                         _______ _______ _______ _____ _____    ______ ____
ROOT
ATOM      1  C   LIG    1       -0.752   3.128  -1.241  0.00  0.00    -0.460 C 
ATOM      2  C   LIG    1       -0.754   1.597  -1.233  0.00  0.00    +0.070 C 
ATOM      3  C   LIG    1       -0.009   1.090   0.003  0.00  0.00    +0.030 C 
ATOM      4  C   LIG    1       -0.726   1.581   1.265  0.00  0.00    +0.270 C 
ATOM      5  N   LIG    1       -0.857   3.043   1.196  0.00  0.00    -0.620 N 
ATOM      6  C   LIG    1       -0.416   3.820   2.205  0.00  0.00    +0.710 C 
ATOM      7  N   LIG    1        0.055   3.255   3.334  0.00  0.00    -0.740 N 
ATOM      8  H   LIG    1        0.144   2.291   3.393  0.00  0.00    +0.400 HD
ATOM      9  O   LIG    1       -0.442   5.030   2.096  0.00  0.00    -0.590 OA
ATOM     10  C   LIG    1       -1.479   3.641   0.007  0.00  0.00    +0.350 C 
ENDROOT
BRANCH   1  11
ATOM     11  S   LIG    1       -1.603   3.727  -2.727  0.00  0.00    +2.620 S 
ATOM     12  O   LIG    1       -2.991   3.434  -2.659  0.00  0.00    -0.950 OA
ATOM     13  O   LIG    1       -0.846   3.425  -3.890  0.00  0.00    -0.960 OA
BRANCH  11  14
ATOM     14  N   LIG    1       -1.528   5.377  -2.608  0.00  0.00    -1.250 NA
ATOM     15  H   LIG    1       -1.510   5.801  -1.735  0.00  0.00    +0.410 HD
ATOM     16  H   LIG    1       -1.502   5.920  -3.411  0.00  0.00    +0.420 HD
ENDBRANCH  11  14
ENDBRANCH   1  11
BRANCH   7  17
ATOM     17  C   LIG    1        0.433   4.097   4.472  0.00  0.00    +0.370 C 
BRANCH  17  18
ATOM     18  C   LIG    1        0.925   3.226   5.599  0.00  0.00    -0.250 A 
ATOM     19  C   LIG    1        0.165   2.701   6.589  0.00  0.00    +0.260 A 
ATOM     20  N   LIG    1        0.979   1.983   7.395  0.00  0.00    -0.320 N 
ATOM     21  N   LIG    1        2.281   2.079   6.888  0.00  0.00    -0.290 NA
ATOM     22  C   LIG    1        2.248   2.824   5.812  0.00  0.00    +0.270 A 
BRANCH  20  23
ATOM     23  C   LIG    1        0.590   1.273   8.540  0.00  0.00    +0.150 A 
ATOM     24  C   LIG    1       -0.741   1.267   8.935  0.00  0.00    -0.010 A 
ATOM     25  C   LIG    1       -1.122   0.562  10.060  0.00  0.00    +0.040 A 
ATOM     26  C   LIG    1       -0.178  -0.129  10.798  0.00  0.00    +0.000 A 
ATOM     27  C   LIG    1        1.149  -0.120  10.409  0.00  0.00    +0.040 A 
ATOM     28  C   LIG    1        1.535   0.579   9.283  0.00  0.00    +0.020 A 
ENDBRANCH  20  23
ENDBRANCH  17  18
ENDBRANCH   7  17
TORSDOF 5
