REMARK  Name = ZINCc70000002y36.0
REMARK                            x       y       z     vdW  Elec       q    Type
REMARK                         _______ _______ _______ _____ _____    ______ ____
ROOT
ATOM      1  C   LIG    1       -0.245   1.294  -0.076  0.00  0.00    +0.300 A 
ATOM      2  N   LIG    1        0.852   2.001   0.176  0.00  0.00    -0.540 NA
ATOM      3  C   LIG    1        2.015   1.407   0.353  0.00  0.00    +0.480 A 
ATOM      4  N   LIG    1        2.147   0.097   0.289  0.00  0.00    -0.530 NA
ATOM      5  C   LIG    1        1.099  -0.684   0.041  0.00  0.00    +0.270 A 
ATOM      6  C   LIG    1       -0.153  -0.094  -0.152  0.00  0.00    +0.140 A 
ENDROOT
BRANCH   5   7
ATOM      7  N   LIG    1        1.247  -2.064  -0.023  0.00  0.00    -0.490 N 
ATOM      8  C   LIG    1        1.741  -2.601   1.252  0.00  0.00    +0.230 C 
ATOM      9  C   LIG    1        2.130  -2.447  -1.133  0.00  0.00    +0.230 C 
ENDBRANCH   5   7
BRANCH   6  10
ATOM     10  N   LIG    1       -1.286  -0.879  -0.416  0.00  0.00    -0.850 N 
ATOM     11  H   LIG    1       -1.195  -1.837  -0.541  0.00  0.00    +0.410 HD
ATOM     12  H   LIG    1       -2.161  -0.464  -0.473  0.00  0.00    +0.410 HD
ENDBRANCH   6  10
BRANCH   1  14
ATOM     13  C   LIG    1       -1.446   3.342  -0.168  0.00  0.00    +0.260 C 
ATOM     14  O   LIG    1       -1.437   1.916  -0.262  0.00  0.00    -0.310 OA
ENDBRANCH   1  14
TORSDOF 3
