REMARK  Name = ZINCrg00000SjSmU.0
REMARK                            x       y       z     vdW  Elec       q    Type
REMARK                         _______ _______ _______ _____ _____    ______ ____
ROOT
ATOM      1  C   LIG    1       -4.631   3.411  -0.194  0.00  0.00    +0.070 C 
ATOM      2  C   LIG    1       -3.123   3.488  -0.441  0.00  0.00    -0.040 C 
ATOM      3  C   LIG    1       -2.537   4.667   0.344  0.00  0.00    +0.300 C 
ATOM      4  N   LIG    1       -1.097   4.767   0.046  0.00  0.00    -0.530 N 
ATOM      5  C   LIG    1       -0.388   3.578   0.028  0.00  0.00    +0.540 A 
ATOM      6  N   LIG    1        0.910   3.402   0.013  0.00  0.00    -0.510 NA
ATOM      7  C   LIG    1        1.191   2.096   0.002  0.00  0.00    +0.340 A 
ATOM      8  C   LIG    1       -0.017   1.403   0.010  0.00  0.00    -0.160 A 
ATOM      9  C   LIG    1        0.002  -0.004   0.002  0.00  0.00    +0.600 A 
ATOM     10  N   LIG    1        1.186  -0.650  -0.013  0.00  0.00    -0.550 N 
ATOM     11  C   LIG    1        2.346   0.029  -0.021  0.00  0.00    +0.710 A 
ATOM     12  O   LIG    1        3.394  -0.587  -0.034  0.00  0.00    -0.530 OA
ATOM     13  O   LIG    1       -1.042  -0.633   0.009  0.00  0.00    -0.520 OA
ATOM     14  N   LIG    1        2.374   1.375  -0.013  0.00  0.00    -0.510 N 
ATOM     15  C   LIG    1        3.659   2.079  -0.022  0.00  0.00    +0.340 C 
ATOM     16  N   LIG    1       -1.010   2.362   0.019  0.00  0.00    -0.440 N 
ATOM     17  C   LIG    1       -2.463   2.182   0.020  0.00  0.00    +0.320 C 
ENDROOT
BRANCH   4  18
ATOM     18  C   LIG    1       -0.484   5.995  -0.216  0.00  0.00    +0.180 A 
ATOM     19  C   LIG    1       -1.232   7.166  -0.194  0.00  0.00    -0.040 A 
ATOM     20  C   LIG    1       -0.621   8.378  -0.449  0.00  0.00    +0.040 A 
ATOM     21  C   LIG    1        0.731   8.427  -0.736  0.00  0.00    -0.030 A 
ATOM     22  C   LIG    1        1.477   7.263  -0.765  0.00  0.00    +0.040 A 
ATOM     23  C   LIG    1        0.874   6.048  -0.505  0.00  0.00    +0.010 A 
ENDBRANCH   4  18
BRANCH  10  24
ATOM     24  C   LIG    1        1.208  -2.115  -0.021  0.00  0.00    +0.330 C 
BRANCH  24  25
ATOM     25  C   LIG    1        1.201  -2.617  -1.467  0.00  0.00    +0.020 C 
BRANCH  25  26
ATOM     26  C   LIG    1        1.224  -4.147  -1.475  0.00  0.00    +0.180 C 
BRANCH  26  27
ATOM     27  O   LIG    1        1.218  -4.616  -2.825  0.00  0.00    -0.570 OA
ATOM     28  H   LIG    1        1.232  -5.579  -2.907  0.00  0.00    +0.380 HD
ENDBRANCH  26  27
ENDBRANCH  25  26
ENDBRANCH  24  25
ENDBRANCH  10  24
TORSDOF 5
