REMARK  Name = ZINCkj000005j3Xi.0
REMARK                            x       y       z     vdW  Elec       q    Type
REMARK                         _______ _______ _______ _____ _____    ______ ____
ROOT
ATOM      1  N   LIG    1        3.888   5.104   1.377  0.00  0.00    -0.510 N 
ATOM      2  H   LIG    1        4.599   4.487   1.739  0.00  0.00    +0.430 HD
ATOM      3  H   LIG    1        3.058   5.031   1.945  0.00  0.00    +0.430 HD
ENDROOT
BRANCH   1   5
ATOM      4  C   LIG    1        3.256   7.438   0.988  0.00  0.00    +0.100 C 
ATOM      5  C   LIG    1        4.381   6.488   1.404  0.00  0.00    +0.170 C 
BRANCH   5   6
ATOM      6  C   LIG    1        4.845   6.836   2.820  0.00  0.00    +0.190 C 
BRANCH   6   7
ATOM      7  N   LIG    1        5.453   8.173   2.821  0.00  0.00    -0.530 NA
ATOM      8  C   LIG    1        6.761   8.158   2.151  0.00  0.00    +0.150 C 
ATOM      9  C   LIG    1        7.330   9.579   2.123  0.00  0.00    +0.230 C 
ATOM     10  O   LIG    1        7.412  10.081   3.459  0.00  0.00    -0.380 OA
ATOM     11  C   LIG    1        6.156  10.110   4.141  0.00  0.00    +0.240 C 
ATOM     12  C   LIG    1        5.575   8.695   4.191  0.00  0.00    +0.160 C 
ENDBRANCH   6   7
ENDBRANCH   5   6
ENDBRANCH   1   5
BRANCH   1  13
ATOM     13  C   LIG    1        3.570   4.725  -0.006  0.00  0.00    +0.320 C 
BRANCH  13  14
ATOM     14  C   LIG    1        3.064   3.306  -0.035  0.00  0.00    -0.110 A 
ATOM     15  C   LIG    1        1.734   3.077   0.101  0.00  0.00    +0.090 A 
ATOM     16  C   LIG    1        1.249   1.751   0.076  0.00  0.00    +0.090 A 
ATOM     17  N   LIG    1        0.054   1.198   0.177  0.00  0.00    -0.290 NA
ATOM     18  N   LIG    1        0.188  -0.192   0.078  0.00  0.00    -0.410 N 
ATOM     19  H   LIG    1       -0.545  -0.826   0.122  0.00  0.00    +0.450 HD
ATOM     20  C   LIG    1        1.477  -0.517  -0.086  0.00  0.00    +0.310 A 
ATOM     21  C   LIG    1        2.212   0.653  -0.099  0.00  0.00    -0.210 A 
ATOM     22  C   LIG    1        3.582   0.966  -0.234  0.00  0.00    +0.130 A 
ATOM     23  C   LIG    1        3.978   2.263  -0.200  0.00  0.00    -0.040 A 
ENDBRANCH  13  14
ENDBRANCH   1  13
TORSDOF 5
