REMARK  Name = ZINCvU0000000CFQ.0
REMARK                            x       y       z     vdW  Elec       q    Type
REMARK                         _______ _______ _______ _____ _____    ______ ____
ROOT
ATOM      1  C   LIG    1       -4.459  -1.978  -2.618  0.00  0.00    +0.000 A 
ATOM      2  C   LIG    1       -3.729  -2.374  -3.757  0.00  0.00    -0.210 A 
ATOM      3  C   LIG    1       -2.341  -2.201  -4.184  0.00  0.00    +0.160 A 
ATOM      4  N   LIG    1       -2.216  -2.780  -5.339  0.00  0.00    -0.270 NA
ATOM      5  O   LIG    1       -3.452  -3.344  -5.727  0.00  0.00    -0.080 OA
ATOM      6  C   LIG    1       -1.257  -1.482  -3.422  0.00  0.00    +0.200 C 
ATOM      7  C   LIG    1       -4.374  -3.102  -4.773  0.00  0.00    +0.310 A 
ATOM      8  N   LIG    1       -5.656  -3.410  -4.659  0.00  0.00    -0.460 NA
ATOM      9  C   LIG    1       -6.370  -3.054  -3.603  0.00  0.00    +0.260 A 
ATOM     10  C   LIG    1       -5.803  -2.335  -2.548  0.00  0.00    -0.010 A 
ENDROOT
BRANCH   9  11
ATOM     11  C   LIG    1       -7.803  -3.431  -3.535  0.00  0.00    -0.080 A 
ATOM     12  C   LIG    1       -8.570  -3.070  -2.429  0.00  0.00    +0.050 A 
ATOM     13  C   LIG    1       -9.904  -3.419  -2.374  0.00  0.00    +0.000 A 
ATOM     14  C   LIG    1      -10.477  -4.136  -3.409  0.00  0.00    -0.060 A 
ATOM     15  C   LIG    1       -9.719  -4.502  -4.507  0.00  0.00    +0.000 A 
ATOM     16  C   LIG    1      -11.933  -4.520  -3.341  0.00  0.00    +0.100 C 
ATOM     17  C   LIG    1       -8.386  -4.153  -4.575  0.00  0.00    +0.080 A 
ENDBRANCH   9  11
BRANCH   1  20
ATOM     18  N   LIG    1       -4.506  -0.252  -0.880  0.00  0.00    -0.650 N 
ATOM     19  H   LIG    1       -5.446  -0.113  -1.078  0.00  0.00    +0.420 HD
ATOM     20  C   LIG    1       -3.816  -1.211  -1.528  0.00  0.00    +0.560 C 
ATOM     21  O   LIG    1       -2.664  -1.446  -1.217  0.00  0.00    -0.490 OA
BRANCH  18  24
ATOM     22  C   LIG    1       -2.157   0.833   1.738  0.00  0.00    +0.130 A 
ATOM     23  C   LIG    1       -2.787   0.043   0.790  0.00  0.00    +0.000 A 
ATOM     24  C   LIG    1       -3.867   0.544   0.078  0.00  0.00    +0.160 A 
ATOM     25  C   LIG    1       -4.315   1.841   0.319  0.00  0.00    +0.080 A 
ATOM     26  C   LIG    1       -3.682   2.627   1.267  0.00  0.00    +0.010 A 
ATOM     27  C   LIG    1       -2.609   2.123   1.980  0.00  0.00    -0.040 A 
ATOM     28 CL   LIG    1       -1.822   3.108   3.174  0.00  0.00    -0.050 Cl
BRANCH  22  30
ATOM     29  C   LIG    1       -0.690  -0.995   2.141  0.00  0.00    +0.240 C 
ATOM     30  O   LIG    1       -1.098   0.342   2.437  0.00  0.00    -0.300 OA
ENDBRANCH  22  30
BRANCH  25  31
ATOM     31  O   LIG    1       -5.374   2.336  -0.379  0.00  0.00    -0.320 OA
ATOM     32  C   LIG    1       -5.779   3.673  -0.080  0.00  0.00    +0.260 C 
ENDBRANCH  25  31
ENDBRANCH  18  24
ENDBRANCH   1  20
TORSDOF 5
