REMARK  Name = ZINCqH0000038boz.0
REMARK                            x       y       z     vdW  Elec       q    Type
REMARK                         _______ _______ _______ _____ _____    ______ ____
ROOT
ATOM      1  C   LIG    1        3.357   2.684   0.066  0.00  0.00    +0.300 A 
ATOM      2  C   LIG    1        3.251   1.303   0.163  0.00  0.00    -0.010 A 
ATOM      3  C   LIG    1        1.998   0.718   0.118  0.00  0.00    +0.110 A 
ATOM      4  C   LIG    1        0.885   1.544  -0.022  0.00  0.00    +0.070 A 
ATOM      5  C   LIG    1        1.069   2.916  -0.118  0.00  0.00    +0.280 A 
ATOM      6  N   LIG    1        2.279   3.438  -0.067  0.00  0.00    -0.500 NA
ENDROOT
BRANCH   4   7
ATOM      7  N   LIG    1       -0.404   0.996  -0.072  0.00  0.00    -0.650 N 
ATOM      8  H   LIG    1       -1.116   1.474  -0.526  0.00  0.00    +0.420 HD
ATOM      9  C   LIG    1       -0.654  -0.191   0.514  0.00  0.00    +0.610 C 
ATOM     10  O   LIG    1        0.209  -0.737   1.174  0.00  0.00    -0.520 OA
BRANCH   9  11
ATOM     11  C   LIG    1       -1.976  -0.827   0.356  0.00  0.00    -0.110 A 
ATOM     12  C   LIG    1       -2.354  -2.026   0.891  0.00  0.00    +0.300 A 
ATOM     13  N   LIG    1       -3.630  -2.237   0.512  0.00  0.00    -0.350 N 
ATOM     14  N   LIG    1       -4.007  -1.139  -0.274  0.00  0.00    -0.050 NA
ATOM     15  N   LIG    1       -3.009  -0.329  -0.345  0.00  0.00    -0.210 NA
BRANCH  13  16
ATOM     16  C   LIG    1       -4.462  -3.395   0.851  0.00  0.00    +0.170 C 
ATOM     17  C   LIG    1       -3.647  -4.678   0.672  0.00  0.00    +0.070 C 
ATOM     18  C   LIG    1       -5.683  -3.433  -0.070  0.00  0.00    +0.080 C 
ATOM     19  C   LIG    1       -4.924  -3.282   2.306  0.00  0.00    +0.070 C 
ENDBRANCH  13  16
ENDBRANCH   9  11
ENDBRANCH   4   7
BRANCH   1  20
ATOM     20  O   LIG    1        4.583   3.267   0.108  0.00  0.00    -0.250 OA
BRANCH  20  25
ATOM     21  C   LIG    1        4.834   8.893   0.145  0.00  0.00    +0.090 C 
ATOM     22  C   LIG    1        4.767   7.388   0.136  0.00  0.00    -0.090 A 
ATOM     23  C   LIG    1        4.206   6.715   1.206  0.00  0.00    +0.020 A 
ATOM     24  C   LIG    1        4.143   5.335   1.199  0.00  0.00    +0.010 A 
ATOM     25  C   LIG    1        4.643   4.624   0.117  0.00  0.00    +0.090 A 
ATOM     26  C   LIG    1        5.210   5.302  -0.953  0.00  0.00    +0.020 A 
ATOM     27  C   LIG    1        5.266   6.682  -0.944  0.00  0.00    +0.020 A 
ENDBRANCH  20  25
ENDBRANCH   1  20
TORSDOF 5
