REMARK  Name = ZINCrg000000sIOi.0
REMARK                            x       y       z     vdW  Elec       q    Type
REMARK                         _______ _______ _______ _____ _____    ______ ____
ROOT
ATOM      1  C   LIG    1       -2.529   1.005   0.007  0.00  0.00    +0.400 C 
ENDROOT
BRANCH   1   2
ATOM      2  C   LIG    1       -1.218   1.740   0.121  0.00  0.00    -0.150 A 
ATOM      3  C   LIG    1       -0.049   1.038   0.339  0.00  0.00    +0.090 A 
ATOM      4  C   LIG    1        1.155   1.711   0.438  0.00  0.00    +0.010 A 
ATOM      5  C   LIG    1        1.189   3.088   0.325  0.00  0.00    +0.060 A 
ATOM      6  C   LIG    1        0.019   3.794   0.112  0.00  0.00    -0.010 A 
ATOM      7  C   LIG    1       -1.186   3.120   0.013  0.00  0.00    +0.110 A 
ATOM      8  F   LIG    1       -2.330   3.809  -0.195  0.00  0.00    -0.140 F 
ENDBRANCH   1   2
BRANCH   1  14
ATOM      9  C   LIG    1       -5.053   2.509   0.989  0.00  0.00    +0.320 C 
ATOM     10  N   LIG    1       -4.265   1.560   1.780  0.00  0.00    -0.450 N 
ATOM     11  C   LIG    1       -4.509   1.181   3.072  0.00  0.00    +0.140 A 
ATOM     12  C   LIG    1       -3.549   0.298   3.406  0.00  0.00    +0.160 A 
ATOM     13  N   LIG    1       -2.743   0.139   2.346  0.00  0.00    -0.460 NA
ATOM     14  C   LIG    1       -3.164   0.896   1.369  0.00  0.00    +0.180 A 
ENDBRANCH   1  14
BRANCH   1  15
ATOM     15  N   LIG    1       -2.291  -0.337  -0.530  0.00  0.00    -0.730 N 
ATOM     16  H   LIG    1       -2.166  -1.086   0.073  0.00  0.00    +0.440 HD
BRANCH  15  17
ATOM     17  C   LIG    1       -2.245  -0.533  -1.879  0.00  0.00    +0.520 A 
ATOM     18  C   LIG    1       -1.094  -1.053  -2.481  0.00  0.00    -0.240 A 
ATOM     19  C   LIG    1       -1.093  -1.245  -3.889  0.00  0.00    +0.580 A 
ATOM     20  N   LIG    1       -2.190  -0.913  -4.600  0.00  0.00    -0.550 N 
ATOM     21  C   LIG    1       -3.279  -0.411  -3.994  0.00  0.00    +0.700 A 
ATOM     22  O   LIG    1       -4.250  -0.123  -4.665  0.00  0.00    -0.520 OA
ATOM     23  C   LIG    1       -2.194  -1.103  -6.052  0.00  0.00    +0.360 C 
ATOM     24  O   LIG    1       -0.112  -1.699  -4.448  0.00  0.00    -0.500 OA
ATOM     25  N   LIG    1       -3.321  -0.220  -2.664  0.00  0.00    -0.530 N 
ATOM     26  C   LIG    1       -4.531   0.331  -2.048  0.00  0.00    +0.340 C 
BRANCH  18  27
ATOM     27  C   LIG    1        0.055  -1.389  -1.696  0.00  0.00    +0.290 C 
ATOM     28  N   LIG    1        0.967  -1.656  -1.073  0.00  0.00    -0.400 NA
ENDBRANCH  18  27
ENDBRANCH  15  17
ENDBRANCH   1  15
TORSDOF 5
