REMARK  Name = ZINCwl00000003Zo.1
REMARK                            x       y       z     vdW  Elec       q    Type
REMARK                         _______ _______ _______ _____ _____    ______ ____
ROOT
ATOM      1  C   LIG    1        4.681  -1.615   0.784  0.00  0.00    +0.620 C 
ATOM      2  N   LIG    1        5.969  -1.810   0.437  0.00  0.00    -0.710 N 
ATOM      3  H   LIG    1        6.426  -1.159  -0.119  0.00  0.00    +0.410 HD
ATOM      4  O   LIG    1        4.109  -2.431   1.480  0.00  0.00    -0.510 OA
ENDROOT
BRANCH   2   5
ATOM      5  C   LIG    1        6.679  -3.005   0.898  0.00  0.00    +0.270 C 
ATOM      6  C   LIG    1        8.209  -2.778   0.851  0.00  0.00    +0.090 C 
ATOM      7  C   LIG    1        8.719  -4.167   0.423  0.00  0.00    +0.230 C 
ATOM      8  C   LIG    1        9.929  -4.041  -0.486  0.00  0.00    +0.260 C 
ATOM      9  N   LIG    1       10.144  -5.233  -1.294  0.00  0.00    -0.370 N 
ATOM     10  C   LIG    1        8.990  -5.583  -2.118  0.00  0.00    +0.260 C 
ATOM     11  C   LIG    1        7.793  -5.931  -1.220  0.00  0.00    +0.340 C 
ATOM     12  H   LIG    1       10.938  -5.077  -1.898  0.00  0.00    +0.430 HD
ATOM     13  N   LIG    1        7.604  -4.788  -0.308  0.00  0.00    -0.640 N 
ATOM     14  C   LIG    1        6.446  -4.160  -0.051  0.00  0.00    +0.510 C 
ATOM     15  O   LIG    1        5.369  -4.473  -0.514  0.00  0.00    -0.470 OA
BRANCH   9  16
ATOM     16  C   LIG    1       10.448  -6.360  -0.402  0.00  0.00    +0.150 C 
ATOM     17  C   LIG    1       11.656  -6.010   0.469  0.00  0.00    +0.090 C 
ATOM     18  C   LIG    1       10.764  -7.601  -1.239  0.00  0.00    +0.090 C 
ENDBRANCH   9  16
ENDBRANCH   2   5
BRANCH   1  21
ATOM     19  C   LIG    1        1.709  -0.900   1.441  0.00  0.00    +0.190 C 
ATOM     20  C   LIG    1        2.668  -0.095   0.603  0.00  0.00    +0.140 A 
ATOM     21  C   LIG    1        3.966  -0.412   0.319  0.00  0.00    -0.110 A 
ATOM     22  N   LIG    1        4.484   0.561  -0.452  0.00  0.00    -0.200 NA
ATOM     23  N   LIG    1        3.588   1.461  -0.669  0.00  0.00    -0.050 NA
ATOM     24  N   LIG    1        2.409   1.079  -0.015  0.00  0.00    -0.310 N 
BRANCH  24  25
ATOM     25  C   LIG    1        1.196   1.781   0.000  0.00  0.00    +0.120 A 
ATOM     26  C   LIG    1        1.207   3.148   0.007  0.00  0.00    +0.090 A 
ATOM     27  C   LIG    1       -0.008   3.850   0.022  0.00  0.00    -0.100 A 
ATOM     28  C   LIG    1       -0.040   5.258   0.029  0.00  0.00    +0.100 A 
ATOM     29  C   LIG    1       -1.259   5.875   0.044  0.00  0.00    -0.020 A 
ATOM     30  C   LIG    1       -2.424   5.112   0.051  0.00  0.00    +0.320 A 
ATOM     31  N   LIG    1       -2.391   3.801   0.045  0.00  0.00    -0.470 NA
ATOM     32  C   LIG    1       -1.232   3.135   0.031  0.00  0.00    +0.130 A 
ATOM     33  C   LIG    1       -1.205   1.729   0.017  0.00  0.00    +0.090 A 
ATOM     34  C   LIG    1       -0.013   1.076   0.008  0.00  0.00    +0.030 A 
ENDBRANCH  24  25
ENDBRANCH   1  21
TORSDOF 4
