REMARK  Name = ZINCwl00000003Zo.0
REMARK                            x       y       z     vdW  Elec       q    Type
REMARK                         _______ _______ _______ _____ _____    ______ ____
ROOT
ATOM      1  C   LIG    1       -0.040   1.470  -0.079  0.00  0.00    +0.610 C 
ATOM      2  N   LIG    1        1.111   2.170  -0.062  0.00  0.00    -0.710 N 
ATOM      3  H   LIG    1        1.962   1.704  -0.023  0.00  0.00    +0.410 HD
ATOM      4  O   LIG    1       -1.106   2.053  -0.134  0.00  0.00    -0.500 OA
ENDROOT
BRANCH   2   5
ATOM      5  C   LIG    1        1.079   3.634  -0.105  0.00  0.00    +0.260 C 
ATOM      6  C   LIG    1        2.434   4.192  -0.598  0.00  0.00    +0.100 C 
ATOM      7  C   LIG    1        3.151   4.565   0.705  0.00  0.00    +0.230 C 
ATOM      8  C   LIG    1        4.274   3.580   1.036  0.00  0.00    +0.250 C 
ATOM      9  N   LIG    1        4.768   3.872   2.390  0.00  0.00    -0.380 N 
ATOM     10  C   LIG    1        3.736   3.624   3.401  0.00  0.00    +0.250 C 
ATOM     11  C   LIG    1        2.555   4.588   3.198  0.00  0.00    +0.340 C 
ATOM     12  H   LIG    1        5.050   4.840   2.437  0.00  0.00    +0.420 HD
ATOM     13  N   LIG    1        2.150   4.452   1.788  0.00  0.00    -0.650 N 
ATOM     14  C   LIG    1        0.935   4.203   1.293  0.00  0.00    +0.520 C 
ATOM     15  O   LIG    1       -0.114   4.401   1.868  0.00  0.00    -0.470 OA
BRANCH   9  16
ATOM     16  C   LIG    1        5.930   3.019   2.671  0.00  0.00    +0.160 C 
ATOM     17  C   LIG    1        6.481   3.348   4.059  0.00  0.00    +0.090 C 
ATOM     18  C   LIG    1        7.013   3.271   1.619  0.00  0.00    +0.090 C 
ENDBRANCH   9  16
ENDBRANCH   2   5
BRANCH   1  21
ATOM     19  C   LIG    1       -2.543  -0.405  -0.104  0.00  0.00    +0.180 C 
ATOM     20  C   LIG    1       -1.098  -0.828  -0.047  0.00  0.00    +0.150 A 
ATOM     21  C   LIG    1       -0.008  -0.004  -0.036  0.00  0.00    -0.120 A 
ATOM     22  N   LIG    1        1.100  -0.765   0.014  0.00  0.00    -0.210 NA
ATOM     23  N   LIG    1        0.768  -2.008   0.045  0.00  0.00    -0.050 NA
ATOM     24  N   LIG    1       -0.631  -2.094   0.003  0.00  0.00    -0.310 N 
BRANCH  24  25
ATOM     25  C   LIG    1       -1.397  -3.268   0.012  0.00  0.00    +0.120 A 
ATOM     26  C   LIG    1       -1.051  -4.296   0.845  0.00  0.00    +0.080 A 
ATOM     27  C   LIG    1       -1.822  -5.468   0.856  0.00  0.00    -0.100 A 
ATOM     28  C   LIG    1       -1.502  -6.546   1.703  0.00  0.00    +0.100 A 
ATOM     29  C   LIG    1       -2.294  -7.659   1.657  0.00  0.00    -0.020 A 
ATOM     30  C   LIG    1       -3.382  -7.702   0.789  0.00  0.00    +0.320 A 
ATOM     31  N   LIG    1       -3.677  -6.696   0.002  0.00  0.00    -0.470 NA
ATOM     32  C   LIG    1       -2.943  -5.579  -0.003  0.00  0.00    +0.140 A 
ATOM     33  C   LIG    1       -3.267  -4.503  -0.851  0.00  0.00    +0.090 A 
ATOM     34  C   LIG    1       -2.504  -3.378  -0.837  0.00  0.00    +0.030 A 
ENDBRANCH  24  25
ENDBRANCH   1  21
TORSDOF 4
