REMARK  Name = ZINCrH000004rKcL.0
REMARK                            x       y       z     vdW  Elec       q    Type
REMARK                         _______ _______ _______ _____ _____    ______ ____
ROOT
ATOM      1  N   LIG    1        2.404   1.105  -0.015  0.00  0.00    -0.410 N 
ATOM      2  C   LIG    1        3.312   1.143  -1.040  0.00  0.00    +0.350 A 
ATOM      3  N   LIG    1        3.355   1.752  -2.223  0.00  0.00    -0.540 NA
ATOM      4  C   LIG    1        4.389   1.597  -3.021  0.00  0.00    +0.550 A 
ATOM      5  N   LIG    1        5.427   0.843  -2.706  0.00  0.00    -0.530 NA
ATOM      6  C   LIG    1        5.477   0.194  -1.547  0.00  0.00    +0.460 A 
ATOM      7  C   LIG    1        4.398   0.329  -0.663  0.00  0.00    -0.230 A 
ATOM      8  C   LIG    1        4.072  -0.198   0.662  0.00  0.00    -0.140 A 
ATOM      9  C   LIG    1        4.922  -1.123   1.494  0.00  0.00    +0.130 C 
ATOM     10  C   LIG    1        2.873   0.306   0.997  0.00  0.00    +0.090 A 
ATOM     11  C   LIG    1        2.149   0.031   2.290  0.00  0.00    +0.150 C 
ENDROOT
BRANCH   1  17
ATOM     12  C   LIG    1       -0.077   5.351   0.029  0.00  0.00    +0.100 C 
ATOM     13  C   LIG    1       -0.051   3.845   0.022  0.00  0.00    -0.070 A 
ATOM     14  C   LIG    1       -1.237   3.134   0.030  0.00  0.00    +0.020 A 
ATOM     15  C   LIG    1       -1.217   1.751   0.017  0.00  0.00    +0.030 A 
ATOM     16  C   LIG    1       -0.013   1.076   0.008  0.00  0.00    +0.020 A 
ATOM     17  C   LIG    1        1.180   1.787   0.000  0.00  0.00    +0.120 A 
ATOM     18  C   LIG    1        1.157   3.175   0.008  0.00  0.00    +0.030 A 
ENDBRANCH   1  17
BRANCH   6  19
ATOM     19  N   LIG    1        6.570  -0.597  -1.221  0.00  0.00    -0.650 N 
ATOM     20  H   LIG    1        6.594  -1.065  -0.372  0.00  0.00    +0.420 HD
ATOM     21  C   LIG    1        7.599  -0.714  -2.084  0.00  0.00    +0.510 C 
ATOM     22  O   LIG    1        7.569  -0.129  -3.146  0.00  0.00    -0.460 OA
BRANCH  21  23
ATOM     23  C   LIG    1        8.786  -1.572  -1.730  0.00  0.00    -0.010 C 
ATOM     24  C   LIG    1        9.444  -1.035  -0.455  0.00  0.00    +0.010 C 
ATOM     25  C   LIG    1       10.693  -1.865  -0.147  0.00  0.00    +0.220 C 
ATOM     26  O   LIG    1       11.585  -1.812  -1.262  0.00  0.00    -0.380 OA
ATOM     27  C   LIG    1       11.040  -2.345  -2.471  0.00  0.00    +0.210 C 
ATOM     28  C   LIG    1        9.805  -1.534  -2.873  0.00  0.00    +0.020 C 
ENDBRANCH  21  23
ENDBRANCH   6  19
TORSDOF 3
