REMARK  Name = ZINCqH0000003b0Z.0
REMARK                            x       y       z     vdW  Elec       q    Type
REMARK                         _______ _______ _______ _____ _____    ______ ____
ROOT
ATOM      1  N   LIG    1        4.676   3.957  -0.252  0.00  0.00    -0.640 N 
ATOM      2  H   LIG    1        4.554   4.885  -0.507  0.00  0.00    +0.420 HD
ATOM      3  C   LIG    1        5.915   3.480  -0.022  0.00  0.00    +0.510 C 
ATOM      4  O   LIG    1        6.069   2.320   0.297  0.00  0.00    -0.470 OA
ENDROOT
BRANCH   1  11
ATOM      5  N   LIG    1        0.002  -0.004   0.002  0.00  0.00    -0.530 NA
ATOM      6  C   LIG    1        0.890  -0.523   1.052  0.00  0.00    +0.180 C 
ATOM      7  C   LIG    1        2.349  -0.260   0.669  0.00  0.00    +0.150 C 
ATOM      8  C   LIG    1        2.482   1.209   0.290  0.00  0.00    +0.110 A 
ATOM      9  C   LIG    1        1.407   1.965  -0.001  0.00  0.00    -0.250 A 
ATOM     10  S   LIG    1        1.952   3.591  -0.384  0.00  0.00    +0.140 S 
ATOM     11  C   LIG    1        3.574   3.120  -0.124  0.00  0.00    +0.270 A 
ATOM     12  N   LIG    1        3.627   1.871   0.209  0.00  0.00    -0.470 NA
ATOM     13  C   LIG    1       -0.018   1.468   0.010  0.00  0.00    +0.290 C 
BRANCH   5  15
ATOM     14  C   LIG    1       -1.904  -0.201   1.527  0.00  0.00    -0.010 C 
ATOM     15  C   LIG    1       -1.355  -0.550   0.142  0.00  0.00    +0.210 C 
ENDBRANCH   5  15
ENDBRANCH   1  11
BRANCH   3  16
ATOM     16  C   LIG    1        7.111   4.387  -0.160  0.00  0.00    +0.090 C 
BRANCH  16  17
ATOM     17  C   LIG    1        8.386   3.603   0.154  0.00  0.00    +0.070 C 
BRANCH  17  18
ATOM     18  C   LIG    1        9.581   4.510   0.015  0.00  0.00    +0.400 C 
ATOM     19  O   LIG    1        9.428   5.670  -0.304  0.00  0.00    -0.450 OA
BRANCH  18  20
ATOM     20  C   LIG    1       10.934   3.989   0.266  0.00  0.00    -0.180 A 
ATOM     21  C   LIG    1       11.115   2.654   0.640  0.00  0.00    +0.060 A 
ATOM     22  C   LIG    1       12.386   2.171   0.870  0.00  0.00    +0.000 A 
ATOM     23  C   LIG    1       13.481   3.008   0.741  0.00  0.00    -0.050 A 
ATOM     24  C   LIG    1       13.310   4.332   0.376  0.00  0.00    -0.100 A 
ATOM     25  C   LIG    1       14.509   5.235   0.239  0.00  0.00    +0.090 C 
ATOM     26  C   LIG    1       14.866   2.474   0.999  0.00  0.00    +0.090 C 
ATOM     27  C   LIG    1       12.046   4.828   0.139  0.00  0.00    +0.070 A 
ENDBRANCH  18  20
ENDBRANCH  17  18
ENDBRANCH  16  17
ENDBRANCH   3  16
TORSDOF 6
