REMARK  Name = ZINCkj00000dDfXC.0
REMARK                            x       y       z     vdW  Elec       q    Type
REMARK                         _______ _______ _______ _____ _____    ______ ____
ROOT
ATOM      1  C   LIG    1       -3.735   1.978  -4.403  0.00  0.00    +0.010 A 
ATOM      2  N   LIG    1       -3.224   1.216  -3.457  0.00  0.00    -0.250 NA
ATOM      3  N   LIG    1       -3.017   1.911  -2.396  0.00  0.00    -0.290 N 
ATOM      4  C   LIG    1       -3.382   3.194  -2.599  0.00  0.00    +0.150 A 
ATOM      5  C   LIG    1       -3.846   3.283  -3.868  0.00  0.00    +0.010 A 
ENDROOT
BRANCH   3   6
ATOM      6  C   LIG    1       -2.459   1.386  -1.147  0.00  0.00    +0.270 C 
ATOM      7  C   LIG    1       -0.946   1.621  -1.125  0.00  0.00    +0.050 C 
ATOM      8  C   LIG    1       -0.384   1.140   0.216  0.00  0.00    +0.080 C 
ATOM      9  C   LIG    1       -1.100   1.869   1.355  0.00  0.00    +0.270 C 
ATOM     10  N   LIG    1       -2.539   1.584   1.294  0.00  0.00    -0.500 N 
ATOM     11  H   LIG    1       -2.685   0.586   1.336  0.00  0.00    +0.430 HD
ATOM     12  H   LIG    1       -3.001   2.022   2.077  0.00  0.00    +0.440 HD
ATOM     13  C   LIG    1       -3.099   2.106   0.042  0.00  0.00    +0.270 C 
ENDBRANCH   3   6
BRANCH   1  16
ATOM     14  C   LIG    1       -3.303  -0.684  -5.233  0.00  0.00    +0.300 C 
ATOM     15  N   LIG    1       -3.855   0.293  -6.175  0.00  0.00    -0.600 N 
ATOM     16  C   LIG    1       -4.114   1.551  -5.766  0.00  0.00    +0.600 C 
ATOM     17  O   LIG    1       -4.660   2.335  -6.518  0.00  0.00    -0.520 OA
BRANCH  15  18
ATOM     18  C   LIG    1       -4.127  -0.097  -7.560  0.00  0.00    +0.250 C 
ATOM     19  C   LIG    1       -2.797  -0.345  -8.274  0.00  0.00    +0.050 C 
ATOM     20  C   LIG    1       -2.412  -1.840  -8.119  0.00  0.00    +0.120 C 
ATOM     21  S   LIG    1       -4.045  -2.648  -8.377  0.00  0.00    -0.270 S 
ATOM     22  C   LIG    1       -5.034  -1.338  -7.559  0.00  0.00    +0.130 C 
ENDBRANCH  15  18
ENDBRANCH   1  16
TORSDOF 3
