REMARK  Name = ZINCtj0000003FL5.1
REMARK                            x       y       z     vdW  Elec       q    Type
REMARK                         _______ _______ _______ _____ _____    ______ ____
ROOT
ATOM      1  C   LIG    1       -1.194   3.059   1.255  0.00  0.00    +0.520 C 
ATOM      2  N   LIG    1       -1.192   2.489   2.476  0.00  0.00    -0.720 N 
ATOM      3  H   LIG    1       -1.198   1.522   2.560  0.00  0.00    +0.410 HD
ATOM      4  O   LIG    1       -1.187   4.267   1.150  0.00  0.00    -0.490 OA
ENDROOT
BRANCH   1   5
ATOM      5  C   LIG    1       -1.206   2.196   0.020  0.00  0.00    +0.290 C 
BRANCH   5  11
ATOM      6  C   LIG    1       -1.194  -0.920   0.008  0.00  0.00    +0.210 C 
ATOM      7  C   LIG    1        0.002  -0.004   0.002  0.00  0.00    +0.190 A 
ATOM      8  N   LIG    1        1.263  -0.363  -0.012  0.00  0.00    -0.290 NA
ATOM      9  N   LIG    1        1.981   0.706  -0.013  0.00  0.00    -0.060 NA
ATOM     10  N   LIG    1        1.212   1.738  -0.000  0.00  0.00    -0.090 NA
ATOM     11  N   LIG    1       -0.016   1.342   0.009  0.00  0.00    -0.310 N 
ENDBRANCH   5  11
BRANCH   5  12
ATOM     12  C   LIG    1       -1.206   3.086  -1.224  0.00  0.00    +0.140 C 
BRANCH  12  13
ATOM     13  C   LIG    1       -1.343   2.228  -2.456  0.00  0.00    -0.080 A 
ATOM     14  C   LIG    1       -2.596   1.927  -2.954  0.00  0.00    +0.010 A 
ATOM     15  C   LIG    1       -2.723   1.140  -4.083  0.00  0.00    +0.060 A 
ATOM     16  C   LIG    1       -1.595   0.653  -4.716  0.00  0.00    -0.010 A 
ATOM     17  C   LIG    1       -0.338   0.954  -4.218  0.00  0.00    +0.110 A 
ATOM     18  F   LIG    1        0.765   0.478  -4.836  0.00  0.00    -0.130 F 
ATOM     19  C   LIG    1       -0.213   1.746  -3.090  0.00  0.00    -0.020 A 
ENDBRANCH  12  13
ENDBRANCH   5  12
ENDBRANCH   1   5
BRANCH   2  20
ATOM     20  C   LIG    1       -1.180   3.328   3.677  0.00  0.00    +0.240 C 
BRANCH  20  21
ATOM     21  C   LIG    1       -1.180   2.438   4.921  0.00  0.00    +0.220 C 
ATOM     22  C   LIG    1       -1.288   3.311   6.174  0.00  0.00    +0.270 C 
ATOM     23  N   LIG    1       -0.115   4.191   6.257  0.00  0.00    -0.390 N 
ATOM     24  C   LIG    1        1.105   3.375   6.331  0.00  0.00    +0.240 C 
ATOM     25  C   LIG    1        1.208   2.502   5.078  0.00  0.00    +0.260 C 
ATOM     26  H   LIG    1       -0.077   4.780   5.438  0.00  0.00    +0.420 HD
ATOM     27  O   LIG    1        0.037   1.688   4.972  0.00  0.00    -0.340 OA
BRANCH  23  28
ATOM     28  C   LIG    1       -0.216   5.030   7.459  0.00  0.00    +0.260 C 
BRANCH  28  29
ATOM     29  C   LIG    1        0.941   6.032   7.480  0.00  0.00    -0.030 C 
ATOM     30  C   LIG    1        0.907   6.821   8.791  0.00  0.00    +0.070 C 
ATOM     31  C   LIG    1        0.802   6.996   6.301  0.00  0.00    +0.050 C 
ENDBRANCH  28  29
ENDBRANCH  23  28
ENDBRANCH  20  21
ENDBRANCH   2  20
TORSDOF 8
