REMARK  Name = ZINCtj0000003FL5.0
REMARK                            x       y       z     vdW  Elec       q    Type
REMARK                         _______ _______ _______ _____ _____    ______ ____
ROOT
ATOM      1  C   LIG    1        2.042  -3.071   2.558  0.00  0.00    +0.520 C 
ATOM      2  N   LIG    1        1.704  -2.183   1.603  0.00  0.00    -0.720 N 
ATOM      3  H   LIG    1        1.400  -2.494   0.736  0.00  0.00    +0.410 HD
ATOM      4  O   LIG    1        2.421  -2.681   3.643  0.00  0.00    -0.490 OA
ENDROOT
BRANCH   1   5
ATOM      5  C   LIG    1        1.950  -4.549   2.279  0.00  0.00    +0.280 C 
BRANCH   5  11
ATOM      6  C   LIG    1        0.978  -5.806  -0.401  0.00  0.00    +0.210 C 
ATOM      7  C   LIG    1        0.134  -5.441   0.793  0.00  0.00    +0.190 A 
ATOM      8  N   LIG    1       -1.162  -5.592   0.911  0.00  0.00    -0.290 NA
ATOM      9  N   LIG    1       -1.509  -5.157   2.073  0.00  0.00    -0.060 NA
ATOM     10  N   LIG    1       -0.467  -4.737   2.701  0.00  0.00    -0.080 NA
ATOM     11  N   LIG    1        0.567  -4.898   1.946  0.00  0.00    -0.310 N 
ENDBRANCH   5  11
BRANCH   5  12
ATOM     12  C   LIG    1        2.388  -5.331   3.519  0.00  0.00    +0.140 C 
BRANCH  12  13
ATOM     13  C   LIG    1        2.414  -6.804   3.202  0.00  0.00    -0.080 A 
ATOM     14  C   LIG    1        3.568  -7.385   2.712  0.00  0.00    +0.010 A 
ATOM     15  C   LIG    1        3.593  -8.736   2.420  0.00  0.00    +0.060 A 
ATOM     16  C   LIG    1        2.463  -9.507   2.618  0.00  0.00    -0.010 A 
ATOM     17  C   LIG    1        1.306  -8.926   3.110  0.00  0.00    +0.110 A 
ATOM     18  F   LIG    1        0.202  -9.679   3.304  0.00  0.00    -0.130 F 
ATOM     19  C   LIG    1        1.284  -7.574   3.406  0.00  0.00    -0.020 A 
ENDBRANCH  12  13
ENDBRANCH   5  12
ENDBRANCH   1   5
BRANCH   2  20
ATOM     20  C   LIG    1        1.793  -0.746   1.875  0.00  0.00    +0.320 C 
BRANCH  20  21
ATOM     21  C   LIG    1        1.355   0.036   0.635  0.00  0.00    +0.160 C 
ATOM     22  C   LIG    1        1.561   1.534   0.875  0.00  0.00    +0.260 C 
ATOM     23  N   LIG    1        1.085   2.285  -0.295  0.00  0.00    -0.380 N 
ATOM     24  C   LIG    1       -0.344   2.013  -0.502  0.00  0.00    +0.240 C 
ATOM     25  C   LIG    1       -0.546   0.514  -0.740  0.00  0.00    +0.270 C 
ATOM     26  H   LIG    1        1.604   2.000  -1.112  0.00  0.00    +0.420 HD
ATOM     27  O   LIG    1       -0.030  -0.214   0.377  0.00  0.00    -0.350 OA
BRANCH  23  28
ATOM     28  C   LIG    1        1.282   3.723  -0.066  0.00  0.00    +0.260 C 
BRANCH  28  29
ATOM     29  C   LIG    1        2.780   4.029  -0.003  0.00  0.00    -0.030 C 
ATOM     30  C   LIG    1        2.985   5.500   0.362  0.00  0.00    +0.070 C 
ATOM     31  C   LIG    1        3.416   3.748  -1.366  0.00  0.00    +0.040 C 
ENDBRANCH  28  29
ENDBRANCH  23  28
ENDBRANCH  20  21
ENDBRANCH   2  20
TORSDOF 8
