REMARK  Name = ZINCqH0000003s6j.0
REMARK                            x       y       z     vdW  Elec       q    Type
REMARK                         _______ _______ _______ _____ _____    ______ ____
ROOT
ATOM      1  S   LIG    1       -2.827   1.624   0.044  0.00  0.00    +2.680 S 
ATOM      2  O   LIG    1       -3.657   2.777   0.002  0.00  0.00    -0.920 OA
ATOM      3  O   LIG    1       -3.018   0.562   0.969  0.00  0.00    -0.940 OA
ENDROOT
BRANCH   1   7
ATOM      4  C   LIG    1        1.405   3.119   0.669  0.00  0.00    -0.060 A 
ATOM      5  C   LIG    1        0.923   2.044   1.418  0.00  0.00    +0.090 A 
ATOM      6  C   LIG    1       -0.365   1.591   1.220  0.00  0.00    +0.130 A 
ATOM      7  C   LIG    1       -1.181   2.203   0.285  0.00  0.00    -0.630 A 
ATOM      8  C   LIG    1       -0.708   3.267  -0.465  0.00  0.00    -0.020 A 
ATOM      9 BR   LIG    1       -1.829   4.092  -1.745  0.00  0.00    +0.000 Br
ATOM     10  C   LIG    1        0.579   3.729  -0.277  0.00  0.00    +0.110 A 
BRANCH   4  11
ATOM     11  C   LIG    1        2.784   3.607   0.876  0.00  0.00    +0.510 C 
ATOM     12  O   LIG    1        3.201   4.543   0.222  0.00  0.00    -0.490 OA
BRANCH  11  13
ATOM     13  O   LIG    1        3.578   3.016   1.789  0.00  0.00    -0.350 OA
BRANCH  13  15
ATOM     14  C   LIG    1        5.668   2.756   3.013  0.00  0.00    +0.070 C 
ATOM     15  C   LIG    1        4.921   3.549   1.939  0.00  0.00    +0.200 C 
ENDBRANCH  13  15
ENDBRANCH  11  13
ENDBRANCH   4  11
ENDBRANCH   1   7
BRANCH   1  16
ATOM     16  N   LIG    1       -2.892   0.946  -1.466  0.00  0.00    -0.990 NA
ATOM     17  C   LIG    1       -3.401   1.725  -2.597  0.00  0.00    +0.310 C 
BRANCH  16  18
ATOM     18  C   LIG    1       -2.441  -0.433  -1.670  0.00  0.00    +0.360 C 
BRANCH  18  19
ATOM     19  C   LIG    1       -3.627  -1.361  -1.627  0.00  0.00    -0.100 A 
ATOM     20  C   LIG    1       -4.023  -1.919  -0.426  0.00  0.00    +0.080 A 
ATOM     21  C   LIG    1       -5.114  -2.768  -0.383  0.00  0.00    +0.020 A 
ATOM     22  C   LIG    1       -5.803  -3.067  -1.545  0.00  0.00    +0.070 A 
ATOM     23  C   LIG    1       -5.402  -2.512  -2.750  0.00  0.00    +0.060 A 
ATOM     24  F   LIG    1       -6.074  -2.803  -3.886  0.00  0.00    -0.130 F 
ATOM     25  F   LIG    1       -6.866  -3.901  -1.504  0.00  0.00    -0.130 F 
ATOM     26  C   LIG    1       -4.313  -1.659  -2.789  0.00  0.00    +0.040 A 
ENDBRANCH  18  19
ENDBRANCH  16  18
ENDBRANCH   1  16
TORSDOF 7
