REMARK  Name = ZINCpk00000xIgP8.0
REMARK                            x       y       z     vdW  Elec       q    Type
REMARK                         _______ _______ _______ _____ _____    ______ ____
ROOT
ATOM      1  S   LIG    1       -0.030   1.437   0.025  0.00  0.00    +2.700 S 
ATOM      2  O   LIG    1        1.045   2.361   0.132  0.00  0.00    -0.950 OA
ATOM      3  O   LIG    1        0.161   0.033  -0.084  0.00  0.00    -0.950 OA
ENDROOT
BRANCH   1   4
ATOM      4  C   LIG    1       -0.966   1.924  -1.386  0.00  0.00    -0.700 A 
ATOM      5  C   LIG    1       -1.752   0.997  -2.046  0.00  0.00    +0.150 A 
ATOM      6  C   LIG    1       -2.490   1.376  -3.150  0.00  0.00    -0.030 A 
ATOM      7  C   LIG    1       -2.434   2.687  -3.603  0.00  0.00    +0.230 A 
ATOM      8  C   LIG    1       -1.640   3.614  -2.942  0.00  0.00    +0.010 A 
ATOM      9  C   LIG    1       -0.908   3.230  -1.835  0.00  0.00    +0.140 A 
BRANCH   7  10
ATOM     10  N   LIG    1       -3.176   3.073  -4.725  0.00  0.00    -0.690 N 
ATOM     11  H   LIG    1       -4.037   2.663  -4.902  0.00  0.00    +0.410 HD
ATOM     12  C   LIG    1       -2.695   4.015  -5.560  0.00  0.00    +0.710 C 
ATOM     13  O   LIG    1       -1.576   4.460  -5.394  0.00  0.00    -0.570 OA
ATOM     14  N   LIG    1       -3.454   4.464  -6.579  0.00  0.00    -0.860 N 
ATOM     15  H   LIG    1       -3.108   5.143  -7.180  0.00  0.00    +0.420 HD
ATOM     16  H   LIG    1       -4.347   4.109  -6.712  0.00  0.00    +0.400 HD
ENDBRANCH   7  10
ENDBRANCH   1   4
BRANCH   1  17
ATOM     17  N   LIG    1       -0.987   1.678   1.355  0.00  0.00    -1.110 NA
ATOM     18  H   LIG    1       -0.737   2.339   2.019  0.00  0.00    +0.420 HD
BRANCH  17  19
ATOM     19  C   LIG    1       -2.212   0.892   1.528  0.00  0.00    +0.330 C 
BRANCH  19  23
ATOM     20  C   LIG    1       -3.585   1.260   5.561  0.00  0.00    -0.120 A 
ATOM     21  C   LIG    1       -4.020   2.160   4.587  0.00  0.00    +0.080 A 
ATOM     22  C   LIG    1       -3.573   2.036   3.288  0.00  0.00    +0.030 A 
ATOM     23  C   LIG    1       -2.695   1.022   2.949  0.00  0.00    -0.070 A 
ATOM     24  C   LIG    1       -2.264   0.122   3.908  0.00  0.00    +0.030 A 
ATOM     25  C   LIG    1       -2.699   0.238   5.212  0.00  0.00    +0.080 A 
BRANCH  20  26
ATOM     26  C   LIG    1       -4.059   1.386   6.954  0.00  0.00    +0.510 C 
ATOM     27  O   LIG    1       -4.831   2.275   7.254  0.00  0.00    -0.500 OA
BRANCH  26  29
ATOM     28  C   LIG    1       -4.145   0.700   9.239  0.00  0.00    +0.290 C 
ATOM     29  O   LIG    1       -3.637   0.515   7.891  0.00  0.00    -0.350 OA
ENDBRANCH  26  29
ENDBRANCH  20  26
ENDBRANCH  19  23
ENDBRANCH  17  19
ENDBRANCH   1  17
TORSDOF 7
