REMARK  Name = ZINCrg00000I5BjO.1
REMARK                            x       y       z     vdW  Elec       q    Type
REMARK                         _______ _______ _______ _____ _____    ______ ____
ROOT
ATOM      1  C   LIG    1        0.494  -3.640  -1.177  0.00  0.00    +0.300 C 
ATOM      2  N   LIG    1        0.129  -3.365   0.215  0.00  0.00    -0.590 N 
ATOM      3  C   LIG    1       -0.190  -4.380   1.042  0.00  0.00    +0.600 C 
ATOM      4  O   LIG    1       -0.405  -4.161   2.220  0.00  0.00    -0.500 OA
ENDROOT
BRANCH   3   5
ATOM      5  C   LIG    1       -0.278  -5.746   0.523  0.00  0.00    +0.010 A 
ATOM      6  C   LIG    1        0.791  -6.593   0.199  0.00  0.00    -0.140 A 
ATOM      7  C   LIG    1        2.189  -6.514   0.226  0.00  0.00    +0.150 A 
ATOM      8  C   LIG    1        2.929  -7.583  -0.181  0.00  0.00    -0.130 A 
ATOM      9  C   LIG    1        2.325  -8.762  -0.627  0.00  0.00    +0.140 A 
ATOM     10  C   LIG    1        0.973  -8.900  -0.676  0.00  0.00    +0.060 A 
ATOM     11  F   LIG    1        3.105  -9.792  -1.019  0.00  0.00    -0.120 F 
ATOM     12 BR   LIG    1        4.816  -7.469  -0.141  0.00  0.00    -0.020 Br
ATOM     13  C   LIG    1        0.150  -7.831  -0.269  0.00  0.00    +0.090 A 
ATOM     14  N   LIG    1       -1.153  -7.625  -0.187  0.00  0.00    -0.260 NA
ATOM     15  N   LIG    1       -1.414  -6.451   0.264  0.00  0.00    -0.310 N 
ATOM     16  H   LIG    1       -2.311  -6.107   0.402  0.00  0.00    +0.460 HD
ENDBRANCH   3   5
BRANCH   2  17
ATOM     17  C   LIG    1        0.111  -1.985   0.708  0.00  0.00    +0.250 C 
ATOM     18  C   LIG    1       -0.864  -1.063  -0.037  0.00  0.00    +0.270 C 
ATOM     19  N   LIG    1        0.161  -0.011   0.030  0.00  0.00    -0.640 N 
ATOM     20  C   LIG    1        0.169   1.337   0.043  0.00  0.00    +0.540 C 
ATOM     21  O   LIG    1       -0.876   1.950  -0.015  0.00  0.00    -0.520 OA
ATOM     22  C   LIG    1        1.174  -1.076   0.070  0.00  0.00    +0.290 C 
BRANCH  20  23
ATOM     23  C   LIG    1        1.476   2.082   0.122  0.00  0.00    +0.230 C 
ATOM     24  C   LIG    1        1.985   2.114   1.581  0.00  0.00    +0.070 C 
ATOM     25  C   LIG    1        2.641   3.512   1.655  0.00  0.00    +0.060 C 
ATOM     26  C   LIG    1        1.932   4.312   0.584  0.00  0.00    +0.520 C 
ATOM     27  O   LIG    1        1.946   5.521   0.496  0.00  0.00    -0.520 OA
ATOM     28  N   LIG    1        1.284   3.486  -0.257  0.00  0.00    -0.710 N 
ATOM     29  H   LIG    1        0.758   3.781  -1.016  0.00  0.00    +0.420 HD
ENDBRANCH  20  23
ENDBRANCH   2  17
TORSDOF 3
