REMARK  Name = ZINCrg00000I5BjO.0
REMARK                            x       y       z     vdW  Elec       q    Type
REMARK                         _______ _______ _______ _____ _____    ______ ____
ROOT
ATOM      1  C   LIG    1        3.848   7.282  -0.098  0.00  0.00    +0.300 C 
ATOM      2  N   LIG    1        4.419   5.933  -0.110  0.00  0.00    -0.590 N 
ATOM      3  C   LIG    1        3.652   4.873   0.215  0.00  0.00    +0.610 C 
ATOM      4  O   LIG    1        4.138   3.760   0.255  0.00  0.00    -0.520 OA
ENDROOT
BRANCH   3   5
ATOM      5  C   LIG    1        2.223   5.065   0.521  0.00  0.00    +0.020 A 
ATOM      6  N   LIG    1        1.582   6.210   0.608  0.00  0.00    -0.190 NA
ATOM      7  N   LIG    1        0.340   6.046   0.890  0.00  0.00    -0.410 N 
ATOM      8  H   LIG    1       -0.298   6.769   0.996  0.00  0.00    +0.450 HD
ATOM      9  C   LIG    1        0.032   4.717   1.021  0.00  0.00    +0.110 A 
ATOM     10  C   LIG    1       -1.128   4.005   1.310  0.00  0.00    +0.000 A 
ATOM     11  C   LIG    1       -1.089   2.628   1.361  0.00  0.00    +0.170 A 
ATOM     12  C   LIG    1        0.101   1.942   1.137  0.00  0.00    -0.150 A 
ATOM     13  C   LIG    1        1.252   2.624   0.851  0.00  0.00    +0.180 A 
ATOM     14 BR   LIG    1        0.126   0.053   1.220  0.00  0.00    -0.010 Br
ATOM     15  F   LIG    1       -2.217   1.937   1.636  0.00  0.00    -0.110 F 
ATOM     16  C   LIG    1        1.231   4.014   0.789  0.00  0.00    -0.120 A 
ENDBRANCH   3   5
BRANCH   2  17
ATOM     17  C   LIG    1        5.824   5.735  -0.475  0.00  0.00    +0.250 C 
ATOM     18  C   LIG    1        6.758   6.852   0.025  0.00  0.00    +0.290 C 
ATOM     19  N   LIG    1        7.403   6.769  -1.299  0.00  0.00    -0.640 N 
ATOM     20  C   LIG    1        8.628   7.071  -1.774  0.00  0.00    +0.530 C 
ATOM     21  O   LIG    1        8.885   6.892  -2.945  0.00  0.00    -0.520 OA
ATOM     22  C   LIG    1        6.169   6.221  -1.895  0.00  0.00    +0.280 C 
BRANCH  20  23
ATOM     23  C   LIG    1        9.677   7.632  -0.849  0.00  0.00    +0.230 C 
ATOM     24  C   LIG    1        9.461   9.149  -0.653  0.00  0.00    +0.070 C 
ATOM     25  C   LIG    1       10.916   9.664  -0.556  0.00  0.00    +0.070 C 
ATOM     26  C   LIG    1       11.728   8.625  -1.297  0.00  0.00    +0.520 C 
ATOM     27  O   LIG    1       12.863   8.784  -1.694  0.00  0.00    -0.520 OA
ATOM     28  N   LIG    1       11.009   7.498  -1.451  0.00  0.00    -0.710 N 
ATOM     29  H   LIG    1       11.328   6.701  -1.902  0.00  0.00    +0.420 HD
ENDBRANCH  20  23
ENDBRANCH   2  17
TORSDOF 3
