REMARK  Name = ZINCkj000005jUI4.1
REMARK                            x       y       z     vdW  Elec       q    Type
REMARK                         _______ _______ _______ _____ _____    ______ ____
ROOT
ATOM      1  C   LIG    1       -4.108  -0.222   4.013  0.00  0.00    +0.050 C 
ATOM      2  C   LIG    1       -2.604  -0.012   4.198  0.00  0.00    +0.260 C 
ATOM      3  C   LIG    1       -2.170  -0.591   5.545  0.00  0.00    +0.260 C 
ATOM      4  N   LIG    1       -2.351  -2.048   5.533  0.00  0.00    -0.380 N 
ATOM      5  C   LIG    1       -1.461  -2.654   4.535  0.00  0.00    +0.160 C 
ATOM      6  C   LIG    1       -1.864  -2.178   3.135  0.00  0.00    +0.340 C 
ATOM      7  C   LIG    1       -0.017  -2.238   4.819  0.00  0.00    +0.080 C 
ATOM      8  C   LIG    1       -2.035  -2.590   6.861  0.00  0.00    +0.310 C 
ATOM      9  H   LIG    1       -3.309  -2.265   5.303  0.00  0.00    +0.420 HD
ATOM     10  N   LIG    1       -1.872  -0.707   3.128  0.00  0.00    -0.620 N 
ATOM     11  C   LIG    1       -1.222  -0.015   2.171  0.00  0.00    +0.580 C 
ATOM     12  O   LIG    1       -1.124   1.194   2.255  0.00  0.00    -0.470 OA
ENDROOT
BRANCH  11  13
ATOM     13  C   LIG    1       -0.628  -0.726   1.020  0.00  0.00    +0.080 A 
ATOM     14  N   LIG    1       -0.859  -2.024   0.856  0.00  0.00    -0.460 NA
ATOM     15  C   LIG    1       -0.349  -2.693  -0.154  0.00  0.00    +0.270 A 
ATOM     16  C   LIG    1        0.455  -2.068  -1.096  0.00  0.00    +0.030 A 
ATOM     17  C   LIG    1        0.721  -0.717  -0.974  0.00  0.00    +0.040 A 
ATOM     18  C   LIG    1        0.174  -0.027   0.109  0.00  0.00    +0.110 A 
BRANCH  18  19
ATOM     19  N   LIG    1        0.417   1.330   0.277  0.00  0.00    -0.490 N 
ATOM     20  C   LIG    1       -0.149   2.107  -0.834  0.00  0.00    +0.210 C 
ATOM     21  C   LIG    1        1.854   1.593   0.425  0.00  0.00    +0.210 C 
ENDBRANCH  18  19
ENDBRANCH  11  13
TORSDOF 2
