REMARK  Name = ZINCkj000005jUI4.2
REMARK                            x       y       z     vdW  Elec       q    Type
REMARK                         _______ _______ _______ _____ _____    ______ ____
ROOT
ATOM      1  C   LIG    1       -2.689   2.181   2.462  0.00  0.00    +0.080 C 
ATOM      2  C   LIG    1       -1.924   1.408   1.386  0.00  0.00    +0.230 C 
ATOM      3  C   LIG    1       -2.437   1.810  -0.000  0.00  0.00    +0.250 C 
ATOM      4  N   LIG    1       -1.610   1.171  -1.032  0.00  0.00    -0.390 N 
ATOM      5  C   LIG    1       -0.235   1.679  -0.956  0.00  0.00    +0.160 C 
ATOM      6  C   LIG    1        0.387   1.270   0.383  0.00  0.00    +0.310 C 
ATOM      7  C   LIG    1        0.590   1.091  -2.103  0.00  0.00    +0.090 C 
ATOM      8  C   LIG    1       -2.169   1.470  -2.357  0.00  0.00    +0.320 C 
ATOM      9  H   LIG    1       -1.607   0.172  -0.887  0.00  0.00    +0.420 HD
ATOM     10  N   LIG    1       -0.488   1.736   1.470  0.00  0.00    -0.620 N 
ATOM     11  C   LIG    1        0.008   2.441   2.505  0.00  0.00    +0.580 C 
ATOM     12  O   LIG    1       -0.700   2.700   3.460  0.00  0.00    -0.460 OA
ENDROOT
BRANCH  11  13
ATOM     13  C   LIG    1        1.412   2.901   2.481  0.00  0.00    +0.080 A 
ATOM     14  N   LIG    1        2.136   2.752   1.377  0.00  0.00    -0.460 NA
ATOM     15  C   LIG    1        3.386   3.153   1.312  0.00  0.00    +0.270 A 
ATOM     16  C   LIG    1        4.008   3.742   2.403  0.00  0.00    +0.030 A 
ATOM     17  C   LIG    1        3.300   3.915   3.578  0.00  0.00    +0.040 A 
ATOM     18  C   LIG    1        1.973   3.488   3.623  0.00  0.00    +0.110 A 
BRANCH  18  19
ATOM     19  N   LIG    1        1.220   3.640   4.780  0.00  0.00    -0.490 N 
ATOM     20  C   LIG    1        1.037   5.061   5.106  0.00  0.00    +0.210 C 
ATOM     21  C   LIG    1        1.831   2.917   5.904  0.00  0.00    +0.210 C 
ENDBRANCH  18  19
ENDBRANCH  11  13
TORSDOF 2
