REMARK  Name = ZINCtV000002z27Y.0
REMARK                            x       y       z     vdW  Elec       q    Type
REMARK                         _______ _______ _______ _____ _____    ______ ____
ROOT
ATOM      1  N   LIG    1       -7.124   1.402   0.162  0.00  0.00    -0.450 N 
ATOM      2  C   LIG    1       -6.641   0.109   0.141  0.00  0.00    +0.090 A 
ATOM      3  C   LIG    1       -7.261  -1.132   0.248  0.00  0.00    +0.010 A 
ATOM      4  C   LIG    1       -6.509  -2.285   0.191  0.00  0.00    +0.030 A 
ATOM      5  C   LIG    1       -5.133  -2.224   0.028  0.00  0.00    +0.010 A 
ATOM      6  C   LIG    1       -4.500  -1.005  -0.080  0.00  0.00    +0.030 A 
ATOM      7  C   LIG    1       -5.249   0.168  -0.031  0.00  0.00    -0.070 A 
ATOM      8  C   LIG    1       -4.904   1.600  -0.105  0.00  0.00    -0.270 A 
ATOM      9  C   LIG    1       -6.106   2.295   0.017  0.00  0.00    +0.240 A 
ENDROOT
BRANCH   9  10
ATOM     10  C   LIG    1       -6.252   3.763  -0.006  0.00  0.00    -0.060 A 
ATOM     11  C   LIG    1       -7.099   4.370  -0.936  0.00  0.00    +0.020 A 
ATOM     12  C   LIG    1       -7.236   5.742  -0.947  0.00  0.00    +0.010 A 
ATOM     13  C   LIG    1       -6.526   6.519  -0.049  0.00  0.00    +0.030 A 
ATOM     14  C   LIG    1       -5.680   5.925   0.872  0.00  0.00    +0.010 A 
ATOM     15  C   LIG    1       -5.538   4.553   0.899  0.00  0.00    +0.070 A 
ENDBRANCH   9  10
BRANCH   1  17
ATOM     16  C   LIG    1       -8.836   2.020   1.796  0.00  0.00    +0.040 C 
ATOM     17  C   LIG    1       -8.535   1.764   0.318  0.00  0.00    +0.290 C 
ENDBRANCH   1  17
BRANCH   8  18
ATOM     18  C   LIG    1       -3.616   2.156  -0.272  0.00  0.00    +0.430 C 
ATOM     19  O   LIG    1       -3.476   3.361  -0.322  0.00  0.00    -0.440 OA
BRANCH  18  20
ATOM     20  C   LIG    1       -2.415   1.253  -0.389  0.00  0.00    +0.220 C 
BRANCH  20  21
ATOM     21  O   LIG    1       -1.237   2.045  -0.549  0.00  0.00    -0.290 OA
BRANCH  21  22
ATOM     22  C   LIG    1       -0.058   1.380  -0.670  0.00  0.00    +0.140 A 
ATOM     23  C   LIG    1       -0.036  -0.006  -0.634  0.00  0.00    -0.070 A 
ATOM     24  C   LIG    1        1.163  -0.681  -0.762  0.00  0.00    +0.080 A 
ATOM     25  C   LIG    1        2.341   0.026  -0.927  0.00  0.00    -0.080 A 
ATOM     26  C   LIG    1        2.321   1.409  -0.963  0.00  0.00    -0.030 A 
ATOM     27  C   LIG    1        3.606   2.176  -1.142  0.00  0.00    +0.110 C 
ATOM     28 CL   LIG    1        3.847  -0.824  -1.087  0.00  0.00    -0.070 Cl
ATOM     29  C   LIG    1        1.125   2.087  -0.835  0.00  0.00    +0.000 A 
ENDBRANCH  21  22
ENDBRANCH  20  21
ENDBRANCH  18  20
ENDBRANCH   8  18
TORSDOF 6
