REMARK  Name = ZINCrH000004rTfj.0
REMARK                            x       y       z     vdW  Elec       q    Type
REMARK                         _______ _______ _______ _____ _____    ______ ____
ROOT
ATOM      1  N   LIG    1       -0.980   0.947  -3.797  0.00  0.00    -0.730 N 
ATOM      2  H   LIG    1       -1.946   1.035  -3.782  0.00  0.00    +0.400 HD
ATOM      3  C   LIG    1       -0.291   1.272  -4.908  0.00  0.00    +0.560 C 
ATOM      4  O   LIG    1        0.920   1.161  -4.926  0.00  0.00    -0.530 OA
ENDROOT
BRANCH   3   5
ATOM      5  C   LIG    1       -1.005   1.761  -6.104  0.00  0.00    -0.130 A 
ATOM      6  C   LIG    1       -2.397   1.882  -6.086  0.00  0.00    +0.050 A 
ATOM      7  C   LIG    1       -3.060   2.343  -7.201  0.00  0.00    +0.010 A 
ATOM      8  C   LIG    1       -2.347   2.678  -8.348  0.00  0.00    +0.160 A 
ATOM      9  C   LIG    1       -0.961   2.553  -8.370  0.00  0.00    +0.020 A 
ATOM     10  C   LIG    1       -0.292   2.097  -7.257  0.00  0.00    +0.090 A 
BRANCH   8  11
ATOM     11  N   LIG    1       -3.022   3.138  -9.478  0.00  0.00    -0.570 N 
ATOM     12  C   LIG    1       -3.456   2.155 -10.462  0.00  0.00    +0.260 C 
ATOM     13  C   LIG    1       -4.552   2.740 -11.355  0.00  0.00    +0.020 C 
ATOM     14  C   LIG    1       -4.074   4.093 -11.896  0.00  0.00    +0.020 C 
ATOM     15  C   LIG    1       -3.984   5.077 -10.728  0.00  0.00    +0.070 C 
ATOM     16  C   LIG    1       -3.235   4.450  -9.587  0.00  0.00    +0.520 C 
ATOM     17  O   LIG    1       -2.795   5.177  -8.721  0.00  0.00    -0.540 OA
ENDBRANCH   8  11
ENDBRANCH   3   5
BRANCH   1  18
ATOM     18  C   LIG    1       -0.271   0.462  -2.610  0.00  0.00    +0.260 C 
BRANCH  18  19
ATOM     19  C   LIG    1       -1.279   0.168  -1.498  0.00  0.00    +0.030 C 
BRANCH  19  20
ATOM     20  C   LIG    1       -0.539  -0.339  -0.259  0.00  0.00    +0.200 C 
BRANCH  20  21
ATOM     21  O   LIG    1       -1.481  -0.614   0.780  0.00  0.00    -0.320 OA
BRANCH  21  27
ATOM     22  C   LIG    1       -2.264  -2.145   5.348  0.00  0.00    +0.090 C 
ATOM     23  C   LIG    1       -1.333  -1.832   4.205  0.00  0.00    -0.050 A 
ATOM     24  C   LIG    1        0.029  -2.016   4.354  0.00  0.00    -0.040 A 
ATOM     25  C   LIG    1        0.886  -1.730   3.308  0.00  0.00    +0.050 A 
ATOM     26  C   LIG    1        0.383  -1.266   2.108  0.00  0.00    -0.090 A 
ATOM     27  C   LIG    1       -0.983  -1.076   1.957  0.00  0.00    +0.130 A 
ATOM     28  C   LIG    1       -1.841  -1.363   3.009  0.00  0.00    -0.020 A 
ENDBRANCH  21  27
ENDBRANCH  20  21
ENDBRANCH  19  20
ENDBRANCH  18  19
ENDBRANCH   1  18
TORSDOF 7
