REMARK  Name = ZINCtV00000L6jbF.0
REMARK                            x       y       z     vdW  Elec       q    Type
REMARK                         _______ _______ _______ _____ _____    ______ ____
ROOT
ATOM      1  C   LIG    1        0.002  -0.004   0.002  0.00  0.00    +0.060 A 
ATOM      2  C   LIG    1       -1.078  -0.824   0.013  0.00  0.00    -0.540 A 
ATOM      3  N   LIG    1       -0.632  -2.089  -0.003  0.00  0.00    -0.370 NA
ATOM      4  C   LIG    1        0.682  -2.073  -0.015  0.00  0.00    +0.270 A 
ATOM      5  O   LIG    1        1.098  -0.790  -0.012  0.00  0.00    -0.170 OA
ENDROOT
BRANCH   4   6
ATOM      6  C   LIG    1        1.553  -3.256  -0.030  0.00  0.00    +0.040 A 
ATOM      7  C   LIG    1        2.917  -3.247  -0.048  0.00  0.00    +0.020 A 
ATOM      8  C   LIG    1        3.331  -4.592  -0.053  0.00  0.00    -0.060 A 
ATOM      9  C   LIG    1        2.216  -5.350  -0.047  0.00  0.00    +0.220 A 
ATOM     10  O   LIG    1        1.144  -4.540  -0.033  0.00  0.00    -0.140 OA
ENDBRANCH   4   6
BRANCH   2  11
ATOM     11  S   LIG    1       -2.765  -0.318   0.041  0.00  0.00    +2.610 S 
ATOM     12  O   LIG    1       -2.783   0.991   0.593  0.00  0.00    -0.910 OA
ATOM     13  O   LIG    1       -3.501  -1.403   0.590  0.00  0.00    -0.910 OA
BRANCH  11  14
ATOM     14  C   LIG    1       -3.290  -0.159  -1.633  0.00  0.00    -0.660 A 
ATOM     15  C   LIG    1       -3.157   1.052  -2.287  0.00  0.00    +0.140 A 
ATOM     16  C   LIG    1       -3.564   1.176  -3.602  0.00  0.00    +0.020 A 
ATOM     17  C   LIG    1       -4.114   0.091  -4.261  0.00  0.00    +0.020 A 
ATOM     18  C   LIG    1       -4.252  -1.119  -3.605  0.00  0.00    +0.020 A 
ATOM     19 CL   LIG    1       -4.632   0.249  -5.910  0.00  0.00    -0.050 Cl
ATOM     20  C   LIG    1       -3.839  -1.243  -2.292  0.00  0.00    +0.160 A 
ENDBRANCH  11  14
ENDBRANCH   2  11
BRANCH   1  21
ATOM     21  S   LIG    1       -0.022   1.758   0.012  0.00  0.00    +0.080 S 
BRANCH  21  23
ATOM     22  C   LIG    1        2.368   1.726  -1.319  0.00  0.00    +0.070 C 
ATOM     23  C   LIG    1        1.740   2.190  -0.003  0.00  0.00    +0.050 C 
BRANCH  23  24
ATOM     24  C   LIG    1        1.892   3.683   0.128  0.00  0.00    -0.080 A 
ATOM     25  C   LIG    1        1.340   4.520  -0.824  0.00  0.00    +0.020 A 
ATOM     26  C   LIG    1        1.476   5.890  -0.702  0.00  0.00    +0.020 A 
ATOM     27  C   LIG    1        2.171   6.424   0.367  0.00  0.00    +0.020 A 
ATOM     28  C   LIG    1        2.728   5.587   1.316  0.00  0.00    +0.010 A 
ATOM     29  C   LIG    1        2.588   4.217   1.196  0.00  0.00    +0.030 A 
ENDBRANCH  23  24
ENDBRANCH  21  23
ENDBRANCH   1  21
TORSDOF 6
