REMARK  Name = ZINCrg00000cfrKJ.0
REMARK                            x       y       z     vdW  Elec       q    Type
REMARK                         _______ _______ _______ _____ _____    ______ ____
ROOT
ATOM      1  C   LIG    1       -0.848   0.611  -2.301  0.00  0.00    +0.270 C 
ENDROOT
BRANCH   1   7
ATOM      2  C   LIG    1       -0.030   0.090   0.622  0.00  0.00    +0.520 C 
ATOM      3  N   LIG    1        0.108   1.209  -0.117  0.00  0.00    -0.610 N 
ATOM      4  C   LIG    1        1.202   2.190   0.004  0.00  0.00    +0.250 C 
ATOM      5  C   LIG    1        0.614   3.514  -0.557  0.00  0.00    +0.040 C 
ATOM      6  C   LIG    1       -0.262   2.989  -1.725  0.00  0.00    +0.040 C 
ATOM      7  C   LIG    1       -0.806   1.651  -1.180  0.00  0.00    +0.220 C 
ATOM      8  O   LIG    1       -0.921  -0.694   0.375  0.00  0.00    -0.510 OA
BRANCH   2  13
ATOM      9  O   LIG    1        0.784  -2.801   4.065  0.00  0.00    -0.520 OA
ATOM     10  C   LIG    1        0.831  -1.740   3.479  0.00  0.00    +0.520 C 
ATOM     11  C   LIG    1        0.868  -0.382   4.146  0.00  0.00    +0.070 C 
ATOM     12  C   LIG    1        0.502   0.607   3.014  0.00  0.00    +0.070 C 
ATOM     13  C   LIG    1        0.924  -0.185   1.756  0.00  0.00    +0.230 C 
ATOM     14  N   LIG    1        0.858  -1.599   2.143  0.00  0.00    -0.710 N 
ATOM     15  H   LIG    1        0.837  -2.338   1.514  0.00  0.00    +0.420 HD
ENDBRANCH   2  13
ENDBRANCH   1   7
BRANCH   1  16
ATOM     16  N   LIG    1       -1.820   1.026  -3.316  0.00  0.00    -0.730 N 
ATOM     17  H   LIG    1       -2.261   1.887  -3.242  0.00  0.00    +0.400 HD
ATOM     18  C   LIG    1       -2.101   0.212  -4.353  0.00  0.00    +0.570 C 
ATOM     19  O   LIG    1       -1.548  -0.867  -4.446  0.00  0.00    -0.540 OA
BRANCH  18  20
ATOM     20  C   LIG    1       -3.079   0.630  -5.375  0.00  0.00    -0.190 A 
ATOM     21  C   LIG    1       -3.716   1.870  -5.269  0.00  0.00    +0.080 A 
ATOM     22  C   LIG    1       -4.628   2.253  -6.225  0.00  0.00    -0.070 A 
ATOM     23  C   LIG    1       -4.917   1.410  -7.297  0.00  0.00    +0.250 A 
ATOM     24  N   LIG    1       -5.851   1.821  -8.246  0.00  0.00    -0.740 N 
ATOM     25  H   LIG    1       -6.431   2.578  -8.070  0.00  0.00    +0.400 HD
ATOM     26  C   LIG    1       -5.942   1.092  -9.518  0.00  0.00    +0.260 C 
ATOM     27  C   LIG    1       -5.916  -0.409  -9.201  0.00  0.00    +0.010 C 
ATOM     28  C   LIG    1       -4.572  -0.753  -8.557  0.00  0.00    +0.080 C 
ATOM     29  C   LIG    1       -4.285   0.177  -7.408  0.00  0.00    -0.160 A 
ATOM     30  C   LIG    1       -3.367  -0.210  -6.453  0.00  0.00    +0.120 A 
ENDBRANCH  18  20
ENDBRANCH   1  16
TORSDOF 4
