REMARK  Name = ZINCrg000000sOC1.0
REMARK                            x       y       z     vdW  Elec       q    Type
REMARK                         _______ _______ _______ _____ _____    ______ ____
ROOT
ATOM      1  S   LIG    1        2.978   0.321  -0.580  0.00  0.00    +2.690 S 
ATOM      2  O   LIG    1        2.559   0.414  -1.934  0.00  0.00    -0.940 OA
ATOM      3  O   LIG    1        3.929  -0.631  -0.123  0.00  0.00    -0.940 OA
ENDROOT
BRANCH   1   4
ATOM      4  C   LIG    1        3.613   1.906  -0.146  0.00  0.00    -0.670 A 
ATOM      5  C   LIG    1        3.147   3.036  -0.792  0.00  0.00    +0.150 A 
ATOM      6  C   LIG    1        3.637   4.285  -0.454  0.00  0.00    +0.020 A 
ATOM      7  C   LIG    1        4.605   4.403   0.528  0.00  0.00    +0.140 A 
ATOM      8  O   LIG    1        5.100   5.622   0.871  0.00  0.00    -0.300 OA
ATOM      9  C   LIG    1        5.480   5.800   2.238  0.00  0.00    +0.310 C 
ATOM     10  C   LIG    1        6.297   4.618   2.695  0.00  0.00    +0.490 C 
ATOM     11  N   LIG    1        6.061   3.397   2.168  0.00  0.00    -0.660 N 
ATOM     12  H   LIG    1        6.563   2.624   2.471  0.00  0.00    +0.420 HD
ATOM     13  O   LIG    1        7.163   4.763   3.532  0.00  0.00    -0.500 OA
ATOM     14  C   LIG    1        5.079   3.263   1.176  0.00  0.00    +0.080 A 
ATOM     15  C   LIG    1        4.581   2.016   0.837  0.00  0.00    +0.130 A 
ENDBRANCH   1   4
BRANCH   1  16
ATOM     16  N   LIG    1        1.607   0.080   0.318  0.00  0.00    -1.060 N 
ATOM     17  H   LIG    1        1.579  -0.631   0.978  0.00  0.00    +0.430 HD
BRANCH  16  22
ATOM     18  C   LIG    1       -1.412   1.557  -1.188  0.00  0.00    -0.030 A 
ATOM     19  C   LIG    1       -1.719   2.536  -0.242  0.00  0.00    +0.100 A 
ATOM     20  C   LIG    1       -0.920   2.694   0.872  0.00  0.00    +0.030 A 
ATOM     21  C   LIG    1        0.182   1.881   1.059  0.00  0.00    +0.060 A 
ATOM     22  C   LIG    1        0.493   0.899   0.125  0.00  0.00    +0.120 A 
ATOM     23  C   LIG    1       -0.304   0.733  -0.997  0.00  0.00    +0.050 A 
BRANCH  18  29
ATOM     24  C   LIG    1       -0.658   0.082  -3.838  0.00  0.00    +0.400 C 
ATOM     25  N   LIG    1       -1.927   0.748  -3.532  0.00  0.00    -0.370 N 
ATOM     26  N   LIG    1       -3.056   0.858  -4.363  0.00  0.00    -0.080 NA
ATOM     27  N   LIG    1       -3.943   1.519  -3.702  0.00  0.00    -0.040 NA
ATOM     28  N   LIG    1       -3.494   1.832  -2.540  0.00  0.00    -0.320 NA
ATOM     29  C   LIG    1       -2.264   1.390  -2.387  0.00  0.00    +0.280 A 
ENDBRANCH  18  29
ENDBRANCH  16  22
ENDBRANCH   1  16
TORSDOF 4
