REMARK  Name = ZINCqH0000003QlK.0
REMARK                            x       y       z     vdW  Elec       q    Type
REMARK                         _______ _______ _______ _____ _____    ______ ____
ROOT
ATOM      1  N   LIG    1       -1.798   5.626   0.002  0.00  0.00    -0.470 N 
ENDROOT
BRANCH   1   2
ATOM      2  C   LIG    1       -0.559   5.024   0.049  0.00  0.00    +0.400 A 
ATOM      3  N   LIG    1        0.125   4.787  -1.062  0.00  0.00    -0.560 NA
ATOM      4  C   LIG    1        1.316   4.210  -1.031  0.00  0.00    +0.500 A 
ATOM      5  N   LIG    1        1.899   3.836   0.083  0.00  0.00    -0.510 NA
ATOM      6  C   LIG    1        1.294   4.028   1.265  0.00  0.00    +0.170 A 
ATOM      7  C   LIG    1        1.887   3.640   2.474  0.00  0.00    +0.020 A 
ATOM      8  C   LIG    1        1.228   3.859   3.648  0.00  0.00    +0.060 A 
ATOM      9  C   LIG    1       -0.029   4.457   3.664  0.00  0.00    -0.010 A 
ATOM     10  C   LIG    1       -0.632   4.852   2.506  0.00  0.00    -0.010 A 
ATOM     11  C   LIG    1       -1.990   5.503   2.541  0.00  0.00    +0.110 C 
ATOM     12  C   LIG    1        0.018   4.642   1.284  0.00  0.00    -0.140 A 
ENDBRANCH   1   2
BRANCH   1  13
ATOM     13  C   LIG    1       -2.714   4.880  -0.872  0.00  0.00    +0.290 C 
BRANCH  13  19
ATOM     14  C   LIG    1       -3.945   3.408   0.744  0.00  0.00    +0.160 A 
ATOM     15  C   LIG    1       -4.209   2.163   1.296  0.00  0.00    -0.080 A 
ATOM     16  C   LIG    1       -3.522   1.051   0.850  0.00  0.00    +0.040 A 
ATOM     17  C   LIG    1       -2.576   1.176  -0.150  0.00  0.00    -0.040 A 
ATOM     18  C   LIG    1       -2.315   2.415  -0.707  0.00  0.00    +0.050 A 
ATOM     19  C   LIG    1       -2.999   3.530  -0.264  0.00  0.00    -0.120 A 
BRANCH  14  20
ATOM     20  O   LIG    1       -4.615   4.505   1.184  0.00  0.00    -0.290 OA
BRANCH  20  22
ATOM     21  C   LIG    1       -6.241   5.632   2.572  0.00  0.00    +0.070 C 
ATOM     22  C   LIG    1       -5.503   4.322   2.289  0.00  0.00    +0.170 C 
ENDBRANCH  20  22
ENDBRANCH  14  20
ENDBRANCH  13  19
ENDBRANCH   1  13
BRANCH   1  23
ATOM     23  C   LIG    1       -1.687   7.027  -0.427  0.00  0.00    +0.210 C 
BRANCH  23  24
ATOM     24  C   LIG    1       -2.961   7.781  -0.040  0.00  0.00    +0.180 C 
ATOM     25  C   LIG    1       -2.773   9.274  -0.316  0.00  0.00    +0.010 C 
BRANCH  24  26
ATOM     26  O   LIG    1       -4.059   7.288  -0.811  0.00  0.00    -0.560 OA
ATOM     27  H   LIG    1       -4.885   7.771  -0.673  0.00  0.00    +0.380 HD
ENDBRANCH  24  26
ENDBRANCH  23  24
ENDBRANCH   1  23
TORSDOF 8
