REMARK  Name = ZINCpe000000YSRf.0
REMARK                            x       y       z     vdW  Elec       q    Type
REMARK                         _______ _______ _______ _____ _____    ______ ____
ROOT
ATOM      1  O   LIG    1        2.612  -2.630   0.067  0.00  0.00    -0.490 OA
ATOM      2  C   LIG    1        3.643  -1.992   0.061  0.00  0.00    +0.530 C 
ATOM      3  N   LIG    1        3.604  -0.648  -0.035  0.00  0.00    -0.680 N 
ATOM      4  H   LIG    1        4.429  -0.143  -0.109  0.00  0.00    +0.430 HD
ENDROOT
BRANCH   3   5
ATOM      5  C   LIG    1        2.387   0.011  -0.025  0.00  0.00    +0.420 A 
ATOM      6  C   LIG    1        2.121   0.964   0.917  0.00  0.00    -0.070 A 
ATOM      7  C   LIG    1        0.885   1.614   0.904  0.00  0.00    +0.380 A 
ATOM      8  N   LIG    1       -0.014   1.314  -0.006  0.00  0.00    -0.460 NA
ATOM      9  C   LIG    1        0.232   0.382  -0.938  0.00  0.00    +0.260 A 
ATOM     10  C   LIG    1       -0.525  -0.117  -1.989  0.00  0.00    -0.100 A 
ATOM     11  C   LIG    1        0.236  -1.080  -2.636  0.00  0.00    +0.290 A 
ATOM     12  N   LIG    1        1.397  -1.183  -2.031  0.00  0.00    -0.290 NA
ATOM     13  N   LIG    1        1.431  -0.282  -0.961  0.00  0.00    -0.310 N 
ENDBRANCH   3   5
BRANCH   2  14
ATOM     14  C   LIG    1        4.969  -2.702   0.159  0.00  0.00    +0.070 C 
BRANCH  14  15
ATOM     15  C   LIG    1        4.734  -4.211   0.255  0.00  0.00    +0.360 C 
BRANCH  15  16
ATOM     16  N   LIG    1        6.022  -4.901   0.350  0.00  0.00    -0.460 N 
ATOM     17  N   LIG    1        6.678  -5.319  -0.811  0.00  0.00    +0.090 NA
ATOM     18  N   LIG    1        7.810  -5.923  -0.795  0.00  0.00    -0.190 NA
ATOM     19  C   LIG    1        8.454  -6.211   0.364  0.00  0.00    +0.060 A 
ATOM     20  C   LIG    1        9.683  -6.874   0.366  0.00  0.00    +0.080 A 
ATOM     21  C   LIG    1       10.307  -7.152   1.562  0.00  0.00    +0.070 A 
ATOM     22  C   LIG    1        9.729  -6.780   2.768  0.00  0.00    +0.040 A 
ATOM     23  C   LIG    1        8.518  -6.125   2.792  0.00  0.00    +0.100 A 
ATOM     24  C   LIG    1        7.869  -5.835   1.593  0.00  0.00    -0.150 A 
ATOM     25  C   LIG    1        6.574  -5.138   1.564  0.00  0.00    +0.530 A 
ATOM     26  O   LIG    1        6.021  -4.789   2.590  0.00  0.00    -0.500 OA
ENDBRANCH  15  16
ENDBRANCH  14  15
ENDBRANCH   2  14
TORSDOF 4
