REMARK  Name = ZINCrH000004nPRO.0
REMARK                            x       y       z     vdW  Elec       q    Type
REMARK                         _______ _______ _______ _____ _____    ______ ____
ROOT
ATOM      1  C   LIG    1       -1.099   0.353  -3.482  0.00  0.00    +0.110 C 
ATOM      2  C   LIG    1       -2.025   1.460  -2.972  0.00  0.00    +0.040 C 
ATOM      3  C   LIG    1       -2.228   2.504  -4.072  0.00  0.00    +0.030 C 
ATOM      4  C   LIG    1       -2.889   1.841  -5.285  0.00  0.00    +0.270 C 
ATOM      5  N   LIG    1       -2.078   0.686  -5.692  0.00  0.00    -0.610 N 
ATOM      6  C   LIG    1       -1.646   0.564  -6.963  0.00  0.00    +0.520 C 
ATOM      7  O   LIG    1       -0.978  -0.395  -7.287  0.00  0.00    -0.520 OA
ATOM      8  C   LIG    1       -1.747  -0.334  -4.688  0.00  0.00    +0.300 C 
ENDROOT
BRANCH   1  12
ATOM      9  C   LIG    1       -0.013  -1.889  -0.897  0.00  0.00    +0.180 A 
ATOM     10  N   LIG    1       -1.283  -2.149  -0.986  0.00  0.00    -0.370 NA
ATOM     11  O   LIG    1       -1.797  -1.449  -1.833  0.00  0.00    +0.080 OA
ATOM     12  C   LIG    1       -0.874  -0.658  -2.388  0.00  0.00    +0.180 A 
ATOM     13  N   LIG    1        0.266  -0.931  -1.799  0.00  0.00    -0.470 NA
BRANCH   9  14
ATOM     14  C   LIG    1        0.969  -2.545   0.040  0.00  0.00    +0.220 C 
BRANCH  14  15
ATOM     15  C   LIG    1        1.014  -1.768   1.357  0.00  0.00    -0.120 C 
ATOM     16  C   LIG    1        2.340  -1.751   2.121  0.00  0.00    +0.050 C 
ATOM     17  C   LIG    1        1.857  -0.492   1.395  0.00  0.00    +0.040 C 
BRANCH  15  18
ATOM     18  C   LIG    1       -0.276  -1.788   2.179  0.00  0.00    +0.110 C 
BRANCH  18  20
ATOM     19  C   LIG    1       -2.232  -3.331   3.542  0.00  0.00    +0.140 C 
ATOM     20  S   LIG    1       -0.618  -3.483   2.726  0.00  0.00    -0.250 S 
ENDBRANCH  18  20
ENDBRANCH  15  18
ENDBRANCH  14  15
ENDBRANCH   9  14
ENDBRANCH   1  12
BRANCH   6  21
ATOM     21  C   LIG    1       -1.995   1.619  -7.982  0.00  0.00    +0.110 C 
BRANCH  21  22
ATOM     22  C   LIG    1       -1.396   1.248  -9.314  0.00  0.00    -0.070 A 
ATOM     23  C   LIG    1       -0.127   1.683  -9.646  0.00  0.00    +0.010 A 
ATOM     24  C   LIG    1        0.424   1.339 -10.867  0.00  0.00    +0.000 A 
ATOM     25  C   LIG    1       -0.298   0.567 -11.758  0.00  0.00    +0.000 A 
ATOM     26  C   LIG    1       -1.569   0.137 -11.428  0.00  0.00    +0.000 A 
ATOM     27  C   LIG    1       -2.118   0.477 -10.206  0.00  0.00    +0.010 A 
ENDBRANCH  21  22
ENDBRANCH   6  21
TORSDOF 7
