REMARK  Name = ZINCfA000001B9Gz.2
REMARK                            x       y       z     vdW  Elec       q    Type
REMARK                         _______ _______ _______ _____ _____    ______ ____
ROOT
ATOM      1  N   LIG    1       -2.915   0.730   1.752  0.00  0.00    -0.380 N 
ATOM      2  H   LIG    1       -3.500   0.049   1.290  0.00  0.00    +0.420 HD
ENDROOT
BRANCH   1   4
ATOM      3  C   LIG    1       -0.610   1.393   2.247  0.00  0.00    +0.080 C 
ATOM      4  C   LIG    1       -1.516   0.285   1.705  0.00  0.00    +0.160 C 
ATOM      5  C   LIG    1       -1.128  -0.028   0.259  0.00  0.00    +0.080 C 
ENDBRANCH   1   4
BRANCH   1   6
ATOM      6  C   LIG    1       -3.040   2.025   1.071  0.00  0.00    +0.330 C 
BRANCH   6   7
ATOM      7  C   LIG    1       -2.889   1.828  -0.415  0.00  0.00    -0.080 A 
ATOM      8  C   LIG    1       -3.677   0.910  -1.093  0.00  0.00    -0.020 A 
ATOM      9  C   LIG    1       -3.511   0.755  -2.456  0.00  0.00    +0.320 A 
ATOM     10  N   LIG    1       -2.616   1.469  -3.112  0.00  0.00    -0.440 NA
ATOM     11  C   LIG    1       -1.850   2.352  -2.501  0.00  0.00    +0.140 A 
ATOM     12 BR   LIG    1       -0.586   3.342  -3.499  0.00  0.00    +0.030 Br
ATOM     13  C   LIG    1       -1.964   2.564  -1.139  0.00  0.00    +0.040 A 
ENDBRANCH   6   7
ENDBRANCH   1   6
BRANCH   1  14
ATOM     14  C   LIG    1       -3.338   0.870   3.152  0.00  0.00    +0.250 C 
BRANCH  14  15
ATOM     15  C   LIG    1       -3.258  -0.491   3.847  0.00  0.00    +0.250 C 
ATOM     16  F   LIG    1       -3.773  -0.383   5.143  0.00  0.00    -0.180 F 
ENDBRANCH  14  15
ENDBRANCH   1  14
TORSDOF 5
