REMARK  Name = ZINCfA000001B9Gz.1
REMARK                            x       y       z     vdW  Elec       q    Type
REMARK                         _______ _______ _______ _____ _____    ______ ____
ROOT
ATOM      1  N   LIG    1        0.258   2.418  -0.721  0.00  0.00    -0.380 N 
ATOM      2  H   LIG    1        0.560   3.256  -0.247  0.00  0.00    +0.420 HD
ENDROOT
BRANCH   1   4
ATOM      3  C   LIG    1       -1.566   0.805  -0.991  0.00  0.00    +0.080 C 
ATOM      4  C   LIG    1       -1.148   2.149  -0.390  0.00  0.00    +0.160 C 
ATOM      5  C   LIG    1       -1.313   2.100   1.131  0.00  0.00    +0.070 C 
ENDBRANCH   1   4
BRANCH   1   6
ATOM      6  C   LIG    1        1.088   1.285  -0.291  0.00  0.00    +0.340 C 
BRANCH   6   7
ATOM      7  C   LIG    1        1.104   1.217   1.214  0.00  0.00    -0.080 A 
ATOM      8  C   LIG    1        1.524   2.302   1.969  0.00  0.00    -0.010 A 
ATOM      9  C   LIG    1        1.520   2.205   3.348  0.00  0.00    +0.320 A 
ATOM     10  N   LIG    1        1.133   1.095   3.946  0.00  0.00    -0.440 NA
ATOM     11  C   LIG    1        0.733   0.041   3.260  0.00  0.00    +0.130 A 
ATOM     12 BR   LIG    1        0.191  -1.521   4.178  0.00  0.00    +0.030 Br
ATOM     13  C   LIG    1        0.705   0.066   1.877  0.00  0.00    +0.040 A 
ENDBRANCH   6   7
ENDBRANCH   1   6
BRANCH   1  14
ATOM     14  C   LIG    1        0.392   2.600  -2.172  0.00  0.00    +0.250 C 
BRANCH  14  15
ATOM     15  C   LIG    1       -0.432   3.811  -2.613  0.00  0.00    +0.250 C 
ATOM     16  F   LIG    1       -0.212   4.056  -3.973  0.00  0.00    -0.180 F 
ENDBRANCH  14  15
ENDBRANCH   1  14
TORSDOF 5
