REMARK  Name = ZINCvU00000009XE.0
REMARK                            x       y       z     vdW  Elec       q    Type
REMARK                         _______ _______ _______ _____ _____    ______ ____
ROOT
ATOM      1  C   LIG    1       -3.580   1.079  -1.987  0.00  0.00    +0.290 A 
ATOM      2  N   LIG    1       -3.769   0.564  -3.167  0.00  0.00    -0.480 NA
ATOM      3  C   LIG    1       -3.305  -0.712  -3.188  0.00  0.00    +0.050 A 
ATOM      4  C   LIG    1       -3.259  -1.704  -4.170  0.00  0.00    +0.070 A 
ATOM      5  C   LIG    1       -2.715  -2.924  -3.880  0.00  0.00    +0.000 A 
ATOM      6  C   LIG    1       -2.205  -3.189  -2.617  0.00  0.00    +0.030 A 
ATOM      7  C   LIG    1       -2.239  -2.224  -1.633  0.00  0.00    +0.010 A 
ATOM      8  C   LIG    1       -2.788  -0.980  -1.909  0.00  0.00    +0.060 A 
ATOM      9  N   LIG    1       -2.974   0.174  -1.173  0.00  0.00    -0.480 N 
ENDROOT
BRANCH   1  12
ATOM     10  N   LIG    1       -5.553   4.133  -2.298  0.00  0.00    -0.560 N 
ATOM     11  C   LIG    1       -5.470   2.734  -1.863  0.00  0.00    +0.300 C 
ATOM     12  C   LIG    1       -3.973   2.477  -1.583  0.00  0.00    +0.080 C 
ATOM     13  C   LIG    1       -3.296   3.527  -2.494  0.00  0.00    +0.090 C 
ATOM     14  C   LIG    1       -4.347   4.602  -2.663  0.00  0.00    +0.520 C 
ATOM     15  O   LIG    1       -4.133   5.725  -3.070  0.00  0.00    -0.500 OA
BRANCH  10  21
ATOM     16  C   LIG    1       -7.899   8.291  -3.470  0.00  0.00    +0.090 C 
ATOM     17  C   LIG    1       -7.900   6.901  -2.890  0.00  0.00    -0.050 A 
ATOM     18  C   LIG    1       -9.070   6.364  -2.385  0.00  0.00    -0.030 A 
ATOM     19  C   LIG    1       -9.075   5.088  -1.852  0.00  0.00    -0.050 A 
ATOM     20  C   LIG    1       -7.911   4.346  -1.822  0.00  0.00    -0.040 A 
ATOM     21  C   LIG    1       -6.734   4.882  -2.328  0.00  0.00    +0.170 A 
ATOM     22  C   LIG    1      -10.353   4.506  -1.304  0.00  0.00    +0.100 C 
ATOM     23  C   LIG    1       -6.731   6.165  -2.858  0.00  0.00    -0.010 A 
ENDBRANCH  10  21
ENDBRANCH   1  12
BRANCH   9  24
ATOM     24  C   LIG    1       -2.593   0.382   0.226  0.00  0.00    +0.360 C 
BRANCH  24  25
ATOM     25  C   LIG    1       -3.789   0.144   1.112  0.00  0.00    -0.120 A 
ATOM     26  C   LIG    1       -4.649   1.185   1.407  0.00  0.00    +0.020 A 
ATOM     27  C   LIG    1       -5.749   0.965   2.215  0.00  0.00    +0.010 A 
ATOM     28  C   LIG    1       -5.985  -0.294   2.733  0.00  0.00    +0.030 A 
ATOM     29  C   LIG    1       -5.121  -1.335   2.443  0.00  0.00    +0.010 A 
ATOM     30  C   LIG    1       -4.023  -1.115   1.634  0.00  0.00    -0.060 A 
ATOM     31  C   LIG    1       -3.082  -2.249   1.317  0.00  0.00    +0.090 C 
ENDBRANCH  24  25
ENDBRANCH   9  24
TORSDOF 4
