REMARK  Name = ZINCrg000000mHqw.0
REMARK                            x       y       z     vdW  Elec       q    Type
REMARK                         _______ _______ _______ _____ _____    ______ ____
ROOT
ATOM      1  C   LIG    1        2.488   3.317   3.568  0.00  0.00    +0.290 A 
ATOM      2  N   LIG    1        1.541   3.035   2.711  0.00  0.00    -0.490 NA
ATOM      3  C   LIG    1        0.994   1.854   3.013  0.00  0.00    +0.320 A 
ATOM      4  C   LIG    1        1.651   1.373   4.138  0.00  0.00    -0.150 A 
ATOM      5  C   LIG    1        1.266   0.126   4.678  0.00  0.00    +0.600 A 
ATOM      6  N   LIG    1        0.271  -0.568   4.088  0.00  0.00    -0.650 N 
ATOM      7  H   LIG    1        0.003  -1.425   4.456  0.00  0.00    +0.440 HD
ATOM      8  C   LIG    1       -0.359  -0.088   3.003  0.00  0.00    +0.710 A 
ATOM      9  O   LIG    1       -1.256  -0.739   2.501  0.00  0.00    -0.530 OA
ATOM     10  O   LIG    1        1.827  -0.318   5.664  0.00  0.00    -0.510 OA
ATOM     11  N   LIG    1       -0.020   1.094   2.454  0.00  0.00    -0.510 N 
ATOM     12  N   LIG    1        2.595   2.323   4.471  0.00  0.00    -0.400 N 
ENDROOT
BRANCH   1  13
ATOM     13  C   LIG    1        3.330   4.567   3.550  0.00  0.00    +0.190 C 
BRANCH  13  14
ATOM     14  C   LIG    1        4.579   4.327   2.698  0.00  0.00    +0.070 C 
BRANCH  14  17
ATOM     15  N   LIG    1        6.578   5.599   1.987  0.00  0.00    -0.730 N 
ATOM     16  H   LIG    1        6.867   4.811   1.501  0.00  0.00    +0.410 HD
ATOM     17  C   LIG    1        5.421   5.576   2.680  0.00  0.00    +0.520 C 
ATOM     18  O   LIG    1        5.059   6.561   3.288  0.00  0.00    -0.530 OA
BRANCH  15  19
ATOM     19  C   LIG    1        7.397   6.813   1.969  0.00  0.00    +0.410 C 
BRANCH  19  21
ATOM     20  C   LIG    1        9.556   6.399   0.496  0.00  0.00    +0.060 C 
ATOM     21  C   LIG    1        8.598   6.583   1.150  0.00  0.00    -0.220 C 
ENDBRANCH  19  21
ENDBRANCH  15  19
ENDBRANCH  14  17
ENDBRANCH  13  14
ENDBRANCH   1  13
BRANCH  11  22
ATOM     22  C   LIG    1       -0.729   1.579   1.267  0.00  0.00    +0.320 C 
BRANCH  22  23
ATOM     23  C   LIG    1       -0.013   1.086   0.008  0.00  0.00    +0.010 C 
BRANCH  23  24
ATOM     24  C   LIG    1       -0.753   1.593  -1.232  0.00  0.00    +0.020 C 
ATOM     25  C   LIG    1       -0.037   1.099  -2.490  0.00  0.00    +0.010 C 
ENDBRANCH  23  24
ENDBRANCH  22  23
ENDBRANCH  11  22
BRANCH  12  26
ATOM     26  C   LIG    1        3.536   2.261   5.592  0.00  0.00    +0.310 C 
BRANCH  26  27
ATOM     27  C   LIG    1        4.827   1.577   5.137  0.00  0.00    -0.040 C 
ATOM     28  C   LIG    1        4.532   0.120   4.776  0.00  0.00    +0.030 C 
ATOM     29  C   LIG    1        5.855   1.623   6.270  0.00  0.00    +0.040 C 
ENDBRANCH  26  27
ENDBRANCH  12  26
TORSDOF 10
