REMARK  Name = ZINCrD000000BIlo.0
REMARK                            x       y       z     vdW  Elec       q    Type
REMARK                         _______ _______ _______ _____ _____    ______ ____
ROOT
ATOM      1  O   LIG    1        1.131   2.868  -0.085  0.00  0.00    -0.580 OA
ATOM      2  C   LIG    1        1.147   1.655   0.000  0.00  0.00    +0.710 C 
ATOM      3  N   LIG    1        2.322   1.001   0.087  0.00  0.00    -0.630 N 
ATOM      4  C   LIG    1        2.372  -0.470   0.081  0.00  0.00    +0.240 C 
ATOM      5  C   LIG    1        3.223  -0.929   1.270  0.00  0.00    +0.220 C 
ATOM      6  O   LIG    1        4.481  -0.251   1.239  0.00  0.00    -0.370 OA
ATOM      7  C   LIG    1        4.384   1.169   1.374  0.00  0.00    +0.190 C 
ATOM      8  C   LIG    1        3.593   1.736   0.185  0.00  0.00    +0.300 C 
ATOM      9  N   LIG    1       -0.011   0.966   0.007  0.00  0.00    -0.740 N 
ATOM     10  H   LIG    1        0.002  -0.004   0.000  0.00  0.00    +0.390 HD
ENDROOT
BRANCH   9  11
ATOM     11  C   LIG    1       -1.290   1.681   0.019  0.00  0.00    +0.250 C 
ATOM     12  C   LIG    1       -1.668   2.031   1.462  0.00  0.00    -0.020 C 
ATOM     13  C   LIG    1       -3.041   2.708   1.471  0.00  0.00    +0.220 C 
ATOM     14  O   LIG    1       -4.003   1.839   0.871  0.00  0.00    -0.360 OA
ATOM     15  C   LIG    1       -3.727   1.514  -0.492  0.00  0.00    +0.130 C 
ATOM     16  C   LIG    1       -3.670   2.798  -1.322  0.00  0.00    -0.010 C 
ATOM     17  C   LIG    1       -5.015   3.521  -1.239  0.00  0.00    +0.010 C 
ATOM     18  C   LIG    1       -6.118   2.610  -1.784  0.00  0.00    +0.000 C 
ATOM     19  C   LIG    1       -6.176   1.327  -0.952  0.00  0.00    +0.010 C 
ATOM     20  C   LIG    1       -4.831   0.604  -1.035  0.00  0.00    +0.050 C 
ATOM     21  C   LIG    1       -2.381   0.789  -0.581  0.00  0.00    +0.010 C 
ENDBRANCH   9  11
BRANCH   7  22
ATOM     22  C   LIG    1        5.766   1.768   1.389  0.00  0.00    -0.070 A 
ATOM     23  C   LIG    1        6.743   1.274   0.544  0.00  0.00    +0.030 A 
ATOM     24  C   LIG    1        8.011   1.825   0.552  0.00  0.00    +0.030 A 
ATOM     25  C   LIG    1        8.308   2.865   1.411  0.00  0.00    -0.010 A 
ATOM     26  C   LIG    1        7.332   3.360   2.264  0.00  0.00    +0.110 A 
ATOM     27  C   LIG    1        6.059   2.808   2.250  0.00  0.00    +0.000 A 
BRANCH  26  28
ATOM     28  O   LIG    1        7.622   4.382   3.110  0.00  0.00    -0.500 OA
ATOM     29  H   LIG    1        7.951   4.097   3.974  0.00  0.00    +0.390 HD
ENDBRANCH  26  28
ENDBRANCH   7  22
TORSDOF 3
