REMARK  Name = ZINCrH00000No4SD.0
REMARK                            x       y       z     vdW  Elec       q    Type
REMARK                         _______ _______ _______ _____ _____    ______ ____
ROOT
ATOM      1  C   LIG    1       -2.497   1.008   0.023  0.00  0.00    +0.140 C 
ATOM      2  C   LIG    1       -3.675   1.669   0.034  0.00  0.00    -0.090 C 
ENDROOT
BRANCH   1   5
ATOM      3  C   LIG    1       -0.057   3.858   0.055  0.00  0.00    +0.140 A 
ATOM      4  C   LIG    1       -1.248   3.158   0.055  0.00  0.00    -0.050 A 
ATOM      5  C   LIG    1       -1.233   1.759   0.030  0.00  0.00    -0.040 A 
ATOM      6  C   LIG    1       -0.013   1.077   0.019  0.00  0.00    +0.030 A 
ATOM      7  C   LIG    1        1.177   1.784   0.019  0.00  0.00    +0.080 A 
ATOM      8  O   LIG    1        2.356   1.103   0.006  0.00  0.00    -0.300 OA
ATOM      9  C   LIG    1        3.522   1.843  -0.367  0.00  0.00    +0.230 C 
ATOM     10  C   LIG    1        3.509   3.176   0.393  0.00  0.00    +0.230 C 
ATOM     11  O   LIG    1        2.319   3.886   0.033  0.00  0.00    -0.290 OA
ATOM     12  C   LIG    1        1.159   3.175   0.036  0.00  0.00    +0.030 A 
BRANCH   3  14
ATOM     13  C   LIG    1       -1.350   5.854   0.091  0.00  0.00    +0.240 C 
ATOM     14  O   LIG    1       -0.071   5.218   0.073  0.00  0.00    -0.300 OA
ENDBRANCH   3  14
ENDBRANCH   1   5
BRANCH   2  15
ATOM     15  C   LIG    1       -4.932   0.923   0.027  0.00  0.00    +0.550 C 
ATOM     16  N   LIG    1       -6.107   1.582   0.038  0.00  0.00    -0.670 N 
ATOM     17  H   LIG    1       -6.120   2.549   0.118  0.00  0.00    +0.410 HD
ATOM     18  O   LIG    1       -4.917  -0.295   0.010  0.00  0.00    -0.520 OA
BRANCH  16  19
ATOM     19  C   LIG    1       -7.309   0.872  -0.067  0.00  0.00    +0.120 A 
ATOM     20  C   LIG    1       -8.385   1.424  -0.750  0.00  0.00    +0.020 A 
ATOM     21  C   LIG    1       -9.568   0.721  -0.858  0.00  0.00    -0.030 A 
ATOM     22  C   LIG    1       -9.687  -0.532  -0.274  0.00  0.00    +0.090 A 
ATOM     23  C   LIG    1       -8.615  -1.081   0.414  0.00  0.00    +0.030 A 
ATOM     24  C   LIG    1       -7.429  -0.382   0.518  0.00  0.00    +0.060 A 
BRANCH  22  25
ATOM     25  O   LIG    1      -10.854  -1.221  -0.375  0.00  0.00    -0.320 OA
BRANCH  25  26
ATOM     26  C   LIG    1      -11.917  -0.595  -1.098  0.00  0.00    +0.590 C 
ATOM     27  F   LIG    1      -11.507  -0.354  -2.414  0.00  0.00    -0.200 F 
ATOM     28  F   LIG    1      -12.248   0.617  -0.483  0.00  0.00    -0.200 F 
ENDBRANCH  25  26
ENDBRANCH  22  25
ENDBRANCH  16  19
ENDBRANCH   2  15
TORSDOF 6
