REMARK  Name = ZINCpk00000y6x0W.0
REMARK                            x       y       z     vdW  Elec       q    Type
REMARK                         _______ _______ _______ _____ _____    ______ ____
ROOT
ATOM      1  C   LIG    1       -0.013   1.086   0.008  0.00  0.00    +0.180 C 
ATOM      2  C   LIG    1       -0.648   1.623  -1.293  0.00  0.00    +0.070 C 
ATOM      3  C   LIG    1        0.542   1.904  -2.233  0.00  0.00    +0.170 C 
ATOM      4  C   LIG    1        1.796   1.513  -1.422  0.00  0.00    +0.160 C 
ATOM      5  N   LIG    1        1.372   1.623  -0.002  0.00  0.00    -0.480 NA
ENDROOT
BRANCH   1  10
ATOM      6  C   LIG    1       -2.330   1.228   2.990  0.00  0.00    +0.120 A 
ATOM      7  C   LIG    1       -2.142   2.533   3.421  0.00  0.00    -0.080 A 
ATOM      8  C   LIG    1       -1.267   3.363   2.747  0.00  0.00    +0.050 A 
ATOM      9  C   LIG    1       -0.579   2.894   1.643  0.00  0.00    +0.000 A 
ATOM     10  C   LIG    1       -0.764   1.594   1.212  0.00  0.00    -0.040 A 
ATOM     11  C   LIG    1       -1.641   0.761   1.879  0.00  0.00    -0.020 A 
BRANCH   6  13
ATOM     12  C   LIG    1       -3.869   0.959   4.782  0.00  0.00    +0.250 C 
ATOM     13  O   LIG    1       -3.190   0.410   3.650  0.00  0.00    -0.320 OA
ENDBRANCH   6  13
ENDBRANCH   1  10
BRANCH   3  14
ATOM     14  O   LIG    1        0.445   1.103  -3.413  0.00  0.00    -0.570 OA
ATOM     15  H   LIG    1        1.189   1.206  -4.021  0.00  0.00    +0.380 HD
ENDBRANCH   3  14
BRANCH   5  16
ATOM     16  C   LIG    1        2.250   0.833   0.871  0.00  0.00    +0.220 C 
BRANCH  16  17
ATOM     17  C   LIG    1        3.682   1.245   0.651  0.00  0.00    +0.520 C 
ATOM     18  N   LIG    1        4.670   0.651   1.349  0.00  0.00    -0.650 N 
ATOM     19  H   LIG    1        4.459  -0.043   1.993  0.00  0.00    +0.410 HD
ATOM     20  O   LIG    1        3.946   2.113  -0.155  0.00  0.00    -0.490 OA
BRANCH  18  21
ATOM     21  C   LIG    1        5.996   1.033   1.145  0.00  0.00    +0.300 A 
ATOM     22  C   LIG    1        6.434   1.987   0.277  0.00  0.00    -0.100 A 
ATOM     23  C   LIG    1        7.825   2.056   0.385  0.00  0.00    +0.090 A 
ATOM     24  N   LIG    1        8.213   1.182   1.278  0.00  0.00    -0.290 NA
ATOM     25  C   LIG    1        8.725   2.979  -0.396  0.00  0.00    +0.160 C 
ATOM     26  N   LIG    1        7.080   0.527   1.776  0.00  0.00    -0.390 N 
ATOM     27  C   LIG    1        7.070  -0.522   2.799  0.00  0.00    +0.360 C 
ENDBRANCH  18  21
ENDBRANCH  16  17
ENDBRANCH   5  16
TORSDOF 6
