REMARK  Name = ZINCvU0000000D2x.0
REMARK                            x       y       z     vdW  Elec       q    Type
REMARK                         _______ _______ _______ _____ _____    ______ ____
ROOT
ATOM      1  N   LIG    1       -4.824   2.146   0.038  0.00  0.00    -0.520 NA
ATOM      2  C   LIG    1       -3.544   2.461   0.033  0.00  0.00    +0.390 A 
ATOM      3  S   LIG    1       -2.836   4.087   0.038  0.00  0.00    +0.020 S 
ATOM      4  C   LIG    1       -1.158   3.514   0.032  0.00  0.00    -0.020 A 
ATOM      5  C   LIG    1       -1.231   2.174   0.020  0.00  0.00    +0.190 A 
ATOM      6  N   LIG    1       -2.479   1.606   0.024  0.00  0.00    -0.500 N 
ENDROOT
BRANCH   5   7
ATOM      7  C   LIG    1       -0.016   1.344   0.009  0.00  0.00    +0.090 A 
ATOM      8  C   LIG    1        1.255   1.821  -0.000  0.00  0.00    +0.000 A 
ATOM      9  C   LIG    1        2.129   0.646  -0.015  0.00  0.00    -0.130 A 
ATOM     10  C   LIG    1        3.512   0.463  -0.029  0.00  0.00    +0.060 A 
ATOM     11  C   LIG    1        4.030  -0.814  -0.040  0.00  0.00    -0.010 A 
ATOM     12  C   LIG    1        3.182  -1.912  -0.038  0.00  0.00    +0.050 A 
ATOM     13  C   LIG    1        1.813  -1.745  -0.024  0.00  0.00    +0.020 A 
ATOM     14  C   LIG    1        1.269  -0.468  -0.013  0.00  0.00    +0.060 A 
ATOM     15  O   LIG    1        0.002  -0.004   0.002  0.00  0.00    -0.170 OA
ENDBRANCH   5   7
BRANCH   1  19
ATOM     16  C   LIG    1       -7.693   5.131   0.069  0.00  0.00    +0.090 A 
ATOM     17  C   LIG    1       -7.832   4.048  -0.787  0.00  0.00    +0.030 A 
ATOM     18  C   LIG    1       -6.878   3.051  -0.801  0.00  0.00    +0.060 A 
ATOM     19  C   LIG    1       -5.772   3.133   0.048  0.00  0.00    +0.100 A 
ATOM     20  C   LIG    1       -5.640   4.223   0.911  0.00  0.00    +0.010 A 
ATOM     21  C   LIG    1       -6.596   5.217   0.915  0.00  0.00    -0.020 A 
BRANCH  16  22
ATOM     22  O   LIG    1       -8.636   6.112   0.080  0.00  0.00    -0.320 OA
BRANCH  22  24
ATOM     23  F   LIG    1       -8.382   6.710   2.295  0.00  0.00    -0.200 F 
ATOM     24  C   LIG    1       -8.432   7.198   0.985  0.00  0.00    +0.590 C 
ATOM     25  F   LIG    1       -7.226   7.839   0.680  0.00  0.00    -0.200 F 
ENDBRANCH  22  24
ENDBRANCH  16  22
ENDBRANCH   1  19
BRANCH   6  26
ATOM     26  C   LIG    1       -2.661   0.153   0.018  0.00  0.00    +0.330 C 
BRANCH  26  27
ATOM     27  C   LIG    1       -2.718  -0.360   1.458  0.00  0.00    +0.130 C 
ATOM     28  C   LIG    1       -2.909  -1.889   1.463  0.00  0.00    +0.010 C 
ATOM     29  C   LIG    1       -1.682  -2.423   2.240  0.00  0.00    +0.010 C 
ATOM     30  C   LIG    1       -1.236  -1.173   3.041  0.00  0.00    +0.200 C 
ATOM     31  O   LIG    1       -1.474  -0.083   2.124  0.00  0.00    -0.360 OA
ENDBRANCH  26  27
ENDBRANCH   6  26
TORSDOF 6
