REMARK  Name = ZINCvU00000007Uk.0
REMARK                            x       y       z     vdW  Elec       q    Type
REMARK                         _______ _______ _______ _____ _____    ______ ____
ROOT
ATOM      1  C   LIG    1        4.413   4.228  -1.393  0.00  0.00    +0.190 C 
ENDROOT
BRANCH   1   2
ATOM      2  C   LIG    1        3.857   4.948  -2.594  0.00  0.00    -0.090 A 
ATOM      3  C   LIG    1        3.115   4.256  -3.534  0.00  0.00    +0.060 A 
ATOM      4  C   LIG    1        2.602   4.918  -4.633  0.00  0.00    +0.000 A 
ATOM      5  C   LIG    1        2.837   6.271  -4.798  0.00  0.00    +0.010 A 
ATOM      6  C   LIG    1        3.583   6.962  -3.861  0.00  0.00    +0.000 A 
ATOM      7  C   LIG    1        4.093   6.300  -2.760  0.00  0.00    +0.000 A 
ENDBRANCH   1   2
BRANCH   1  10
ATOM      8  N   LIG    1        6.721   4.161  -2.280  0.00  0.00    -0.660 N 
ATOM      9  H   LIG    1        6.650   5.112  -2.456  0.00  0.00    +0.410 HD
ATOM     10  C   LIG    1        5.664   3.486  -1.787  0.00  0.00    +0.520 C 
ATOM     11  O   LIG    1        5.719   2.280  -1.661  0.00  0.00    -0.500 OA
BRANCH   8  17
ATOM     12  C   LIG    1        9.740   0.388  -1.371  0.00  0.00    +0.100 C 
ATOM     13  C   LIG    1        9.411   1.659  -2.112  0.00  0.00    -0.070 A 
ATOM     14  C   LIG    1       10.296   2.163  -3.047  0.00  0.00    -0.010 A 
ATOM     15  C   LIG    1        9.997   3.329  -3.728  0.00  0.00    +0.030 A 
ATOM     16  C   LIG    1        8.813   3.994  -3.476  0.00  0.00    -0.120 A 
ATOM     17  C   LIG    1        7.922   3.490  -2.538  0.00  0.00    +0.150 A 
ATOM     18  C   LIG    1        8.489   5.264  -4.218  0.00  0.00    +0.080 C 
ATOM     19  C   LIG    1        8.227   2.322  -1.851  0.00  0.00    +0.010 A 
ENDBRANCH   8  17
ENDBRANCH   1  10
BRANCH   1  20
ATOM     20  N   LIG    1        3.416   3.274  -0.890  0.00  0.00    -0.660 NA
ATOM     21  H   LIG    1        3.862   2.487  -0.442  0.00  0.00    +0.360 HD
BRANCH  20  22
ATOM     22  C   LIG    1        2.470   3.932   0.022  0.00  0.00    +0.220 C 
ATOM     23  C   LIG    1        3.059   3.961   1.433  0.00  0.00    +0.010 C 
BRANCH  22  24
ATOM     24  C   LIG    1        1.171   3.169   0.035  0.00  0.00    -0.060 A 
ATOM     25  C   LIG    1        1.182   1.787   0.022  0.00  0.00    +0.040 A 
ATOM     26  C   LIG    1       -0.008   1.084   0.033  0.00  0.00    +0.020 A 
ATOM     27  C   LIG    1       -1.216   1.763   0.053  0.00  0.00    +0.050 A 
ATOM     28  O   LIG    1       -2.380   1.057   0.053  0.00  0.00    -0.310 OA
ATOM     29  C   LIG    1       -3.560   1.762   0.453  0.00  0.00    +0.220 C 
ATOM     30  C   LIG    1       -3.580   3.115  -0.273  0.00  0.00    +0.220 C 
ATOM     31  O   LIG    1       -2.402   3.840   0.108  0.00  0.00    -0.310 OA
ATOM     32  C   LIG    1       -1.228   3.153   0.074  0.00  0.00    +0.050 A 
ATOM     33  C   LIG    1       -0.030   3.853   0.061  0.00  0.00    +0.020 A 
ENDBRANCH  22  24
ENDBRANCH  20  22
ENDBRANCH   1  20
TORSDOF 6
