REMARK  Name = ZINCnE000001TzRF.0
REMARK                            x       y       z     vdW  Elec       q    Type
REMARK                         _______ _______ _______ _____ _____    ______ ____
ROOT
ATOM      1  N   LIG    1        3.635   1.755  -0.023  0.00  0.00    -0.660 N 
ATOM      2  H   LIG    1        3.622   2.722  -0.092  0.00  0.00    +0.410 HD
ATOM      3  C   LIG    1        2.478   1.064  -0.013  0.00  0.00    +0.550 C 
ATOM      4  O   LIG    1        2.495  -0.151  -0.011  0.00  0.00    -0.520 OA
ENDROOT
BRANCH   3   5
ATOM      5  C   LIG    1        1.187   1.784  -0.006  0.00  0.00    -0.130 A 
ATOM      6  C   LIG    1        1.160   3.180  -0.009  0.00  0.00    +0.040 A 
ATOM      7  C   LIG    1       -0.049   3.837   0.001  0.00  0.00    +0.000 A 
ATOM      8  C   LIG    1       -1.244   3.127   0.013  0.00  0.00    -0.050 A 
ATOM      9  C   LIG    1       -2.527   3.918   0.039  0.00  0.00    +0.080 C 
ATOM     10  C   LIG    1       -3.704   3.044  -0.399  0.00  0.00    +0.020 C 
ATOM     11  C   LIG    1       -3.681   1.759   0.437  0.00  0.00    +0.020 C 
ATOM     12  C   LIG    1       -2.483   0.920  -0.003  0.00  0.00    +0.080 C 
ATOM     13  C   LIG    1       -1.225   1.748   0.005  0.00  0.00    -0.090 A 
ATOM     14  C   LIG    1       -0.013   1.076   0.004  0.00  0.00    +0.080 A 
ENDBRANCH   3   5
BRANCH   1  18
ATOM     15  C   LIG    1        7.268  -0.264   0.247  0.00  0.00    -0.030 A 
ATOM     16  C   LIG    1        6.212  -0.834  -0.440  0.00  0.00    +0.020 A 
ATOM     17  C   LIG    1        5.006  -0.167  -0.531  0.00  0.00    +0.020 A 
ATOM     18  C   LIG    1        4.855   1.077   0.068  0.00  0.00    +0.110 A 
ATOM     19  C   LIG    1        5.919   1.648   0.753  0.00  0.00    -0.020 A 
ATOM     20  C   LIG    1        7.121   0.974   0.844  0.00  0.00    +0.020 A 
BRANCH  15  21
ATOM     21  C   LIG    1        8.583  -0.995   0.344  0.00  0.00    -0.020 C 
BRANCH  21  23
ATOM     22  O   LIG    1        9.054   0.184  -1.651  0.00  0.00    -0.690 OA
ATOM     23  C   LIG    1        9.459  -0.610  -0.820  0.00  0.00    +0.500 C 
ATOM     24  O   LIG    1       10.573  -1.092  -0.930  0.00  0.00    -0.700 OA
ENDBRANCH  21  23
ENDBRANCH  15  21
ENDBRANCH   1  18
TORSDOF 4
