REMARK  Name = ZINCqH0000006YWB.0
REMARK                            x       y       z     vdW  Elec       q    Type
REMARK                         _______ _______ _______ _____ _____    ______ ____
ROOT
ATOM      1  C   LIG    1        3.658   2.175  -0.021  0.00  0.00    +0.020 A 
ATOM      2  C   LIG    1        4.653   1.926   0.831  0.00  0.00    -0.040 A 
ATOM      3  S   LIG    1        6.008   3.002   0.546  0.00  0.00    +0.190 S 
ATOM      4  C   LIG    1        5.176   3.817  -0.769  0.00  0.00    +0.060 A 
ATOM      5  N   LIG    1        5.570   4.858  -1.583  0.00  0.00    -0.590 N 
ATOM      6  H   LIG    1        6.446   5.256  -1.461  0.00  0.00    +0.420 HD
ATOM      7  C   LIG    1        4.748   5.335  -2.552  0.00  0.00    +0.500 A 
ATOM      8  N   LIG    1        3.551   4.836  -2.764  0.00  0.00    -0.570 NA
ATOM      9  C   LIG    1        3.078   3.824  -2.026  0.00  0.00    +0.540 A 
ATOM     10  O   LIG    1        1.963   3.373  -2.236  0.00  0.00    -0.470 OA
ATOM     11  C   LIG    1        3.924   3.260  -0.955  0.00  0.00    -0.220 A 
ENDROOT
BRANCH   1  15
ATOM     12  C   LIG    1        0.002  -0.004   0.002  0.00  0.00    +0.110 A 
ATOM     13  C   LIG    1       -0.017   1.382   0.010  0.00  0.00    -0.030 A 
ATOM     14  C   LIG    1        1.168   2.091   0.002  0.00  0.00    +0.080 A 
ATOM     15  C   LIG    1        2.386   1.414  -0.013  0.00  0.00    -0.040 A 
ATOM     16  C   LIG    1        2.406   0.020  -0.021  0.00  0.00    -0.010 A 
ATOM     17  C   LIG    1        1.216  -0.686  -0.013  0.00  0.00    +0.090 A 
BRANCH  12  19
ATOM     18  C   LIG    1       -2.375   0.064   0.024  0.00  0.00    +0.240 C 
ATOM     19  O   LIG    1       -1.167  -0.699   0.009  0.00  0.00    -0.310 OA
ENDBRANCH  12  19
BRANCH  17  20
ATOM     20  O   LIG    1        1.232  -2.046  -0.021  0.00  0.00    -0.310 OA
ATOM     21  C   LIG    1        2.513  -2.680  -0.037  0.00  0.00    +0.230 C 
ENDBRANCH  17  20
ENDBRANCH   1  15
BRANCH   7  22
ATOM     22  C   LIG    1        5.216   6.452  -3.399  0.00  0.00    -0.140 A 
ATOM     23  C   LIG    1        4.398   6.971  -4.409  0.00  0.00    +0.160 A 
ATOM     24  C   LIG    1        4.883   8.018  -5.174  0.00  0.00    -0.020 A 
ATOM     25  C   LIG    1        6.149   8.513  -4.918  0.00  0.00    +0.300 A 
ATOM     26  N   LIG    1        6.899   8.004  -3.959  0.00  0.00    -0.480 NA
ATOM     27  C   LIG    1        6.480   7.012  -3.201  0.00  0.00    +0.300 A 
ENDBRANCH   7  22
TORSDOF 4
