REMARK  Name = ZINCvU0000000FD7.0
REMARK                            x       y       z     vdW  Elec       q    Type
REMARK                         _______ _______ _______ _____ _____    ______ ____
ROOT
ATOM      1  N   LIG    1       -1.230   2.160   0.021  0.00  0.00    -0.610 N 
ATOM      2  C   LIG    1       -0.071   1.473   0.029  0.00  0.00    +0.510 C 
ATOM      3  O   LIG    1        0.986   2.067   0.037  0.00  0.00    -0.500 OA
ATOM      4  C   LIG    1       -2.504   1.448  -0.104  0.00  0.00    +0.280 C 
ENDROOT
BRANCH   1   5
ATOM      5  C   LIG    1       -1.216   3.621   0.138  0.00  0.00    +0.350 C 
BRANCH   5   7
ATOM      6  C   LIG    1       -0.155   4.443  -1.960  0.00  0.00    +0.160 A 
ATOM      7  C   LIG    1       -1.294   4.235  -1.236  0.00  0.00    -0.150 A 
ATOM      8  C   LIG    1       -2.538   4.592  -1.781  0.00  0.00    +0.000 A 
ATOM      9  C   LIG    1       -3.732   4.388  -1.067  0.00  0.00    +0.000 A 
ATOM     10  C   LIG    1       -4.920   4.745  -1.626  0.00  0.00    +0.020 A 
ATOM     11  C   LIG    1       -4.973   5.312  -2.898  0.00  0.00    -0.010 A 
ATOM     12  C   LIG    1       -3.837   5.534  -3.614  0.00  0.00    +0.040 A 
ATOM     13  C   LIG    1       -2.592   5.173  -3.073  0.00  0.00    -0.090 A 
ATOM     14  C   LIG    1       -1.399   5.373  -3.790  0.00  0.00    +0.070 A 
ATOM     15  C   LIG    1       -0.211   5.013  -3.237  0.00  0.00    -0.070 A 
BRANCH   6  16
ATOM     16  O   LIG    1        1.048   4.093  -1.434  0.00  0.00    -0.280 OA
BRANCH  16  17
ATOM     17  C   LIG    1        2.203   4.335  -2.239  0.00  0.00    +0.180 C 
BRANCH  17  19
ATOM     18  C   LIG    1        4.692   4.139  -2.348  0.00  0.00    +0.020 C 
ATOM     19  C   LIG    1        3.454   3.880  -1.486  0.00  0.00    +0.030 C 
ENDBRANCH  17  19
ENDBRANCH  16  17
ENDBRANCH   6  16
ENDBRANCH   5   7
ENDBRANCH   1   5
BRANCH   2  20
ATOM     20  C   LIG    1       -0.089  -0.034   0.021  0.00  0.00    +0.160 C 
BRANCH  20  21
ATOM     21  C   LIG    1        1.325  -0.553   0.025  0.00  0.00    +0.020 A 
ATOM     22  C   LIG    1        2.072  -0.826  -1.060  0.00  0.00    -0.020 A 
ATOM     23  O   LIG    1        3.271  -1.263  -0.623  0.00  0.00    -0.190 OA
ATOM     24  C   LIG    1        3.241  -1.262   0.722  0.00  0.00    +0.260 A 
ATOM     25  C   LIG    1        1.648  -0.668  -2.497  0.00  0.00    +0.190 C 
ATOM     26  N   LIG    1        2.061  -0.832   1.113  0.00  0.00    -0.450 NA
BRANCH  24  27
ATOM     27  C   LIG    1        4.342  -1.672   1.606  0.00  0.00    -0.140 A 
ATOM     28  C   LIG    1        5.561  -2.116   1.192  0.00  0.00    +0.050 A 
ATOM     29  C   LIG    1        6.427  -2.441   2.213  0.00  0.00    +0.010 A 
ATOM     30  C   LIG    1        5.940  -2.270   3.447  0.00  0.00    -0.040 A 
ATOM     31  S   LIG    1        4.294  -1.659   3.364  0.00  0.00    +0.210 S 
ENDBRANCH  24  27
ENDBRANCH  20  21
ENDBRANCH   2  20
TORSDOF 8
