REMARK  Name = ZINCrH000004sDfZ.0
REMARK                            x       y       z     vdW  Elec       q    Type
REMARK                         _______ _______ _______ _____ _____    ______ ____
ROOT
ATOM      1  C   LIG    1       -3.190   2.406  -1.450  0.00  0.00    +0.510 C 
ATOM      2  N   LIG    1       -2.183   1.902  -0.710  0.00  0.00    -0.610 N 
ATOM      3  C   LIG    1       -2.264   1.534   0.716  0.00  0.00    +0.250 C 
ATOM      4  C   LIG    1       -0.802   1.617   1.234  0.00  0.00    +0.040 C 
ATOM      5  C   LIG    1       -0.013   1.086   0.008  0.00  0.00    +0.040 C 
ATOM      6  C   LIG    1       -0.821   1.627  -1.190  0.00  0.00    +0.170 C 
ATOM      7  C   LIG    1       -0.179   2.916  -1.710  0.00  0.00    +0.040 C 
ATOM      8  O   LIG    1       -3.009   2.673  -2.619  0.00  0.00    -0.510 OA
ENDROOT
BRANCH   1   9
ATOM      9  C   LIG    1       -4.542   2.638  -0.825  0.00  0.00    +0.330 C 
BRANCH   9  15
ATOM     10  C   LIG    1       -6.200   0.979  -2.849  0.00  0.00    +0.170 C 
ATOM     11  C   LIG    1       -6.187   2.480  -2.718  0.00  0.00    +0.220 A 
ATOM     12  N   LIG    1       -6.880   3.313  -3.446  0.00  0.00    -0.490 NA
ATOM     13  C   LIG    1       -6.618   4.568  -3.051  0.00  0.00    +0.150 A 
ATOM     14  C   LIG    1       -5.735   4.510  -2.037  0.00  0.00    +0.120 A 
ATOM     15  N   LIG    1       -5.457   3.186  -1.829  0.00  0.00    -0.450 N 
ENDBRANCH   9  15
ENDBRANCH   1   9
BRANCH   6  16
ATOM     16  C   LIG    1       -0.863   0.581  -2.305  0.00  0.00    +0.090 C 
BRANCH  16  17
ATOM     17  C   LIG    1        0.538   0.293  -2.778  0.00  0.00    -0.090 A 
ATOM     18  C   LIG    1        1.082   1.030  -3.814  0.00  0.00    +0.060 A 
ATOM     19  C   LIG    1        2.369   0.772  -4.245  0.00  0.00    -0.060 A 
ATOM     20  C   LIG    1        3.111  -0.235  -3.646  0.00  0.00    +0.100 A 
ATOM     21  C   LIG    1        2.562  -0.977  -2.611  0.00  0.00    +0.020 A 
ATOM     22  C   LIG    1        1.276  -0.711  -2.179  0.00  0.00    +0.060 A 
BRANCH  20  23
ATOM     23  O   LIG    1        4.376  -0.494  -4.072  0.00  0.00    -0.310 OA
BRANCH  23  24
ATOM     24  C   LIG    1        4.877   0.309  -5.143  0.00  0.00    +0.600 C 
ATOM     25  F   LIG    1        4.061   0.149  -6.267  0.00  0.00    -0.160 F 
ATOM     26  F   LIG    1        6.182  -0.088  -5.453  0.00  0.00    -0.130 F 
ATOM     27  F   LIG    1        4.879   1.654  -4.755  0.00  0.00    -0.160 F 
ENDBRANCH  23  24
ENDBRANCH  20  23
ENDBRANCH  16  17
ENDBRANCH   6  16
TORSDOF 6
