REMARK  Name = ZINCrD0000075J7q.0
REMARK                            x       y       z     vdW  Elec       q    Type
REMARK                         _______ _______ _______ _____ _____    ______ ____
ROOT
ATOM      1  O   LIG    1        1.313   1.274  -4.142  0.00  0.00    -0.500 OA
ATOM      2  C   LIG    1        1.063   1.237  -2.952  0.00  0.00    +0.590 C 
ATOM      3  N   LIG    1        2.004   0.831  -2.077  0.00  0.00    -0.710 N 
ATOM      4  H   LIG    1        1.785   0.737  -1.137  0.00  0.00    +0.410 HD
ENDROOT
BRANCH   3   5
ATOM      5  C   LIG    1        3.360   0.531  -2.546  0.00  0.00    +0.240 C 
ATOM      6  C   LIG    1        4.158   1.824  -2.630  0.00  0.00    -0.000 C 
ATOM      7  C   LIG    1        5.513   1.654  -3.284  0.00  0.00    +0.240 C 
ATOM      8  O   LIG    1        6.364   0.821  -2.489  0.00  0.00    -0.330 OA
ATOM      9  C   LIG    1        6.251  -0.518  -2.712  0.00  0.00    +0.100 A 
ATOM     10  C   LIG    1        7.271  -1.197  -3.366  0.00  0.00    +0.000 A 
ATOM     11  C   LIG    1        7.134  -2.546  -3.632  0.00  0.00    +0.030 A 
ATOM     12  C   LIG    1        5.989  -3.218  -3.249  0.00  0.00    +0.000 A 
ATOM     13  C   LIG    1        4.976  -2.543  -2.590  0.00  0.00    +0.030 A 
ATOM     14  C   LIG    1        5.116  -1.197  -2.320  0.00  0.00    -0.120 A 
ATOM     15  C   LIG    1        4.020  -0.453  -1.581  0.00  0.00    +0.090 C 
ENDBRANCH   3   5
BRANCH   2  16
ATOM     16  C   LIG    1       -0.265   1.635  -2.468  0.00  0.00    -0.010 A 
ATOM     17  C   LIG    1       -0.682   2.901  -2.161  0.00  0.00    -0.040 A 
ATOM     18  N   LIG    1       -1.953   2.827  -1.761  0.00  0.00    -0.450 NA
ATOM     19  C   LIG    1       -2.355   1.586  -1.801  0.00  0.00    +0.250 A 
ATOM     20  C   LIG    1       -3.722   1.058  -1.433  0.00  0.00    +0.170 C 
ATOM     21  C   LIG    1       -3.861  -0.358  -2.006  0.00  0.00    +0.040 C 
ATOM     22  C   LIG    1       -2.620  -1.179  -1.637  0.00  0.00    +0.040 C 
ATOM     23  C   LIG    1       -1.409  -0.643  -2.408  0.00  0.00    +0.290 C 
ATOM     24  N   LIG    1       -1.340   0.810  -2.233  0.00  0.00    -0.420 N 
BRANCH  17  25
ATOM     25  C   LIG    1        0.147   4.157  -2.257  0.00  0.00    +0.550 C 
ATOM     26  F   LIG    1        1.492   3.845  -2.034  0.00  0.00    -0.170 F 
ATOM     27  F   LIG    1       -0.285   5.075  -1.293  0.00  0.00    -0.160 F 
ATOM     28  F   LIG    1        0.002   4.715  -3.531  0.00  0.00    -0.170 F 
ENDBRANCH  17  25
ENDBRANCH   2  16
TORSDOF 3
