REMARK  Name = ZINCpe000000WxWm.0
REMARK                            x       y       z     vdW  Elec       q    Type
REMARK                         _______ _______ _______ _____ _____    ______ ____
ROOT
ATOM      1  C   LIG    1        3.542   0.861  -0.028  0.00  0.00    +0.310 C 
ENDROOT
BRANCH   1   2
ATOM      2  N   LIG    1        2.080   0.764  -0.014  0.00  0.00    -0.410 N 
ATOM      3  C   LIG    1        1.209   1.791   0.000  0.00  0.00    +0.500 A 
ATOM      4  N   LIG    1       -0.016   1.331   0.009  0.00  0.00    -0.500 NA
ATOM      5  C   LIG    1        0.002  -0.004   0.002  0.00  0.00    +0.320 A 
ATOM      6  N   LIG    1       -0.983  -0.978   0.006  0.00  0.00    -0.510 N 
ATOM      7  C   LIG    1       -2.396  -0.590   0.021  0.00  0.00    +0.340 C 
ATOM      8  C   LIG    1       -0.644  -2.281  -0.004  0.00  0.00    +0.710 A 
ATOM      9  O   LIG    1       -1.523  -3.122  -0.001  0.00  0.00    -0.530 OA
ATOM     10  N   LIG    1        0.641  -2.676  -0.019  0.00  0.00    -0.550 N 
ATOM     11  C   LIG    1        0.956  -4.107  -0.029  0.00  0.00    +0.350 C 
ATOM     12  C   LIG    1        1.645  -1.775  -0.023  0.00  0.00    +0.590 A 
ATOM     13  O   LIG    1        2.805  -2.145  -0.035  0.00  0.00    -0.510 OA
ATOM     14  C   LIG    1        1.334  -0.398  -0.013  0.00  0.00    -0.150 A 
ENDBRANCH   1   2
BRANCH   1  15
ATOM     15  C   LIG    1        4.045   0.777  -1.470  0.00  0.00    +0.260 C 
BRANCH  15  16
ATOM     16  N   LIG    1        5.506   0.874  -1.485  0.00  0.00    -0.740 N 
ATOM     17  H   LIG    1        5.994   0.975  -0.652  0.00  0.00    +0.400 HD
BRANCH  16  22
ATOM     18  C   LIG    1        8.266   0.862  -3.917  0.00  0.00    +0.170 A 
ATOM     19  C   LIG    1        7.564   0.718  -5.105  0.00  0.00    -0.130 A 
ATOM     20  C   LIG    1        6.185   0.627  -5.089  0.00  0.00    +0.080 A 
ATOM     21  C   LIG    1        5.501   0.673  -3.890  0.00  0.00    -0.110 A 
ATOM     22  C   LIG    1        6.198   0.822  -2.697  0.00  0.00    +0.250 A 
ATOM     23  C   LIG    1        7.583   0.914  -2.712  0.00  0.00    -0.190 A 
ATOM     24  C   LIG    1        8.343   1.070  -1.419  0.00  0.00    +0.080 C 
BRANCH  18  26
ATOM     25  C   LIG    1       10.259   0.891  -5.212  0.00  0.00    +0.250 C 
ATOM     26  O   LIG    1        9.621   0.952  -3.934  0.00  0.00    -0.310 OA
ENDBRANCH  18  26
ENDBRANCH  16  22
ENDBRANCH  15  16
ENDBRANCH   1  15
TORSDOF 5
