REMARK  Name = ZINCc70000001mQ2.0
REMARK                            x       y       z     vdW  Elec       q    Type
REMARK                         _______ _______ _______ _____ _____    ______ ____
ROOT
ATOM      1  N   LIG    1        1.302   2.020   0.653  0.00  0.00    -0.590 N 
ATOM      2  H   LIG    1        2.092   1.460   0.590  0.00  0.00    +0.410 HD
ATOM      3  C   LIG    1        1.405   3.352   0.480  0.00  0.00    +0.610 C 
ATOM      4  O   LIG    1        0.404   4.042   0.458  0.00  0.00    -0.520 OA
ENDROOT
BRANCH   3   5
ATOM      5  C   LIG    1        2.730   3.973   0.319  0.00  0.00    -0.030 A 
ATOM      6  C   LIG    1        3.948   3.322   0.233  0.00  0.00    -0.030 A 
ATOM      7  C   LIG    1        4.899   4.334   0.086  0.00  0.00    +0.190 A 
ATOM      8  N   LIG    1        4.269   5.481   0.094  0.00  0.00    -0.270 NA
ATOM      9  N   LIG    1        3.003   5.309   0.228  0.00  0.00    -0.250 N 
ATOM     10  C   LIG    1        2.006   6.380   0.277  0.00  0.00    +0.380 C 
ENDBRANCH   3   5
BRANCH   1  11
ATOM     11  O   LIG    1        0.042   1.436   0.926  0.00  0.00    -0.140 OA
BRANCH  11  13
ATOM     12  C   LIG    1       -1.329  -0.502   1.377  0.00  0.00    +0.070 C 
ATOM     13  C   LIG    1        0.080   0.017   1.086  0.00  0.00    +0.170 C 
ENDBRANCH  11  13
ENDBRANCH   1  11
TORSDOF 3
