REMARK  Name = ZINCrg000000ro4G.0
REMARK                            x       y       z     vdW  Elec       q    Type
REMARK                         _______ _______ _______ _____ _____    ______ ____
ROOT
ATOM      1  C   LIG    1       -3.302   2.496   0.047  0.00  0.00    +0.290 A 
ATOM      2  N   LIG    1       -2.535   3.547   0.044  0.00  0.00    -0.480 NA
ATOM      3  C   LIG    1       -1.233   3.162   0.030  0.00  0.00    +0.030 A 
ATOM      4  C   LIG    1       -0.022   3.859   0.022  0.00  0.00    +0.200 A 
ATOM      5  C   LIG    1        1.159   3.172   0.007  0.00  0.00    -0.680 A 
ATOM      6  C   LIG    1        1.170   1.785   0.001  0.00  0.00    +0.130 A 
ATOM      7  C   LIG    1       -0.013   1.076   0.008  0.00  0.00    +0.010 A 
ATOM      8  C   LIG    1       -1.222   1.757   0.017  0.00  0.00    +0.090 A 
ATOM      9  N   LIG    1       -2.546   1.365   0.034  0.00  0.00    -0.490 N 
ATOM     10  C   LIG    1       -3.044  -0.013   0.033  0.00  0.00    +0.330 C 
ENDROOT
BRANCH   5  11
ATOM     11  S   LIG    1        2.682   4.057  -0.003  0.00  0.00    +2.700 S 
ATOM     12  O   LIG    1        3.662   3.175   0.529  0.00  0.00    -0.950 OA
ATOM     13  O   LIG    1        2.406   5.337   0.550  0.00  0.00    -0.950 OA
BRANCH  11  14
ATOM     14  N   LIG    1        3.091   4.311  -1.587  0.00  0.00    -1.010 NA
ATOM     15  C   LIG    1        3.910   3.326  -2.299  0.00  0.00    +0.300 C 
ATOM     16  C   LIG    1        2.635   5.520  -2.277  0.00  0.00    +0.300 C 
ENDBRANCH  11  14
ENDBRANCH   5  11
BRANCH   1  17
ATOM     17  C   LIG    1       -4.809   2.526   0.062  0.00  0.00    +0.180 C 
BRANCH  17  18
ATOM     18  C   LIG    1       -5.332   2.544  -1.376  0.00  0.00    +0.070 C 
BRANCH  18  25
ATOM     19  C   LIG    1      -11.008   1.644  -3.649  0.00  0.00    +0.070 C 
ATOM     20  C   LIG    1       -9.494   1.516  -3.467  0.00  0.00    +0.130 C 
ATOM     21  C   LIG    1       -8.995   2.624  -2.533  0.00  0.00    +0.260 C 
ATOM     22  N   LIG    1       -7.524   2.594  -2.522  0.00  0.00    -0.620 N 
ATOM     23  C   LIG    1       -6.822   2.592  -3.816  0.00  0.00    +0.250 C 
ATOM     24  C   LIG    1       -7.428   1.480  -4.687  0.00  0.00    +0.220 C 
ATOM     25  C   LIG    1       -6.839   2.574  -1.361  0.00  0.00    +0.520 C 
ATOM     26  O   LIG    1       -7.435   2.582  -0.305  0.00  0.00    -0.530 OA
ATOM     27  O   LIG    1       -8.847   1.642  -4.735  0.00  0.00    -0.370 OA
ENDBRANCH  18  25
ENDBRANCH  17  18
ENDBRANCH   1  17
TORSDOF 5
