REMARK  Name = ZINCpk00000eaIKd.0
REMARK                            x       y       z     vdW  Elec       q    Type
REMARK                         _______ _______ _______ _____ _____    ______ ____
ROOT
ATOM      1  C   LIG    1       -0.016   1.344   0.009  0.00  0.00    +0.590 C 
ATOM      2  N   LIG    1        0.002  -0.004   0.002  0.00  0.00    -0.730 N 
ATOM      3  H   LIG    1        0.849  -0.478  -0.009  0.00  0.00    +0.400 HD
ATOM      4  O   LIG    1       -1.078   1.937   0.018  0.00  0.00    -0.510 OA
ENDROOT
BRANCH   1  11
ATOM      5  C   LIG    1        4.507   5.170   1.010  0.00  0.00    +0.070 C 
ATOM      6  C   LIG    1        3.359   5.086   0.002  0.00  0.00    +0.260 C 
ATOM      7  O   LIG    1        2.312   5.991   0.381  0.00  0.00    -0.370 OA
ATOM      8  C   LIG    1        1.105   5.862  -0.373  0.00  0.00    +0.150 C 
ATOM      9  C   LIG    1        0.380   4.564   0.020  0.00  0.00    +0.110 C 
ATOM     10  C   LIG    1        1.398   3.457   0.007  0.00  0.00    -0.110 A 
ATOM     11  C   LIG    1        1.248   2.097   0.001  0.00  0.00    -0.030 A 
ATOM     12  N   LIG    1        2.518   1.579  -0.007  0.00  0.00    -0.390 N 
ATOM     13  H   LIG    1        2.736   0.634  -0.009  0.00  0.00    +0.440 HD
ATOM     14  N   LIG    1        3.378   2.539  -0.017  0.00  0.00    -0.240 NA
ATOM     15  C   LIG    1        0.197   7.059  -0.085  0.00  0.00    +0.060 C 
ATOM     16  C   LIG    1        2.782   3.692  -0.004  0.00  0.00    -0.000 A 
ENDBRANCH   1  11
BRANCH   2  17
ATOM     17  C   LIG    1       -1.256  -0.754   0.010  0.00  0.00    +0.290 C 
BRANCH  17  18
ATOM     18  C   LIG    1       -0.957  -2.254  -0.001  0.00  0.00    +0.130 C 
BRANCH  18  19
ATOM     19  C   LIG    1       -2.251  -3.025   0.007  0.00  0.00    +0.080 A 
ATOM     20  C   LIG    1       -2.615  -3.964  -0.892  0.00  0.00    +0.100 A 
ATOM     21  N   LIG    1       -3.853  -4.415  -0.525  0.00  0.00    -0.400 N 
ATOM     22  C   LIG    1       -4.694  -5.348  -1.058  0.00  0.00    +0.290 A 
ATOM     23  C   LIG    1       -5.886  -5.582  -0.455  0.00  0.00    -0.030 A 
ATOM     24  C   LIG    1       -6.224  -4.862   0.700  0.00  0.00    +0.360 A 
ATOM     25  N   LIG    1       -5.397  -3.970   1.192  0.00  0.00    -0.440 NA
ATOM     26  C   LIG    1       -4.215  -3.728   0.605  0.00  0.00    +0.380 A 
ATOM     27  N   LIG    1       -3.229  -2.898   0.910  0.00  0.00    -0.460 NA
ENDBRANCH  18  19
ENDBRANCH  17  18
ENDBRANCH   2  17
TORSDOF 4
