REMARK  Name = ZINCpk00000FbSKj.0
REMARK                            x       y       z     vdW  Elec       q    Type
REMARK                         _______ _______ _______ _____ _____    ______ ____
ROOT
ATOM      1  C   LIG    1        0.129   1.281   2.496  0.00  0.00    +0.290 C 
ENDROOT
BRANCH   1   2
ATOM      2  C   LIG    1       -0.732   1.581   1.267  0.00  0.00    -0.020 C 
ATOM      3  C   LIG    1       -0.013   1.086   0.008  0.00  0.00    +0.050 C 
ATOM      4  C   LIG    1       -0.756   1.595  -1.233  0.00  0.00    +0.180 C 
ATOM      5  C   LIG    1       -2.226   1.294  -1.059  0.00  0.00    +0.230 A 
ATOM      6  N   LIG    1       -3.147   1.296  -1.978  0.00  0.00    -0.450 NA
ATOM      7  C   LIG    1       -4.327   0.975  -1.422  0.00  0.00    -0.100 A 
ATOM      8  C   LIG    1       -4.126   0.766  -0.105  0.00  0.00    +0.210 A 
ATOM      9  N   LIG    1       -2.797   0.969   0.125  0.00  0.00    -0.450 N 
ATOM     10  C   LIG    1       -2.082   0.866   1.399  0.00  0.00    +0.300 C 
BRANCH   7  11
ATOM     11  C   LIG    1       -5.645   0.866  -2.144  0.00  0.00    +0.550 C 
ATOM     12  F   LIG    1       -6.517   1.854  -1.673  0.00  0.00    -0.170 F 
ATOM     13  F   LIG    1       -6.201  -0.396  -1.913  0.00  0.00    -0.170 F 
ATOM     14  F   LIG    1       -5.441   1.041  -3.517  0.00  0.00    -0.170 F 
ENDBRANCH   7  11
ENDBRANCH   1   2
BRANCH   1  17
ATOM     15  O   LIG    1        1.129   1.116   4.994  0.00  0.00    -0.520 OA
ATOM     16  C   LIG    1        0.082   1.720   4.892  0.00  0.00    +0.500 C 
ATOM     17  N   LIG    1       -0.501   1.859   3.685  0.00  0.00    -0.730 N 
ATOM     18  H   LIG    1       -1.339   2.342   3.604  0.00  0.00    +0.400 HD
BRANCH  16  19
ATOM     19  C   LIG    1       -0.566   2.315   6.116  0.00  0.00    +0.320 C 
BRANCH  19  20
ATOM     20  N   LIG    1        0.257   2.028   7.293  0.00  0.00    -0.480 N 
ATOM     21  C   LIG    1        0.035   0.895   8.008  0.00  0.00    +0.290 A 
ATOM     22  C   LIG    1        0.786   0.606   9.096  0.00  0.00    -0.080 A 
ATOM     23  C   LIG    1        1.800   1.486   9.501  0.00  0.00    +0.130 A 
ATOM     24  C   LIG    1        2.018   2.626   8.784  0.00  0.00    -0.090 A 
ATOM     25  C   LIG    1        1.223   2.893   7.657  0.00  0.00    +0.520 A 
ATOM     26  O   LIG    1        1.407   3.910   7.007  0.00  0.00    -0.550 OA
ENDBRANCH  19  20
ENDBRANCH  16  19
ENDBRANCH   1  17
TORSDOF 5
