REMARK  Name = ZINCqH000000514d.0
REMARK                            x       y       z     vdW  Elec       q    Type
REMARK                         _______ _______ _______ _____ _____    ______ ____
ROOT
ATOM      1  C   LIG    1        0.443   0.138   2.602  0.00  0.00    +0.240 C 
ENDROOT
BRANCH   1   2
ATOM      2  C   LIG    1       -0.915  -0.415   2.952  0.00  0.00    +0.520 C 
ATOM      3  N   LIG    1       -1.017  -1.605   3.577  0.00  0.00    -0.610 N 
ATOM      4  C   LIG    1        0.192  -2.360   3.917  0.00  0.00    +0.290 C 
ATOM      5  O   LIG    1       -1.915   0.210   2.671  0.00  0.00    -0.510 OA
BRANCH   3   6
ATOM      6  C   LIG    1       -2.337  -2.142   3.917  0.00  0.00    +0.360 C 
BRANCH   6   7
ATOM      7  C   LIG    1       -2.846  -2.983   2.775  0.00  0.00    -0.100 A 
ATOM      8  C   LIG    1       -3.602  -2.404   1.774  0.00  0.00    +0.070 A 
ATOM      9  C   LIG    1       -4.065  -3.173   0.723  0.00  0.00    +0.050 A 
ATOM     10  C   LIG    1       -3.782  -4.526   0.679  0.00  0.00    -0.030 A 
ATOM     11  C   LIG    1       -3.029  -5.108   1.685  0.00  0.00    -0.040 A 
ATOM     12 CL   LIG    1       -2.671  -6.806   1.631  0.00  0.00    -0.050 Cl
ATOM     13 CL   LIG    1       -4.369  -5.494  -0.637  0.00  0.00    -0.040 Cl
ATOM     14  C   LIG    1       -2.562  -4.336   2.733  0.00  0.00    +0.050 A 
ENDBRANCH   6   7
ENDBRANCH   3   6
ENDBRANCH   1   2
BRANCH   1  15
ATOM     15  O   LIG    1        0.289   1.401   1.950  0.00  0.00    -0.280 OA
BRANCH  15  19
ATOM     16  C   LIG    1        3.741   3.339   0.783  0.00  0.00    -0.170 A 
ATOM     17  C   LIG    1        2.494   3.920   0.537  0.00  0.00    +0.120 A 
ATOM     18  C   LIG    1        1.345   3.270   0.927  0.00  0.00    -0.010 A 
ATOM     19  C   LIG    1        1.424   2.038   1.567  0.00  0.00    +0.160 A 
ATOM     20  C   LIG    1        2.663   1.460   1.819  0.00  0.00    -0.090 A 
ATOM     21  C   LIG    1        3.816   2.101   1.426  0.00  0.00    +0.090 A 
BRANCH  16  24
ATOM     22  C   LIG    1        7.332   4.011  -0.255  0.00  0.00    +0.290 C 
ATOM     23  N   LIG    1        6.080   3.321   0.065  0.00  0.00    -0.620 N 
ATOM     24  C   LIG    1        4.976   4.033   0.367  0.00  0.00    +0.560 C 
ATOM     25  O   LIG    1        4.997   5.247   0.296  0.00  0.00    -0.530 OA
ATOM     26  C   LIG    1        6.027   1.857   0.057  0.00  0.00    +0.290 C 
ENDBRANCH  16  24
ENDBRANCH  15  19
ENDBRANCH   1  15
TORSDOF 6
