REMARK  Name = ZINCAx0000000gB1.0
REMARK                            x       y       z     vdW  Elec       q    Type
REMARK                         _______ _______ _______ _____ _____    ______ ____
ROOT
ATOM      1  C   LIG    1        1.176   1.780  -0.009  0.00  0.00    +0.100 A 
ATOM      2  C   LIG    1       -0.013   1.065  -0.004  0.00  0.00    +0.190 A 
ATOM      3  C   LIG    1       -1.222   1.734  -0.004  0.00  0.00    -0.690 A 
ATOM      4  C   LIG    1       -1.251   3.116   0.002  0.00  0.00    +0.170 A 
ATOM      5  C   LIG    1       -0.070   3.837  -0.003  0.00  0.00    -0.060 A 
ATOM      6  C   LIG    1        1.146   3.174  -0.008  0.00  0.00    +0.170 A 
ENDROOT
BRANCH   1   9
ATOM      7  O   LIG    1        1.565  -0.569   1.181  0.00  0.00    -0.490 OA
ATOM      8  C   LIG    1        2.532  -0.062   0.647  0.00  0.00    +0.570 C 
ATOM      9  N   LIG    1        2.402   1.104  -0.015  0.00  0.00    -0.650 N 
ATOM     10  H   LIG    1        3.158   1.476  -0.496  0.00  0.00    +0.420 HD
BRANCH   8  11
ATOM     11  C   LIG    1        3.851  -0.726   0.724  0.00  0.00    -0.130 A 
ATOM     12  C   LIG    1        4.962  -0.150   0.107  0.00  0.00    +0.200 A 
ATOM     13  C   LIG    1        6.191  -0.771   0.187  0.00  0.00    -0.040 A 
ATOM     14  C   LIG    1        6.321  -1.969   0.868  0.00  0.00    +0.220 A 
ATOM     15  C   LIG    1        5.222  -2.549   1.476  0.00  0.00    -0.040 A 
ATOM     16  C   LIG    1        3.988  -1.935   1.409  0.00  0.00    +0.240 A 
BRANCH  15  17
ATOM     17  N   LIG    1        5.370  -3.830   2.203  0.00  0.00    +0.020 N 
ATOM     18  O   LIG    1        6.458  -4.373   2.263  0.00  0.00    -0.130 OA
ATOM     19  O   LIG    1        4.404  -4.341   2.740  0.00  0.00    -0.130 OA
ENDBRANCH  15  17
BRANCH  13  20
ATOM     20  N   LIG    1        7.373  -0.158  -0.460  0.00  0.00    +0.020 N 
ATOM     21  O   LIG    1        7.260   0.896  -1.059  0.00  0.00    -0.130 OA
ATOM     22  O   LIG    1        8.457  -0.708  -0.394  0.00  0.00    -0.130 OA
ENDBRANCH  13  20
ENDBRANCH   8  11
ENDBRANCH   1   9
BRANCH   3  23
ATOM     23  S   LIG    1       -2.730   0.824  -0.004  0.00  0.00    +2.700 S 
ATOM     24  O   LIG    1       -2.428  -0.453  -0.549  0.00  0.00    -0.940 OA
ATOM     25  O   LIG    1       -3.720   1.687  -0.548  0.00  0.00    -0.950 OA
BRANCH  23  26
ATOM     26  N   LIG    1       -3.150   0.570   1.577  0.00  0.00    -1.000 NA
ATOM     27  C   LIG    1       -2.695  -0.630   2.299  0.00  0.00    +0.280 C 
ATOM     28  C   LIG    1       -2.068  -0.180   3.628  0.00  0.00    +0.220 C 
ATOM     29  O   LIG    1       -2.991   0.664   4.320  0.00  0.00    -0.370 OA
ATOM     30  C   LIG    1       -3.308   1.875   3.629  0.00  0.00    +0.210 C 
ATOM     31  C   LIG    1       -3.994   1.534   2.301  0.00  0.00    +0.270 C 
ENDBRANCH  23  26
ENDBRANCH   3  23
BRANCH   6  32
ATOM     32  O   LIG    1        2.308   3.880  -0.012  0.00  0.00    -0.300 OA
BRANCH  32  33
ATOM     33  C   LIG    1        2.200   5.305  -0.011  0.00  0.00    +0.250 C 
BRANCH  33  34
ATOM     34  C   LIG    1        3.600   5.922  -0.017  0.00  0.00    +0.470 C 
ATOM     35  F   LIG    1        4.297   5.506   1.123  0.00  0.00    -0.170 F 
ATOM     36  F   LIG    1        3.495   7.317  -0.016  0.00  0.00    -0.170 F 
ATOM     37  F   LIG    1        4.288   5.507  -1.162  0.00  0.00    -0.170 F 
ENDBRANCH  33  34
ENDBRANCH  32  33
ENDBRANCH   6  32
TORSDOF 9
