REMARK  Name = ZINCrH000004qR1y.0
REMARK                            x       y       z     vdW  Elec       q    Type
REMARK                         _______ _______ _______ _____ _____    ______ ____
ROOT
ATOM      1  C   LIG    1        0.269   6.563   0.424  0.00  0.00    +0.150 C 
ATOM      2  C   LIG    1        1.040   5.462  -0.257  0.00  0.00    +0.230 A 
ATOM      3  C   LIG    1        1.866   5.747  -1.328  0.00  0.00    -0.120 A 
ATOM      4  C   LIG    1        2.561   4.698  -1.929  0.00  0.00    +0.380 A 
ATOM      5  N   LIG    1        2.413   3.469  -1.452  0.00  0.00    -0.590 NA
ATOM      6  C   LIG    1        1.609   3.235  -0.426  0.00  0.00    +0.530 A 
ATOM      7  N   LIG    1        0.935   4.211   0.165  0.00  0.00    -0.550 NA
ENDROOT
BRANCH   6   8
ATOM      8  N   LIG    1        1.473   1.940   0.044  0.00  0.00    -0.430 N 
ATOM      9  C   LIG    1        0.045   1.529   0.067  0.00  0.00    +0.220 C 
ATOM     10  C   LIG    1        0.085  -0.014   0.073  0.00  0.00    +0.060 C 
ATOM     11  C   LIG    1        1.448  -0.383  -0.548  0.00  0.00    +0.160 C 
ATOM     12  C   LIG    1        2.118   0.969  -0.877  0.00  0.00    +0.200 C 
BRANCH  11  13
ATOM     13  O   LIG    1        1.260  -1.147  -1.740  0.00  0.00    -0.370 OA
BRANCH  13  14
ATOM     14  C   LIG    1        2.315  -2.072  -2.010  0.00  0.00    +0.230 C 
BRANCH  14  15
ATOM     15  C   LIG    1        2.014  -2.819  -3.284  0.00  0.00    -0.140 A 
ATOM     16  C   LIG    1        1.304  -4.009  -3.248  0.00  0.00    +0.090 A 
ATOM     17  C   LIG    1        1.046  -4.660  -4.446  0.00  0.00    -0.030 A 
ATOM     18  C   LIG    1        1.511  -4.109  -5.625  0.00  0.00    +0.260 A 
ATOM     19  N   LIG    1        2.188  -2.978  -5.620  0.00  0.00    -0.490 NA
ATOM     20  C   LIG    1        2.448  -2.330  -4.502  0.00  0.00    +0.270 A 
ENDBRANCH  14  15
ENDBRANCH  13  14
ENDBRANCH  11  13
ENDBRANCH   6   8
BRANCH   4  21
ATOM     21  O   LIG    1        3.381   4.933  -2.983  0.00  0.00    -0.240 OA
BRANCH  21  22
ATOM     22  C   LIG    1        3.948   3.863  -3.601  0.00  0.00    +0.090 A 
ATOM     23  C   LIG    1        5.286   3.566  -3.387  0.00  0.00    +0.020 A 
ATOM     24  C   LIG    1        5.859   2.475  -4.013  0.00  0.00    +0.020 A 
ATOM     25  C   LIG    1        5.101   1.686  -4.859  0.00  0.00    +0.020 A 
ATOM     26  C   LIG    1        3.769   1.982  -5.077  0.00  0.00    +0.030 A 
ATOM     27  C   LIG    1        3.190   3.069  -4.450  0.00  0.00    +0.010 A 
ENDBRANCH  21  22
ENDBRANCH   4  21
TORSDOF 6
