REMARK  Name = ZINCqH0000033aJW.0
REMARK                            x       y       z     vdW  Elec       q    Type
REMARK                         _______ _______ _______ _____ _____    ______ ____
ROOT
ATOM      1  N   LIG    1       -2.313   2.618   2.701  0.00  0.00    -0.640 N 
ATOM      2  H   LIG    1       -1.714   2.890   3.414  0.00  0.00    +0.420 HD
ATOM      3  C   LIG    1       -1.811   2.140   1.545  0.00  0.00    +0.510 C 
ATOM      4  O   LIG    1       -2.560   1.799   0.654  0.00  0.00    -0.450 OA
ENDROOT
BRANCH   1  13
ATOM      5  N   LIG    1       -4.300   3.183   3.998  0.00  0.00    -0.500 N 
ATOM      6  C   LIG    1       -5.665   3.130   3.769  0.00  0.00    +0.050 A 
ATOM      7  C   LIG    1       -6.780   3.461   4.524  0.00  0.00    +0.010 A 
ATOM      8  C   LIG    1       -8.043   3.279   3.998  0.00  0.00    +0.030 A 
ATOM      9  C   LIG    1       -8.205   2.768   2.720  0.00  0.00    +0.010 A 
ATOM     10  C   LIG    1       -7.109   2.434   1.956  0.00  0.00    +0.060 A 
ATOM     11  C   LIG    1       -5.823   2.611   2.473  0.00  0.00    +0.060 A 
ATOM     12  N   LIG    1       -4.578   2.382   1.979  0.00  0.00    -0.470 NA
ATOM     13  C   LIG    1       -3.683   2.720   2.872  0.00  0.00    +0.500 A 
BRANCH   5  14
ATOM     14  C   LIG    1       -3.642   3.651   5.219  0.00  0.00    +0.300 C 
BRANCH  14  16
ATOM     15  C   LIG    1       -2.691   5.644   6.389  0.00  0.00    +0.030 C 
ATOM     16  C   LIG    1       -3.379   5.155   5.113  0.00  0.00    +0.000 C 
ENDBRANCH  14  16
ENDBRANCH   5  14
ENDBRANCH   1  13
BRANCH   3  17
ATOM     17  C   LIG    1       -0.320   2.028   1.359  0.00  0.00    +0.090 C 
BRANCH  17  18
ATOM     18  C   LIG    1       -0.020   1.461  -0.029  0.00  0.00    +0.360 C 
BRANCH  18  19
ATOM     19  C   LIG    1        1.469   1.464  -0.262  0.00  0.00    -0.190 A 
ATOM     20  C   LIG    1        2.136   2.383  -0.962  0.00  0.00    +0.020 A 
ATOM     21  C   LIG    1        3.503   2.178  -1.040  0.00  0.00    +0.010 A 
ATOM     22  C   LIG    1        3.946   1.093  -0.404  0.00  0.00    -0.050 A 
ATOM     23  S   LIG    1        2.594   0.260   0.353  0.00  0.00    +0.100 S 
ENDBRANCH  18  19
BRANCH  18  24
ATOM     24  N   LIG    1       -0.525   0.089  -0.116  0.00  0.00    -0.720 N 
ATOM     25  H   LIG    1       -0.621  -0.444   0.688  0.00  0.00    +0.400 HD
ATOM     26  C   LIG    1       -0.855  -0.433  -1.314  0.00  0.00    +0.520 C 
ATOM     27  O   LIG    1       -0.650   0.199  -2.329  0.00  0.00    -0.540 OA
ATOM     28  C   LIG    1       -1.479  -1.803  -1.393  0.00  0.00    +0.100 C 
ENDBRANCH  18  24
ENDBRANCH  17  18
ENDBRANCH   3  17
TORSDOF 7
