REMARK  Name = ZINCrD00000l8soM.0
REMARK                            x       y       z     vdW  Elec       q    Type
REMARK                         _______ _______ _______ _____ _____    ______ ____
ROOT
ATOM      1  O   LIG    1       -0.108   7.994   0.021  0.00  0.00    -0.520 OA
ATOM      2  C   LIG    1       -0.186   7.332  -0.992  0.00  0.00    +0.530 C 
ATOM      3  N   LIG    1       -0.162   5.986  -0.921  0.00  0.00    -0.720 N 
ATOM      4  H   LIG    1       -0.225   5.456  -1.731  0.00  0.00    +0.410 HD
ENDROOT
BRANCH   3   5
ATOM      5  C   LIG    1       -0.040   5.323   0.380  0.00  0.00    +0.320 C 
BRANCH   5   6
ATOM      6  C   LIG    1       -0.036   3.829   0.184  0.00  0.00    -0.090 A 
ATOM      7  C   LIG    1        1.159   3.161  -0.009  0.00  0.00    +0.020 A 
ATOM      8  C   LIG    1        1.166   1.789  -0.188  0.00  0.00    +0.030 A 
ATOM      9  C   LIG    1       -0.021   1.083  -0.176  0.00  0.00    +0.030 A 
ATOM     10  C   LIG    1       -1.223   1.752   0.012  0.00  0.00    +0.150 A 
ATOM     11  C   LIG    1       -1.227   3.128   0.199  0.00  0.00    +0.000 A 
BRANCH  10  12
ATOM     12  N   LIG    1       -2.428   1.041   0.019  0.00  0.00    -0.670 N 
ATOM     13  H   LIG    1       -3.236   1.452  -0.326  0.00  0.00    +0.410 HD
ATOM     14  C   LIG    1       -2.465  -0.215   0.506  0.00  0.00    +0.540 C 
ATOM     15  O   LIG    1       -1.479  -0.695   1.025  0.00  0.00    -0.520 OA
BRANCH  14  16
ATOM     16  C   LIG    1       -3.733  -1.025   0.405  0.00  0.00    -0.070 C 
ATOM     17  C   LIG    1       -4.476  -1.337   1.706  0.00  0.00    +0.060 C 
ATOM     18  C   LIG    1       -3.712  -2.444   0.976  0.00  0.00    +0.080 C 
ENDBRANCH  14  16
ENDBRANCH  10  12
ENDBRANCH   5   6
ENDBRANCH   3   5
BRANCH   2  19
ATOM     19  C   LIG    1       -0.312   8.013  -2.330  0.00  0.00    +0.070 C 
BRANCH  19  20
ATOM     20  S   LIG    1       -0.316   9.812  -2.094  0.00  0.00    +0.020 S 
BRANCH  20  21
ATOM     21  C   LIG    1       -0.467  10.427  -3.739  0.00  0.00    -0.060 A 
ATOM     22  C   LIG    1       -0.542   9.543  -4.809  0.00  0.00    +0.010 A 
ATOM     23  C   LIG    1       -0.666  10.028  -6.095  0.00  0.00    +0.130 A 
ATOM     24  C   LIG    1       -0.705  11.392  -6.321  0.00  0.00    -0.060 A 
ATOM     25  C   LIG    1       -0.624  12.275  -5.259  0.00  0.00    +0.130 A 
ATOM     26  C   LIG    1       -0.506  11.796  -3.969  0.00  0.00    +0.050 A 
BRANCH  24  27
ATOM     27  N   LIG    1       -0.832  11.909  -7.702  0.00  0.00    +0.030 N 
ATOM     28  O   LIG    1       -0.902  11.133  -8.639  0.00  0.00    -0.160 OA
ATOM     29  O   LIG    1       -0.865  13.109  -7.903  0.00  0.00    -0.160 OA
ENDBRANCH  24  27
ENDBRANCH  20  21
ENDBRANCH  19  20
ENDBRANCH   2  19
TORSDOF 8
