REMARK  Name = ZINCb80000002GOX.0
REMARK                            x       y       z     vdW  Elec       q    Type
REMARK                         _______ _______ _______ _____ _____    ______ ____
ROOT
ATOM      1  O   LIG    1        0.534   4.172  -3.289  0.00  0.00    -0.510 OA
ATOM      2  C   LIG    1        0.046   3.385  -2.505  0.00  0.00    +0.520 C 
ATOM      3  C   LIG    1       -0.817   3.584  -1.288  0.00  0.00    +0.070 C 
ATOM      4  C   LIG    1       -0.743   2.058  -1.233  0.00  0.00    +0.250 C 
ATOM      5  N   LIG    1        0.096   2.042  -2.433  0.00  0.00    -0.750 N 
ATOM      6  H   LIG    1        0.516   1.345  -2.961  0.00  0.00    +0.420 HD
ENDROOT
BRANCH   4   7
ATOM      7  C   LIG    1       -0.019   1.539   0.011  0.00  0.00    -0.040 C 
ATOM      8  C   LIG    1        0.002  -0.004   0.002  0.00  0.00    +0.040 C 
ATOM      9  C   LIG    1        1.397  -0.357   0.578  0.00  0.00    +0.040 C 
ATOM     10  C   LIG    1        2.294   0.753  -0.025  0.00  0.00    +0.010 C 
ATOM     11  C   LIG    1        1.425   1.997  -0.001  0.00  0.00    +0.370 C 
ATOM     12  O   LIG    1        1.812   3.141   0.007  0.00  0.00    -0.430 OA
ENDBRANCH   4   7
TORSDOF 1
