REMARK  Name = ZINCkj000005lzjC.1
REMARK                            x       y       z     vdW  Elec       q    Type
REMARK                         _______ _______ _______ _____ _____    ______ ____
ROOT
ATOM      1  C   LIG    1       -1.108  -4.503  -2.112  0.00  0.00    +0.290 C 
ENDROOT
BRANCH   1   2
ATOM      2  N   LIG    1       -1.389  -5.277  -3.329  0.00  0.00    -0.370 N 
ATOM      3  C   LIG    1       -2.300  -6.386  -3.008  0.00  0.00    +0.280 C 
ATOM      4  C   LIG    1       -2.820  -6.983  -4.317  0.00  0.00    +0.130 C 
ATOM      5  C   LIG    1       -1.662  -7.291  -5.232  0.00  0.00    -0.100 A 
ATOM      6  C   LIG    1       -1.873  -8.138  -6.308  0.00  0.00    +0.030 A 
ATOM      7  C   LIG    1       -0.838  -8.438  -7.172  0.00  0.00    +0.050 A 
ATOM      8  C   LIG    1        0.414  -7.891  -6.962  0.00  0.00    +0.040 A 
ATOM      9  C   LIG    1        0.625  -7.048  -5.888  0.00  0.00    +0.040 A 
ATOM     10  C   LIG    1       -0.413  -6.747  -5.020  0.00  0.00    -0.130 A 
ATOM     11  C   LIG    1       -0.138  -5.825  -3.861  0.00  0.00    +0.330 C 
ATOM     12  H   LIG    1       -1.815  -4.677  -4.019  0.00  0.00    +0.430 HD
ENDBRANCH   1   2
BRANCH   1  14
ATOM     13  O   LIG    1        0.069  -3.112  -3.612  0.00  0.00    -0.530 OA
ATOM     14  C   LIG    1       -0.265  -3.304  -2.462  0.00  0.00    +0.500 C 
ATOM     15  N   LIG    1        0.117  -2.445  -1.497  0.00  0.00    -0.690 N 
ATOM     16  H   LIG    1       -0.150  -2.598  -0.577  0.00  0.00    +0.420 HD
BRANCH  15  17
ATOM     17  C   LIG    1        0.937  -1.279  -1.837  0.00  0.00    +0.280 C 
BRANCH  17  18
ATOM     18  C   LIG    1        1.229  -0.474  -0.569  0.00  0.00    +0.160 C 
ATOM     19  C   LIG    1        2.084   0.763  -0.920  0.00  0.00    +0.020 C 
ATOM     20  C   LIG    1        1.473   1.857  -0.002  0.00  0.00    +0.010 C 
ATOM     21  C   LIG    1       -0.017   1.432   0.010  0.00  0.00    +0.200 C 
ATOM     22  O   LIG    1        0.002  -0.004   0.002  0.00  0.00    -0.380 OA
ENDBRANCH  17  18
ENDBRANCH  15  17
ENDBRANCH   1  14
TORSDOF 4
