REMARK  Name = ZINCkj000005lzjC.2
REMARK                            x       y       z     vdW  Elec       q    Type
REMARK                         _______ _______ _______ _____ _____    ______ ____
ROOT
ATOM      1  C   LIG    1       -3.723   5.924  -0.210  0.00  0.00    +0.290 C 
ENDROOT
BRANCH   1   2
ATOM      2  N   LIG    1       -2.441   5.227  -0.379  0.00  0.00    -0.370 N 
ATOM      3  C   LIG    1       -1.413   5.882   0.444  0.00  0.00    +0.280 C 
ATOM      4  C   LIG    1       -0.042   5.350   0.025  0.00  0.00    +0.130 C 
ATOM      5  C   LIG    1       -0.058   3.843   0.022  0.00  0.00    -0.100 A 
ATOM      6  C   LIG    1        1.150   3.165   0.007  0.00  0.00    +0.030 A 
ATOM      7  C   LIG    1        1.174   1.784   0.000  0.00  0.00    +0.050 A 
ATOM      8  C   LIG    1       -0.013   1.076   0.008  0.00  0.00    +0.040 A 
ATOM      9  C   LIG    1       -1.217   1.751   0.017  0.00  0.00    +0.040 A 
ATOM     10  C   LIG    1       -1.243   3.137   0.031  0.00  0.00    -0.130 A 
ATOM     11  C   LIG    1       -2.579   3.832   0.051  0.00  0.00    +0.320 C 
ATOM     12  H   LIG    1       -2.166   5.256  -1.349  0.00  0.00    +0.430 HD
ENDBRANCH   1   2
BRANCH   1  14
ATOM     13  O   LIG    1       -4.435   4.415  -1.879  0.00  0.00    -0.530 OA
ATOM     14  C   LIG    1       -4.745   5.330  -1.145  0.00  0.00    +0.500 C 
ATOM     15  N   LIG    1       -6.002   5.814  -1.165  0.00  0.00    -0.700 N 
ATOM     16  H   LIG    1       -6.250   6.545  -0.578  0.00  0.00    +0.410 HD
BRANCH  15  17
ATOM     17  C   LIG    1       -6.995   5.236  -2.074  0.00  0.00    +0.300 C 
BRANCH  17  18
ATOM     18  C   LIG    1       -8.331   5.962  -1.899  0.00  0.00    +0.140 C 
ATOM     19  C   LIG    1       -9.383   5.362  -2.851  0.00  0.00    +0.020 C 
ATOM     20  C   LIG    1      -10.514   4.879  -1.911  0.00  0.00    +0.010 C 
ATOM     21  C   LIG    1      -10.255   5.718  -0.633  0.00  0.00    +0.220 C 
ATOM     22  O   LIG    1       -8.814   5.779  -0.557  0.00  0.00    -0.380 OA
ENDBRANCH  17  18
ENDBRANCH  15  17
ENDBRANCH   1  14
TORSDOF 4
