REMARK  Name = ZINCvU0000000G4m.0
REMARK                            x       y       z     vdW  Elec       q    Type
REMARK                         _______ _______ _______ _____ _____    ______ ____
ROOT
ATOM      1  C   LIG    1       -0.944   3.868   2.394  0.00  0.00    +0.510 C 
ATOM      2  N   LIG    1       -0.895   4.144   3.713  0.00  0.00    -0.650 N 
ATOM      3  H   LIG    1       -1.626   4.620   4.136  0.00  0.00    +0.400 HD
ATOM      4  O   LIG    1       -0.030   3.272   1.865  0.00  0.00    -0.470 OA
ENDROOT
BRANCH   2   5
ATOM      5  C   LIG    1        0.207   3.744   4.469  0.00  0.00    +0.310 A 
ATOM      6  C   LIG    1        1.241   2.972   4.037  0.00  0.00    -0.100 A 
ATOM      7  C   LIG    1        2.129   2.810   5.104  0.00  0.00    +0.250 A 
ATOM      8  N   LIG    1        1.653   3.456   6.137  0.00  0.00    -0.270 NA
ATOM      9  N   LIG    1        0.445   4.058   5.762  0.00  0.00    -0.380 N 
BRANCH   9  10
ATOM     10  C   LIG    1       -0.411   4.881   6.621  0.00  0.00    +0.390 C 
BRANCH  10  11
ATOM     11  C   LIG    1       -0.084   6.337   6.410  0.00  0.00    -0.100 A 
ATOM     12  C   LIG    1       -0.866   7.105   5.569  0.00  0.00    +0.040 A 
ATOM     13  C   LIG    1       -0.567   8.441   5.375  0.00  0.00    +0.040 A 
ATOM     14  C   LIG    1        0.514   9.009   6.022  0.00  0.00    +0.060 A 
ATOM     15  C   LIG    1        1.297   8.241   6.865  0.00  0.00    -0.030 A 
ATOM     16 CL   LIG    1        2.655   8.955   7.679  0.00  0.00    -0.040 Cl
ATOM     17  C   LIG    1        0.995   6.905   7.063  0.00  0.00    -0.010 A 
ATOM     18 CL   LIG    1        1.973   5.942   8.126  0.00  0.00    -0.020 Cl
ENDBRANCH  10  11
ENDBRANCH   9  10
ENDBRANCH   2   5
BRANCH   1  19
ATOM     19  C   LIG    1       -2.134   4.300   1.578  0.00  0.00    +0.070 C 
BRANCH  19  31
ATOM     20  C   LIG    1       -0.754   0.236  -0.188  0.00  0.00    +0.100 C 
ATOM     21  C   LIG    1       -0.763   1.741  -0.115  0.00  0.00    +0.510 C 
ATOM     22  N   LIG    1       -1.928   2.401   0.045  0.00  0.00    -0.560 N 
ATOM     23  C   LIG    1       -3.121   1.696   0.143  0.00  0.00    +0.240 C 
ATOM     24  C   LIG    1       -4.250   2.239  -0.325  0.00  0.00    -0.040 C 
ATOM     25  C   LIG    1       -4.212   3.592  -0.912  0.00  0.00    -0.030 A 
ATOM     26  C   LIG    1       -5.296   4.091  -1.632  0.00  0.00    +0.020 A 
ATOM     27  C   LIG    1       -5.229   5.356  -2.180  0.00  0.00    +0.020 A 
ATOM     28  C   LIG    1       -4.094   6.129  -2.010  0.00  0.00    +0.010 A 
ATOM     29  C   LIG    1       -3.021   5.646  -1.280  0.00  0.00    +0.030 A 
ATOM     30  C   LIG    1       -3.079   4.389  -0.722  0.00  0.00    -0.100 A 
ATOM     31  C   LIG    1       -1.940   3.866   0.123  0.00  0.00    +0.320 C 
ATOM     32  O   LIG    1        0.277   2.359  -0.205  0.00  0.00    -0.480 OA
ENDBRANCH  19  31
ENDBRANCH   1  19
TORSDOF 5
