REMARK  Name = ZINC9u0000000C4j.0
REMARK                            x       y       z     vdW  Elec       q    Type
REMARK                         _______ _______ _______ _____ _____    ______ ____
ROOT
ATOM      1  C   LIG    1       -0.756   3.549   1.278  0.00  0.00    -0.040 C 
ATOM      2  C   LIG    1        0.675   4.078   1.393  0.00  0.00    +0.050 C 
ENDROOT
BRANCH   1   3
ATOM      3  C   LIG    1       -1.566   4.034   2.452  0.00  0.00    +0.360 C 
ATOM      4  O   LIG    1       -1.619   3.375   3.462  0.00  0.00    -0.460 OA
ATOM      5  C   LIG    1       -2.311   5.341   2.365  0.00  0.00    +0.050 C 
ENDBRANCH   1   3
BRANCH   1   6
ATOM      6  C   LIG    1       -0.735   2.019   1.269  0.00  0.00    +0.020 C 
BRANCH   6   7
ATOM      7  C   LIG    1       -0.019   1.526   0.010  0.00  0.00    +0.010 C 
BRANCH   7   9
ATOM      8  C   LIG    1        0.718  -0.497  -1.257  0.00  0.00    +0.000 C 
ATOM      9  C   LIG    1        0.002  -0.004   0.002  0.00  0.00    -0.010 C 
ENDBRANCH   7   9
ENDBRANCH   6   7
ENDBRANCH   1   6
TORSDOF 4
