REMARK  Name = ZINCpk00000KeoJ4.0
REMARK                            x       y       z     vdW  Elec       q    Type
REMARK                         _______ _______ _______ _____ _____    ______ ____
ROOT
ATOM      1  C   LIG    1        4.840   4.257  -0.196  0.00  0.00    +0.120 C 
ATOM      2  C   LIG    1        3.566   3.458  -0.294  0.00  0.00    +0.510 C 
ATOM      3  N   LIG    1        3.608   2.113  -0.232  0.00  0.00    -0.560 N 
ATOM      4  C   LIG    1        4.896   1.406  -0.203  0.00  0.00    +0.280 C 
ATOM      5  C   LIG    1        4.803   0.223  -1.176  0.00  0.00    +0.020 C 
ATOM      6  C   LIG    1        3.728  -0.742  -0.679  0.00  0.00    +0.090 C 
ATOM      7  C   LIG    1        2.442  -0.005  -0.408  0.00  0.00    -0.140 A 
ATOM      8  C   LIG    1        1.256  -0.719  -0.371  0.00  0.00    +0.140 A 
ATOM      9  C   LIG    1        0.061  -0.072  -0.121  0.00  0.00    -0.700 A 
ATOM     10  C   LIG    1        0.043   1.293   0.096  0.00  0.00    +0.140 A 
ATOM     11  C   LIG    1        1.221   2.012   0.061  0.00  0.00    +0.000 A 
ATOM     12  C   LIG    1        2.424   1.364  -0.194  0.00  0.00    +0.210 A 
ATOM     13  O   LIG    1        2.503   4.027  -0.429  0.00  0.00    -0.510 OA
ENDROOT
BRANCH   9  14
ATOM     14  S   LIG    1       -1.442  -0.990  -0.077  0.00  0.00    +2.700 S 
ATOM     15  O   LIG    1       -2.352  -0.233   0.710  0.00  0.00    -0.950 OA
ATOM     16  O   LIG    1       -1.085  -2.332   0.223  0.00  0.00    -0.950 OA
BRANCH  14  17
ATOM     17  N   LIG    1       -2.054  -1.001  -1.616  0.00  0.00    -1.000 NA
ATOM     18  C   LIG    1       -1.691  -2.068  -2.559  0.00  0.00    +0.310 C 
ATOM     19  C   LIG    1       -2.932  -2.908  -2.884  0.00  0.00    +0.130 C 
ATOM     20  C   LIG    1       -4.084  -1.976  -3.172  0.00  0.00    +0.090 A 
ATOM     21  N   LIG    1       -5.201  -2.247  -3.784  0.00  0.00    -0.290 NA
ATOM     22  N   LIG    1       -5.974  -1.077  -3.820  0.00  0.00    -0.480 N 
ATOM     23  H   LIG    1       -6.855  -0.988  -4.216  0.00  0.00    +0.440 HD
ATOM     24  C   LIG    1       -5.276  -0.095  -3.207  0.00  0.00    +0.260 A 
ATOM     25  C   LIG    1       -4.108  -0.622  -2.799  0.00  0.00    -0.250 A 
ATOM     26  C   LIG    1       -2.979   0.055  -2.066  0.00  0.00    +0.380 C 
ENDBRANCH  14  17
ENDBRANCH   9  14
TORSDOF 2
