REMARK  Name = ZINCrD000000C2Em.0
REMARK                            x       y       z     vdW  Elec       q    Type
REMARK                         _______ _______ _______ _____ _____    ______ ____
ROOT
ATOM      1  O   LIG    1        5.287   0.272  -0.953  0.00  0.00    -0.500 OA
ATOM      2  C   LIG    1        4.295   0.640  -1.547  0.00  0.00    +0.550 C 
ATOM      3  N   LIG    1        3.987   0.102  -2.744  0.00  0.00    -0.670 N 
ATOM      4  H   LIG    1        3.232   0.442  -3.248  0.00  0.00    +0.420 HD
ENDROOT
BRANCH   2   5
ATOM      5  C   LIG    1        3.406   1.698  -0.945  0.00  0.00    -0.040 C 
ATOM      6  C   LIG    1        3.384   1.819   0.580  0.00  0.00    +0.100 C 
ATOM      7  C   LIG    1        2.185   1.230  -0.158  0.00  0.00    -0.060 C 
ATOM      8  C   LIG    1        1.942  -0.280  -0.044  0.00  0.00    +0.040 C 
ATOM      9  C   LIG    1        0.809  -0.639  -1.018  0.00  0.00    +0.240 C 
ATOM     10  O   LIG    1       -0.366   0.084  -0.653  0.00  0.00    -0.310 OA
ATOM     11  C   LIG    1       -0.287   1.429  -0.494  0.00  0.00    +0.140 A 
ATOM     12  C   LIG    1       -1.445   2.193  -0.578  0.00  0.00    -0.020 A 
ATOM     13  C   LIG    1       -1.384   3.563  -0.417  0.00  0.00    +0.050 A 
ATOM     14  C   LIG    1       -0.173   4.179  -0.163  0.00  0.00    -0.020 A 
ATOM     15  C   LIG    1        0.982   3.423  -0.077  0.00  0.00    +0.050 A 
ATOM     16  C   LIG    1        0.926   2.054  -0.244  0.00  0.00    -0.130 A 
ENDBRANCH   2   5
BRANCH   3  17
ATOM     17  C   LIG    1        4.758  -0.946  -3.258  0.00  0.00    +0.210 A 
ATOM     18  C   LIG    1        6.130  -0.974  -3.041  0.00  0.00    +0.010 A 
ATOM     19  C   LIG    1        6.887  -2.012  -3.546  0.00  0.00    +0.160 A 
ATOM     20  C   LIG    1        6.282  -3.019  -4.277  0.00  0.00    -0.670 A 
ATOM     21  C   LIG    1        4.918  -2.992  -4.499  0.00  0.00    +0.160 A 
ATOM     22  C   LIG    1        4.154  -1.959  -3.992  0.00  0.00    -0.030 A 
BRANCH  20  23
ATOM     23  S   LIG    1        7.253  -4.338  -4.926  0.00  0.00    +2.480 S 
ATOM     24  O   LIG    1        6.341  -5.422  -5.037  0.00  0.00    -0.890 OA
ATOM     25  O   LIG    1        8.373  -4.411  -4.054  0.00  0.00    -0.890 OA
BRANCH  23  26
ATOM     26  C   LIG    1        7.761  -3.762  -6.569  0.00  0.00    -0.050 C 
ATOM     27  F   LIG    1        8.502  -2.582  -6.441  0.00  0.00    -0.160 F 
ATOM     28  F   LIG    1        6.625  -3.516  -7.348  0.00  0.00    -0.160 F 
ENDBRANCH  23  26
ENDBRANCH  20  23
ENDBRANCH   3  17
TORSDOF 4
