REMARK  Name = ZINCqH0000051wtV.0
REMARK                            x       y       z     vdW  Elec       q    Type
REMARK                         _______ _______ _______ _____ _____    ______ ____
ROOT
ATOM      1  O   LIG    1       -0.865   8.627  -2.598  0.00  0.00    -0.330 OA
ENDROOT
BRANCH   1   3
ATOM      2  O   LIG    1        1.238   8.985  -3.225  0.00  0.00    -0.500 OA
ATOM      3  C   LIG    1        0.065   9.297  -3.310  0.00  0.00    +0.550 C 
BRANCH   3   4
ATOM      4  C   LIG    1       -0.337  10.399  -4.185  0.00  0.00    -0.270 A 
ATOM      5  C   LIG    1        0.505  11.150  -4.952  0.00  0.00    +0.120 A 
ATOM      6  C   LIG    1       -0.136  12.131  -5.688  0.00  0.00    -0.130 A 
ATOM      7  C   LIG    1       -1.462  12.171  -5.512  0.00  0.00    -0.190 A 
ATOM      8  C   LIG    1       -2.391  13.168  -6.199  0.00  0.00    +0.120 C 
ATOM      9  C   LIG    1       -2.379  12.855  -7.698  0.00  0.00    +0.030 C 
ATOM     10  C   LIG    1       -1.161  13.447  -8.369  0.00  0.00    +0.000 C 
ATOM     11  C   LIG    1        0.153  12.774  -8.056  0.00  0.00    +0.010 C 
ATOM     12  C   LIG    1        0.615  13.077  -6.630  0.00  0.00    +0.110 C 
ATOM     13  S   LIG    1       -1.984  10.964  -4.422  0.00  0.00    +0.250 S 
ENDBRANCH   3   4
ENDBRANCH   1   3
BRANCH   1  14
ATOM     14  C   LIG    1       -0.393   7.545  -1.752  0.00  0.00    +0.270 C 
BRANCH  14  15
ATOM     15  C   LIG    1       -1.564   6.918  -1.040  0.00  0.00    +0.520 C 
ATOM     16  N   LIG    1       -1.365   5.887  -0.195  0.00  0.00    -0.610 N 
ATOM     17  C   LIG    1       -2.488   5.253   0.516  0.00  0.00    +0.290 C 
ATOM     18  C   LIG    1       -2.596   3.808   0.029  0.00  0.00    +0.070 C 
ATOM     19  C   LIG    1       -1.246   3.140   0.029  0.00  0.00    -0.070 A 
ATOM     20  C   LIG    1       -1.216   1.751   0.017  0.00  0.00    +0.000 A 
ATOM     21  C   LIG    1       -0.013   1.076   0.008  0.00  0.00    +0.010 A 
ATOM     22  C   LIG    1        1.174   1.785   0.000  0.00  0.00    +0.010 A 
ATOM     23  C   LIG    1        1.146   3.165   0.012  0.00  0.00    +0.020 A 
ATOM     24  C   LIG    1       -0.063   3.845   0.028  0.00  0.00    -0.100 A 
ATOM     25  C   LIG    1       -0.022   5.352   0.054  0.00  0.00    +0.330 C 
ATOM     26  O   LIG    1       -2.685   7.341  -1.227  0.00  0.00    -0.510 OA
ENDBRANCH  14  15
ENDBRANCH   1  14
TORSDOF 4
