REMARK  Name = ZINCrD00000rWoM3.0
REMARK                            x       y       z     vdW  Elec       q    Type
REMARK                         _______ _______ _______ _____ _____    ______ ____
ROOT
ATOM      1  N   LIG    1       -5.312   3.241   0.600  0.00  0.00    -0.430 N 
ATOM      2  C   LIG    1       -5.301   4.428   1.463  0.00  0.00    +0.210 C 
ATOM      3  C   LIG    1       -6.426   5.378   1.042  0.00  0.00    +0.070 C 
ATOM      4  C   LIG    1       -7.769   4.652   1.156  0.00  0.00    +0.080 C 
ATOM      5  C   LIG    1       -7.737   3.393   0.285  0.00  0.00    +0.060 C 
ATOM      6  C   LIG    1       -6.575   2.502   0.728  0.00  0.00    +0.230 C 
ENDROOT
BRANCH   4   7
ATOM      7  C   LIG    1       -8.874   5.562   0.686  0.00  0.00    +0.340 A 
ATOM      8  N   LIG    1       -8.845   6.018  -0.550  0.00  0.00    -0.510 NA
ATOM      9  C   LIG    1       -9.796   6.820  -1.005  0.00  0.00    +0.330 A 
ATOM     10  C   LIG    1      -10.834   7.181  -0.165  0.00  0.00    -0.070 A 
ATOM     11  C   LIG    1      -10.835   6.679   1.139  0.00  0.00    +0.230 A 
ATOM     12  N   LIG    1       -9.845   5.874   1.520  0.00  0.00    -0.510 NA
BRANCH  11  13
ATOM     13  C   LIG    1      -11.923   7.033   2.083  0.00  0.00    -0.120 A 
ATOM     14  C   LIG    1      -13.018   7.787   1.653  0.00  0.00    +0.090 A 
ATOM     15  C   LIG    1      -14.008   8.091   2.572  0.00  0.00    -0.040 A 
ATOM     16  C   LIG    1      -13.882   7.643   3.874  0.00  0.00    +0.280 A 
ATOM     17  N   LIG    1      -12.837   6.932   4.251  0.00  0.00    -0.490 NA
ATOM     18  C   LIG    1      -11.873   6.613   3.411  0.00  0.00    +0.320 A 
ENDBRANCH  11  13
ENDBRANCH   4   7
BRANCH   1  22
ATOM     19  C   LIG    1       -2.229   1.679   1.164  0.00  0.00    +0.190 A 
ATOM     20  N   LIG    1       -3.079   0.717   1.372  0.00  0.00    -0.260 NA
ATOM     21  N   LIG    1       -4.276   1.155   1.197  0.00  0.00    -0.320 NA
ATOM     22  C   LIG    1       -4.230   2.423   0.868  0.00  0.00    +0.350 A 
ATOM     23  O   LIG    1       -2.933   2.783   0.846  0.00  0.00    -0.220 OA
BRANCH  19  25
ATOM     24  C   LIG    1       -0.013   1.086   0.008  0.00  0.00    +0.100 C 
ATOM     25  C   LIG    1       -0.729   1.579   1.267  0.00  0.00    -0.050 C 
ATOM     26  C   LIG    1       -0.008   2.619   2.128  0.00  0.00    +0.050 C 
ATOM     27  C   LIG    1       -0.139   1.175   2.619  0.00  0.00    +0.080 C 
ENDBRANCH  19  25
ENDBRANCH   1  22
TORSDOF 4
