REMARK  Name = ZINCvU0000000BgH.0
REMARK                            x       y       z     vdW  Elec       q    Type
REMARK                         _______ _______ _______ _____ _____    ______ ____
ROOT
ATOM      1  C   LIG    1       -1.720  10.480  -0.769  0.00  0.00    +0.130 A 
ATOM      2  C   LIG    1       -0.469   9.903  -0.594  0.00  0.00    -0.040 A 
ATOM      3  C   LIG    1       -0.353   8.544  -0.413  0.00  0.00    +0.050 A 
ATOM      4  C   LIG    1       -1.499   7.736  -0.417  0.00  0.00    -0.110 A 
ATOM      5  C   LIG    1       -2.762   8.321  -0.595  0.00  0.00    +0.020 A 
ATOM      6  C   LIG    1       -2.868   9.685  -0.769  0.00  0.00    +0.100 A 
ENDROOT
BRANCH   1   8
ATOM      7  C   LIG    1       -0.615  12.578  -0.931  0.00  0.00    +0.250 C 
ATOM      8  O   LIG    1       -1.828  11.823  -0.941  0.00  0.00    -0.300 OA
ENDBRANCH   1   8
BRANCH   4   9
ATOM      9  C   LIG    1       -1.379   6.289  -0.231  0.00  0.00    +0.260 C 
ATOM     10  C   LIG    1       -0.295   5.615  -0.750  0.00  0.00    -0.140 C 
BRANCH  10  11
ATOM     11  C   LIG    1       -0.218   4.150  -0.642  0.00  0.00    +0.580 C 
ATOM     12  N   LIG    1        0.842   3.491  -1.149  0.00  0.00    -0.660 N 
ATOM     13  H   LIG    1        1.594   3.987  -1.510  0.00  0.00    +0.410 HD
ATOM     14  O   LIG    1       -1.112   3.533  -0.094  0.00  0.00    -0.510 OA
BRANCH  12  15
ATOM     15  C   LIG    1        0.859   2.092  -1.156  0.00  0.00    +0.120 A 
ATOM     16  C   LIG    1       -0.334   1.382  -1.141  0.00  0.00    +0.060 A 
ATOM     17  C   LIG    1       -0.315   0.000  -1.147  0.00  0.00    +0.030 A 
ATOM     18  C   LIG    1        0.890  -0.676  -1.169  0.00  0.00    +0.030 A 
ATOM     19  C   LIG    1        2.082   0.026  -1.184  0.00  0.00    +0.010 A 
ATOM     20  C   LIG    1        2.070   1.409  -1.178  0.00  0.00    +0.070 A 
ATOM     21  F   LIG    1        3.234   2.095  -1.193  0.00  0.00    -0.140 F 
ENDBRANCH  12  15
ENDBRANCH  10  11
BRANCH  10  22
ATOM     22  C   LIG    1        0.758   6.341  -1.395  0.00  0.00    +0.240 C 
ATOM     23  N   LIG    1        1.593   6.917  -1.907  0.00  0.00    -0.400 NA
ENDBRANCH  10  22
ENDBRANCH   4   9
BRANCH   6  24
ATOM     24  O   LIG    1       -4.090  10.255  -0.941  0.00  0.00    -0.290 OA
BRANCH  24  25
ATOM     25  C   LIG    1       -5.221   9.382  -0.931  0.00  0.00    +0.260 C 
BRANCH  25  26
ATOM     26  C   LIG    1       -6.479  10.186  -1.134  0.00  0.00    -0.090 A 
ATOM     27  C   LIG    1       -7.159  10.693  -0.043  0.00  0.00    +0.060 A 
ATOM     28  C   LIG    1       -8.310  11.435  -0.229  0.00  0.00    +0.030 A 
ATOM     29  C   LIG    1       -8.788  11.660  -1.508  0.00  0.00    -0.020 A 
ATOM     30  C   LIG    1       -8.110  11.148  -2.599  0.00  0.00    +0.030 A 
ATOM     31 CL   LIG    1      -10.238  12.585  -1.742  0.00  0.00    -0.060 Cl
ATOM     32  C   LIG    1       -6.956  10.411  -2.412  0.00  0.00    +0.060 A 
ENDBRANCH  25  26
ENDBRANCH  24  25
ENDBRANCH   6  24
TORSDOF 8
