REMARK  Name = ZINCpe000000Um8U.0
REMARK                            x       y       z     vdW  Elec       q    Type
REMARK                         _______ _______ _______ _____ _____    ______ ____
ROOT
ATOM      1  C   LIG    1       -4.516   5.457   0.076  0.00  0.00    +0.080 C 
ENDROOT
BRANCH   1   2
ATOM      2  C   LIG    1       -5.817   6.262   0.094  0.00  0.00    +0.060 C 
BRANCH   2   5
ATOM      3  C   LIG    1       -7.891   8.193   0.124  0.00  0.00    +0.290 C 
ATOM      4  N   LIG    1       -6.495   8.640   0.113  0.00  0.00    -0.610 N 
ATOM      5  C   LIG    1       -5.498   7.734   0.098  0.00  0.00    +0.520 C 
ATOM      6  O   LIG    1       -4.343   8.104   0.089  0.00  0.00    -0.520 OA
BRANCH   4   7
ATOM      7  C   LIG    1       -6.185  10.072   0.118  0.00  0.00    +0.270 C 
ATOM      8  C   LIG    1       -6.827  10.746   1.343  0.00  0.00    +0.060 C 
ATOM      9  C   LIG    1       -6.779  12.275   1.147  0.00  0.00    -0.310 C 
ATOM     10  S   LIG    1       -6.798  12.524  -0.665  0.00  0.00    +2.400 S 
ATOM     11  O   LIG    1       -8.035  13.111  -1.047  0.00  0.00    -0.930 OA
ATOM     12  O   LIG    1       -5.574  13.120  -1.071  0.00  0.00    -0.930 OA
ATOM     13  C   LIG    1       -6.796  10.752  -1.134  0.00  0.00    -0.330 C 
ENDBRANCH   4   7
ENDBRANCH   2   5
ENDBRANCH   1   2
BRANCH   1  14
ATOM     14  C   LIG    1       -4.840   3.962   0.072  0.00  0.00    +0.120 C 
BRANCH  14  15
ATOM     15  C   LIG    1       -3.558   3.170   0.055  0.00  0.00    +0.390 A 
ATOM     16  N   LIG    1       -2.433   3.819   0.047  0.00  0.00    -0.510 NA
ATOM     17  C   LIG    1       -1.240   3.174   0.032  0.00  0.00    +0.150 A 
ATOM     18  C   LIG    1       -0.031   3.870   0.024  0.00  0.00    +0.030 A 
ATOM     19  C   LIG    1        1.157   3.174   0.008  0.00  0.00    +0.070 A 
ATOM     20  C   LIG    1        1.168   1.786   0.001  0.00  0.00    -0.010 A 
ATOM     21  C   LIG    1       -0.013   1.076   0.008  0.00  0.00    +0.100 A 
ATOM     22  C   LIG    1       -1.225   1.761   0.017  0.00  0.00    -0.200 A 
ATOM     23  C   LIG    1       -2.517   1.057   0.032  0.00  0.00    +0.550 A 
ATOM     24  O   LIG    1       -2.574  -0.159   0.026  0.00  0.00    -0.510 OA
ATOM     25  N   LIG    1       -3.638   1.814   0.048  0.00  0.00    -0.650 N 
ATOM     26  H   LIG    1       -4.508   1.384   0.055  0.00  0.00    +0.420 HD
ENDBRANCH  14  15
ENDBRANCH   1  14
TORSDOF 5
