REMARK  Name = ZINC550000002EdC.0
REMARK                            x       y       z     vdW  Elec       q    Type
REMARK                         _______ _______ _______ _____ _____    ______ ____
ROOT
ATOM      1  N   GLY A  1       -2.433   0.981   0.019  0.00  0.00    -0.610 N 
ATOM      2  H1  GLY A  1       -3.314   1.474   0.026  0.00  0.00    +0.420 HD
ATOM      3  H2  GLY A  1       -2.368   0.397   0.839  0.00  0.00    +0.430 HD
ATOM      4  H3  GLY A  1       -2.376   0.406  -0.808  0.00  0.00    +0.430 HD
ENDROOT
BRANCH   1   5
ATOM      5  CA  GLY A  1       -1.330   1.951   0.019  0.00  0.00    +0.170 C 
BRANCH   5   6
ATOM      6  C   GLY A  1       -0.015   1.215   0.009  0.00  0.00    +0.480 C 
ATOM      7  OXT GLY A  1        1.033   1.839   0.002  0.00  0.00    -0.640 OA
ATOM      8  O   GLY A  1        0.002  -0.004   0.002  0.00  0.00    -0.680 OA
ENDBRANCH   5   6
ENDBRANCH   1   5
TORSDOF 2
