REMARK  Name = ZINCpe000000XJBL.0
REMARK                            x       y       z     vdW  Elec       q    Type
REMARK                         _______ _______ _______ _____ _____    ______ ____
ROOT
ATOM      1  S   LIG    1        1.077   3.790   0.585  0.00  0.00    +2.690 S 
ATOM      2  O   LIG    1       -0.246   4.208   0.280  0.00  0.00    -0.920 OA
ATOM      3  O   LIG    1        2.230   4.358  -0.021  0.00  0.00    -0.950 OA
ENDROOT
BRANCH   1   7
ATOM      4  C   LIG    1       -1.240  -0.860   0.026  0.00  0.00    +0.130 C 
ATOM      5  C   LIG    1        0.027  -0.044   0.010  0.00  0.00    -0.080 A 
ATOM      6  C   LIG    1       -0.020   1.311   0.269  0.00  0.00    +0.200 A 
ATOM      7  C   LIG    1        1.142   2.061   0.254  0.00  0.00    -0.650 A 
ATOM      8  C   LIG    1        2.354   1.456  -0.021  0.00  0.00    +0.130 A 
ATOM      9  C   LIG    1        2.408   0.100  -0.281  0.00  0.00    +0.000 A 
ATOM     10  C   LIG    1        1.243  -0.655  -0.266  0.00  0.00    +0.170 A 
BRANCH  10  11
ATOM     11  N   LIG    1        1.294  -2.031  -0.530  0.00  0.00    -0.330 N 
ATOM     12  C   LIG    1        2.397  -2.794  -0.700  0.00  0.00    +0.470 A 
ATOM     13  N   LIG    1        1.992  -4.016  -0.925  0.00  0.00    -0.320 NA
ATOM     14  N   LIG    1        0.710  -4.079  -0.909  0.00  0.00    -0.030 NA
ATOM     15  N   LIG    1        0.210  -2.915  -0.670  0.00  0.00    -0.070 NA
ENDBRANCH  10  11
ENDBRANCH   1   7
BRANCH   1  16
ATOM     16  O   LIG    1        1.250   3.968   2.087  0.00  0.00    -0.640 OA
BRANCH  16  17
ATOM     17  C   LIG    1        2.522   3.787   2.521  0.00  0.00    +0.120 A 
ATOM     18  C   LIG    1        3.397   4.860   2.581  0.00  0.00    +0.050 A 
ATOM     19  C   LIG    1        4.692   4.674   3.025  0.00  0.00    +0.080 A 
ATOM     20  C   LIG    1        5.126   3.417   3.412  0.00  0.00    +0.040 A 
ATOM     21  C   LIG    1        4.269   2.339   3.359  0.00  0.00    +0.070 A 
ATOM     22  C   LIG    1        2.955   2.514   2.918  0.00  0.00    -0.140 A 
BRANCH  22  23
ATOM     23  C   LIG    1        2.031   1.365   2.865  0.00  0.00    +0.550 C 
ATOM     24  O   LIG    1        0.889   1.521   2.477  0.00  0.00    -0.520 OA
ATOM     25  N   LIG    1        2.452   0.144   3.248  0.00  0.00    -0.840 N 
ATOM     26  H   LIG    1        1.844  -0.612   3.213  0.00  0.00    +0.410 HD
ATOM     27  H   LIG    1        3.363   0.019   3.558  0.00  0.00    +0.400 HD
ENDBRANCH  22  23
ENDBRANCH  16  17
ENDBRANCH   1  16
TORSDOF 5
