REMARK  Name = ZINCkj000005gFSQ.0
REMARK                            x       y       z     vdW  Elec       q    Type
REMARK                         _______ _______ _______ _____ _____    ______ ____
ROOT
ATOM      1  C   LIG    1       -1.187   2.136   0.019  0.00  0.00    +0.500 C 
ATOM      2  N   LIG    1       -0.018   1.465   0.010  0.00  0.00    -0.580 N 
ATOM      3  C   LIG    1        1.261   2.189   0.002  0.00  0.00    +0.280 C 
ATOM      4  C   LIG    1        2.103   1.689  -1.177  0.00  0.00    +0.030 C 
ATOM      5  C   LIG    1        2.242   0.168  -1.090  0.00  0.00    +0.050 C 
ATOM      6  C   LIG    1        0.858  -0.479  -1.176  0.00  0.00    +0.090 C 
ATOM      7  C   LIG    1        0.002  -0.004   0.002  0.00  0.00    +0.320 C 
ATOM      8  O   LIG    1       -2.236   1.527   0.021  0.00  0.00    -0.520 OA
ENDROOT
BRANCH   6   9
ATOM      9  C   LIG    1        0.999  -1.978  -1.123  0.00  0.00    +0.160 A 
ATOM     10  N   LIG    1        1.527  -2.672  -0.151  0.00  0.00    -0.280 NA
ATOM     11  N   LIG    1        1.482  -3.924  -0.439  0.00  0.00    -0.290 NA
ATOM     12  C   LIG    1        0.924  -4.087  -1.607  0.00  0.00    +0.380 A 
ATOM     13  N   LIG    1        0.597  -2.857  -2.073  0.00  0.00    -0.460 N 
BRANCH  13  14
ATOM     14  C   LIG    1       -0.057  -2.542  -3.345  0.00  0.00    +0.230 C 
ATOM     15  C   LIG    1       -1.427  -3.219  -3.397  0.00  0.00    +0.040 C 
ATOM     16  C   LIG    1        0.807  -3.049  -4.502  0.00  0.00    +0.060 C 
ENDBRANCH  13  14
ENDBRANCH   6   9
BRANCH   1  17
ATOM     17  C   LIG    1       -1.191   3.643   0.028  0.00  0.00    +0.180 C 
BRANCH  17  18
ATOM     18  N   LIG    1       -2.496   4.132  -0.437  0.00  0.00    -0.620 N 
ATOM     19  H   LIG    1       -2.664   3.800  -1.375  0.00  0.00    +0.440 HD
ATOM     20  H   LIG    1       -2.498   5.141  -0.432  0.00  0.00    +0.440 HD
ATOM     21  H   LIG    1       -3.220   3.790   0.176  0.00  0.00    +0.440 HD
ENDBRANCH  17  18
BRANCH  17  23
ATOM     22  C   LIG    1       -0.815   5.671   1.437  0.00  0.00    +0.060 C 
ATOM     23  C   LIG    1       -0.935   4.146   1.450  0.00  0.00    +0.070 C 
ENDBRANCH  17  23
ENDBRANCH   1  17
TORSDOF 5
