REMARK  Name = ZINCrg00000fRmmW.0
REMARK                            x       y       z     vdW  Elec       q    Type
REMARK                         _______ _______ _______ _____ _____    ______ ____
ROOT
ATOM      1  C   LIG    1       -0.389   0.889   2.402  0.00  0.00    +0.510 C 
ATOM      2  O   LIG    1        0.518   0.082   2.445  0.00  0.00    -0.500 OA
ENDROOT
BRANCH   1   7
ATOM      3  C   LIG    1       -0.864   1.669   6.049  0.00  0.00    +0.150 A 
ATOM      4  C   LIG    1       -1.902   2.591   5.992  0.00  0.00    +0.040 A 
ATOM      5  C   LIG    1       -2.443   2.956   4.773  0.00  0.00    +0.030 A 
ATOM      6  C   LIG    1       -1.956   2.406   3.605  0.00  0.00    +0.080 A 
ATOM      7  C   LIG    1       -0.912   1.479   3.651  0.00  0.00    -0.110 A 
ATOM      8  C   LIG    1       -0.370   1.107   4.882  0.00  0.00    +0.090 A 
BRANCH   3  10
ATOM      9  C   LIG    1        0.990   1.002   7.384  0.00  0.00    +0.650 C 
ATOM     10  N   LIG    1       -0.320   1.303   7.286  0.00  0.00    -0.650 N 
ATOM     11  H   LIG    1       -0.886   1.267   8.073  0.00  0.00    +0.420 HD
ATOM     12  O   LIG    1        1.718   1.141   6.422  0.00  0.00    -0.550 OA
BRANCH   9  13
ATOM     13  O   LIG    1        1.491   0.547   8.548  0.00  0.00    -0.370 OA
BRANCH  13  15
ATOM     14  C   LIG    1        3.293  -0.256   9.976  0.00  0.00    +0.080 C 
ATOM     15  C   LIG    1        2.910   0.243   8.581  0.00  0.00    +0.220 C 
ENDBRANCH  13  15
ENDBRANCH   9  13
ENDBRANCH   3  10
ENDBRANCH   1   7
BRANCH   1  16
ATOM     16  O   LIG    1       -0.918   1.245   1.216  0.00  0.00    -0.330 OA
BRANCH  16  17
ATOM     17  C   LIG    1       -0.354   0.625   0.030  0.00  0.00    +0.270 C 
BRANCH  17  18
ATOM     18  C   LIG    1       -1.066   1.141  -1.194  0.00  0.00    +0.520 C 
ATOM     19  N   LIG    1       -0.709   0.702  -2.417  0.00  0.00    -0.600 N 
ATOM     20  C   LIG    1        0.372  -0.277  -2.557  0.00  0.00    +0.290 C 
ATOM     21  O   LIG    1       -1.960   1.952  -1.078  0.00  0.00    -0.510 OA
BRANCH  19  22
ATOM     22  C   LIG    1       -1.401   1.204  -3.606  0.00  0.00    +0.270 C 
ATOM     23  C   LIG    1       -0.399   1.901  -4.544  0.00  0.00    +0.060 C 
ATOM     24  C   LIG    1       -1.070   2.111  -5.916  0.00  0.00    -0.310 C 
ATOM     25  S   LIG    1       -2.301   0.765  -6.055  0.00  0.00    +2.400 S 
ATOM     26  O   LIG    1       -1.889  -0.148  -7.063  0.00  0.00    -0.930 OA
ATOM     27  O   LIG    1       -3.607   1.324  -6.095  0.00  0.00    -0.930 OA
ATOM     28  C   LIG    1       -2.008   0.022  -4.405  0.00  0.00    -0.320 C 
ENDBRANCH  19  22
ENDBRANCH  17  18
ENDBRANCH  16  17
ENDBRANCH   1  16
TORSDOF 8
