REMARK  Name = ZINCnE000008J3u4.0
REMARK                            x       y       z     vdW  Elec       q    Type
REMARK                         _______ _______ _______ _____ _____    ______ ____
ROOT
ATOM      1  C   LIG    1       -3.177   1.896  -1.191  0.00  0.00    +0.540 C 
ATOM      2  N   LIG    1       -2.109   1.208  -1.642  0.00  0.00    -0.690 N 
ATOM      3  H   LIG    1       -2.238   0.396  -2.157  0.00  0.00    +0.390 HD
ATOM      4  O   LIG    1       -3.018   2.859  -0.471  0.00  0.00    -0.520 OA
ENDROOT
BRANCH   1   7
ATOM      5  C   LIG    1       -5.738   2.292  -1.038  0.00  0.00    +0.060 C 
ATOM      6  C   LIG    1       -5.464   0.892  -0.484  0.00  0.00    +0.060 C 
ATOM      7  C   LIG    1       -4.568   1.469  -1.582  0.00  0.00    -0.060 C 
BRANCH   5  12
ATOM      8  C   LIG    1       -4.131   5.891   2.761  0.00  0.00    +0.130 C 
ATOM      9  C   LIG    1       -4.674   5.116   1.588  0.00  0.00    -0.210 A 
ATOM     10  C   LIG    1       -5.328   5.645   0.553  0.00  0.00    -0.030 A 
ATOM     11  C   LIG    1       -5.734   4.735  -0.408  0.00  0.00    -0.020 A 
ATOM     12  C   LIG    1       -5.411   3.466  -0.153  0.00  0.00    -0.140 A 
ATOM     13  S   LIG    1       -4.551   3.374   1.379  0.00  0.00    +0.200 S 
ENDBRANCH   5  12
ENDBRANCH   1   7
BRANCH   2  14
ATOM     14  C   LIG    1       -0.755   1.686  -1.354  0.00  0.00    +0.310 C 
BRANCH  14  15
ATOM     15  C   LIG    1       -0.342   2.687  -2.402  0.00  0.00    -0.080 A 
ATOM     16  C   LIG    1       -0.666   2.472  -3.728  0.00  0.00    +0.010 A 
ATOM     17  C   LIG    1       -0.292   3.393  -4.689  0.00  0.00    +0.000 A 
ATOM     18  C   LIG    1        0.416   4.522  -4.325  0.00  0.00    -0.020 A 
ATOM     19  C   LIG    1        0.746   4.734  -2.999  0.00  0.00    +0.000 A 
ATOM     20  C   LIG    1        0.366   3.817  -2.038  0.00  0.00    +0.010 A 
ENDBRANCH  14  15
BRANCH  14  21
ATOM     21  C   LIG    1        0.217   0.504  -1.367  0.00  0.00    -0.060 C 
BRANCH  21  22
ATOM     22  C   LIG    1       -0.113  -0.429  -0.230  0.00  0.00    +0.490 C 
ATOM     23  O   LIG    1        0.591  -1.402  -0.016  0.00  0.00    -0.710 OA
ATOM     24  O   LIG    1       -1.083  -0.212   0.476  0.00  0.00    -0.680 OA
ENDBRANCH  21  22
ENDBRANCH  14  21
ENDBRANCH   2  14
TORSDOF 6
