REMARK  Name = ZINCpe000000XH6C.0
REMARK                            x       y       z     vdW  Elec       q    Type
REMARK                         _______ _______ _______ _____ _____    ______ ____
ROOT
ATOM      1  N   LIG    1       -0.018   1.465   0.010  0.00  0.00    -0.470 N 
ATOM      2  C   LIG    1        1.344   2.016   0.000  0.00  0.00    +0.200 C 
ATOM      3  C   LIG    1        2.072   1.594   1.280  0.00  0.00    +0.300 C 
ATOM      4  N   LIG    1        1.995   0.130   1.400  0.00  0.00    -0.620 N 
ATOM      5  C   LIG    1        0.675  -0.509   1.282  0.00  0.00    +0.290 C 
ATOM      6  C   LIG    1        3.103  -0.607   1.612  0.00  0.00    +0.520 C 
ATOM      7  O   LIG    1        3.022  -1.813   1.708  0.00  0.00    -0.520 OA
ATOM      8  C   LIG    1        0.002  -0.004   0.002  0.00  0.00    +0.210 C 
ENDROOT
BRANCH   1  12
ATOM      9  C   LIG    1       -1.855   5.249  -2.546  0.00  0.00    +0.140 C 
ATOM     10  C   LIG    1       -1.662   3.774  -2.305  0.00  0.00    +0.190 A 
ATOM     11  C   LIG    1       -0.916   3.333  -1.230  0.00  0.00    -0.100 A 
ATOM     12  C   LIG    1       -0.761   1.957  -1.051  0.00  0.00    +0.360 A 
ATOM     13  N   LIG    1       -1.342   1.127  -1.911  0.00  0.00    -0.560 NA
ATOM     14  C   LIG    1       -2.050   1.592  -2.921  0.00  0.00    +0.360 A 
ATOM     15  N   LIG    1       -2.211   2.884  -3.120  0.00  0.00    -0.530 NA
BRANCH  14  16
ATOM     16  C   LIG    1       -2.693   0.618  -3.874  0.00  0.00    +0.060 C 
ATOM     17  C   LIG    1       -2.156   0.857  -5.287  0.00  0.00    +0.050 C 
ATOM     18  C   LIG    1       -4.210   0.821  -3.864  0.00  0.00    +0.050 C 
ENDBRANCH  14  16
ENDBRANCH   1  12
BRANCH   6  19
ATOM     19  C   LIG    1        4.445   0.069   1.730  0.00  0.00    +0.220 C 
BRANCH  19  20
ATOM     20  N   LIG    1        5.485  -0.943   1.957  0.00  0.00    -0.520 NA
ATOM     21  C   LIG    1        5.312  -1.592   3.264  0.00  0.00    +0.150 C 
ATOM     22  C   LIG    1        6.378  -2.679   3.434  0.00  0.00    +0.230 C 
ATOM     23  O   LIG    1        7.675  -2.094   3.287  0.00  0.00    -0.390 OA
ATOM     24  C   LIG    1        7.878  -1.454   2.025  0.00  0.00    +0.220 C 
ATOM     25  C   LIG    1        6.828  -0.355   1.841  0.00  0.00    +0.160 C 
ENDBRANCH  19  20
ENDBRANCH   6  19
TORSDOF 4
