REMARK  Name = ZINCpk000005RvvY.0
REMARK                            x       y       z     vdW  Elec       q    Type
REMARK                         _______ _______ _______ _____ _____    ______ ____
ROOT
ATOM      1  C   LIG    1        4.587  -5.225   0.580  0.00  0.00    -0.010 C 
ATOM      2  C   LIG    1        5.354  -4.317   1.577  0.00  0.00    +0.030 C 
ATOM      3  C   LIG    1        6.256  -5.316   2.331  0.00  0.00    +0.240 C 
ATOM      4  N   LIG    1        6.408  -6.500   1.472  0.00  0.00    -0.620 N 
ATOM      5  C   LIG    1        7.109  -7.610   1.781  0.00  0.00    +0.530 C 
ATOM      6  O   LIG    1        7.166  -8.530   0.993  0.00  0.00    -0.520 OA
ATOM      7  C   LIG    1        5.668  -6.273   0.218  0.00  0.00    +0.280 C 
ENDROOT
BRANCH   1   8
ATOM      8  C   LIG    1        4.151  -4.436  -0.656  0.00  0.00    +0.350 C 
BRANCH   8  11
ATOM      9  C   LIG    1        1.814  -1.776  -0.024  0.00  0.00    +0.050 A 
ATOM     10  C   LIG    1        3.020  -2.202  -0.499  0.00  0.00    +0.190 A 
ATOM     11  N   LIG    1        3.047  -3.541  -0.301  0.00  0.00    -0.290 N 
ATOM     12  N   LIG    1        1.941  -3.894   0.252  0.00  0.00    -0.070 NA
ATOM     13  N   LIG    1        1.184  -2.871   0.437  0.00  0.00    -0.250 NA
BRANCH   9  16
ATOM     14  C   LIG    1       -1.197  -0.917   0.009  0.00  0.00    +0.200 C 
ATOM     15  C   LIG    1        0.002  -0.004   0.002  0.00  0.00    -0.000 A 
ATOM     16  C   LIG    1        1.303  -0.381  -0.012  0.00  0.00    +0.050 A 
ATOM     17  N   LIG    1        2.050   0.745  -0.013  0.00  0.00    -0.480 NA
ATOM     18  C   LIG    1        1.252   1.774  -0.000  0.00  0.00    +0.430 A 
ATOM     19  O   LIG    1       -0.016   1.343   0.009  0.00  0.00    -0.200 OA
ENDBRANCH   9  16
ENDBRANCH   8  11
ENDBRANCH   1   8
BRANCH   5  20
ATOM     20  C   LIG    1        7.820  -7.707   3.106  0.00  0.00    +0.030 C 
BRANCH  20  21
ATOM     21  C   LIG    1        8.534  -9.057   3.204  0.00  0.00    +0.240 C 
BRANCH  21  22
ATOM     22  C   LIG    1        9.151  -9.208   4.595  0.00  0.00    -0.050 C 
ATOM     23  C   LIG    1       10.159  -8.081   4.831  0.00  0.00    +0.020 C 
ATOM     24  C   LIG    1        9.865 -10.558   4.693  0.00  0.00    +0.030 C 
ENDBRANCH  21  22
BRANCH  21  25
ATOM     25  O   LIG    1        9.564  -9.124   2.216  0.00  0.00    -0.540 OA
ATOM     26  H   LIG    1       10.239  -8.438   2.304  0.00  0.00    +0.370 HD
ENDBRANCH  21  25
ENDBRANCH  20  21
ENDBRANCH   5  20
TORSDOF 7
