REMARK  Name = ZINCpk00000ebnFd.0
REMARK                            x       y       z     vdW  Elec       q    Type
REMARK                         _______ _______ _______ _____ _____    ______ ____
ROOT
ATOM      1  O   LIG    1       -4.194   4.641   1.735  0.00  0.00    -0.350 OA
ENDROOT
BRANCH   1   2
ATOM      2  C   LIG    1       -3.031   4.026   1.473  0.00  0.00    +0.470 C 
ATOM      3  O   LIG    1       -2.360   3.590   2.378  0.00  0.00    -0.480 OA
BRANCH   2   4
ATOM      4  C   LIG    1       -2.561   3.878   0.049  0.00  0.00    +0.080 C 
ATOM      5  C   LIG    1       -3.592   3.088  -0.764  0.00  0.00    +0.320 C 
ATOM      6  N   LIG    1       -3.637   1.694  -0.331  0.00  0.00    -0.730 N 
ATOM      7  H   LIG    1       -4.490   1.233  -0.294  0.00  0.00    +0.410 HD
ATOM      8  C   LIG    1       -2.513   1.034   0.017  0.00  0.00    +0.570 C 
ATOM      9  C   LIG    1       -1.225   1.760   0.017  0.00  0.00    -0.120 A 
ATOM     10  C   LIG    1       -0.013   1.076   0.008  0.00  0.00    +0.080 A 
ATOM     11  C   LIG    1        1.171   1.787   0.001  0.00  0.00    +0.010 A 
ATOM     12  C   LIG    1        1.152   3.170   0.007  0.00  0.00    +0.040 A 
ATOM     13  C   LIG    1       -0.052   3.855   0.022  0.00  0.00    +0.020 A 
ATOM     14  O   LIG    1       -2.559  -0.140   0.327  0.00  0.00    -0.520 OA
ATOM     15  C   LIG    1       -1.239   3.157   0.030  0.00  0.00    -0.050 A 
ENDBRANCH   2   4
ENDBRANCH   1   2
BRANCH   1  16
ATOM     16  C   LIG    1       -4.584   4.747   3.130  0.00  0.00    +0.290 C 
BRANCH  16  20
ATOM     17  C   LIG    1       -8.339   6.777   3.409  0.00  0.00    -0.110 A 
ATOM     18  C   LIG    1       -7.754   6.553   2.163  0.00  0.00    +0.090 A 
ATOM     19  C   LIG    1       -6.542   5.898   2.080  0.00  0.00    +0.070 A 
ATOM     20  C   LIG    1       -5.907   5.463   3.229  0.00  0.00    -0.100 A 
ATOM     21  C   LIG    1       -6.485   5.676   4.470  0.00  0.00    +0.100 A 
ATOM     22  F   LIG    1       -5.862   5.243   5.588  0.00  0.00    -0.130 F 
ATOM     23  C   LIG    1       -7.695   6.337   4.566  0.00  0.00    +0.020 A 
BRANCH  17  27
ATOM     24  N   LIG    1      -10.200   7.694   4.710  0.00  0.00    -0.850 N 
ATOM     25  H   LIG    1      -11.052   8.155   4.772  0.00  0.00    +0.410 HD
ATOM     26  H   LIG    1       -9.754   7.389   5.515  0.00  0.00    +0.400 HD
ATOM     27  C   LIG    1       -9.637   7.479   3.504  0.00  0.00    +0.560 C 
ATOM     28  O   LIG    1      -10.196   7.862   2.495  0.00  0.00    -0.530 OA
ENDBRANCH  17  27
ENDBRANCH  16  20
ENDBRANCH   1  16
TORSDOF 5
