REMARK  Name = ZINCrg000000tcJO.0
REMARK                            x       y       z     vdW  Elec       q    Type
REMARK                         _______ _______ _______ _____ _____    ______ ____
ROOT
ATOM      1  O   LIG    1       -1.998  -0.213   0.166  0.00  0.00    -0.440 OA
ATOM      2  C   LIG    1       -0.968  -0.851   0.129  0.00  0.00    +0.520 C 
ATOM      3  N   LIG    1        0.221  -0.215   0.138  0.00  0.00    -0.690 N 
ATOM      4  H   LIG    1        1.044  -0.726   0.108  0.00  0.00    +0.410 HD
ATOM      5  C   LIG    1        0.264   1.131   0.189  0.00  0.00    +0.690 C 
ATOM      6  N   LIG    1        1.452   1.768   0.198  0.00  0.00    -0.730 N 
ATOM      7  H   LIG    1        2.276   1.257   0.168  0.00  0.00    +0.400 HD
ATOM      8  O   LIG    1       -0.769   1.771   0.221  0.00  0.00    -0.530 OA
ENDROOT
BRANCH   6   9
ATOM      9  C   LIG    1        1.498   3.231   0.253  0.00  0.00    +0.340 C 
BRANCH   9  10
ATOM     10  C   LIG    1        2.934   3.688   0.252  0.00  0.00    -0.110 A 
ATOM     11  C   LIG    1        3.606   3.857   1.448  0.00  0.00    +0.020 A 
ATOM     12  C   LIG    1        4.925   4.272   1.448  0.00  0.00    +0.010 A 
ATOM     13  C   LIG    1        5.569   4.527   0.252  0.00  0.00    +0.010 A 
ATOM     14  C   LIG    1        4.895   4.362  -0.945  0.00  0.00    +0.010 A 
ATOM     15  C   LIG    1        3.578   3.943  -0.944  0.00  0.00    +0.030 A 
ENDBRANCH   9  10
ENDBRANCH   6   9
BRANCH   2  16
ATOM     16  C   LIG    1       -1.016  -2.357   0.072  0.00  0.00    +0.230 C 
BRANCH  16  17
ATOM     17  N   LIG    1       -2.416  -2.802   0.073  0.00  0.00    -0.520 NA
ATOM     18  C   LIG    1       -3.073  -2.472   1.344  0.00  0.00    +0.190 C 
ATOM     19  C   LIG    1       -4.569  -2.786   1.239  0.00  0.00    +0.310 C 
ATOM     20  N   LIG    1       -4.723  -4.182   0.803  0.00  0.00    -0.610 N 
ATOM     21  C   LIG    1       -3.984  -4.625  -0.388  0.00  0.00    +0.300 C 
ATOM     22  C   LIG    1       -5.521  -5.033   1.479  0.00  0.00    +0.600 C 
ATOM     23  O   LIG    1       -5.688  -6.166   1.068  0.00  0.00    -0.520 OA
ATOM     24  C   LIG    1       -2.511  -4.239  -0.219  0.00  0.00    +0.180 C 
BRANCH  22  25
ATOM     25  C   LIG    1       -6.187  -4.594   2.709  0.00  0.00    -0.080 A 
ATOM     26  C   LIG    1       -6.908  -5.384   3.558  0.00  0.00    +0.050 A 
ATOM     27  C   LIG    1       -7.359  -4.555   4.597  0.00  0.00    -0.060 A 
ATOM     28  C   LIG    1       -6.905  -3.309   4.336  0.00  0.00    +0.200 A 
ATOM     29  O   LIG    1       -6.200  -3.337   3.198  0.00  0.00    -0.160 OA
ENDBRANCH  22  25
ENDBRANCH  16  17
ENDBRANCH   2  16
TORSDOF 5
