REMARK  Name = ZINCvU00000005an.0
REMARK                            x       y       z     vdW  Elec       q    Type
REMARK                         _______ _______ _______ _____ _____    ______ ____
ROOT
ATOM      1  N   LIG    1        2.009   2.966   2.479  0.00  0.00    -0.720 N 
ATOM      2  H   LIG    1        1.508   3.721   2.133  0.00  0.00    +0.400 HD
ATOM      3  C   LIG    1        3.334   3.080   2.696  0.00  0.00    +0.550 C 
ATOM      4  O   LIG    1        3.963   2.133   3.130  0.00  0.00    -0.510 OA
ENDROOT
BRANCH   3   5
ATOM      5  C   LIG    1        4.022   4.350   2.406  0.00  0.00    -0.130 A 
ATOM      6  C   LIG    1        3.305   5.440   1.906  0.00  0.00    +0.070 A 
ATOM      7  C   LIG    1        3.954   6.626   1.638  0.00  0.00    -0.010 A 
ATOM      8  C   LIG    1        5.317   6.744   1.860  0.00  0.00    +0.060 A 
ATOM      9  C   LIG    1        6.040   5.678   2.353  0.00  0.00    -0.020 A 
ATOM     10  C   LIG    1        5.402   4.475   2.635  0.00  0.00    -0.050 A 
BRANCH  10  11
ATOM     11  S   LIG    1        6.322   3.113   3.271  0.00  0.00    +0.020 S 
BRANCH  11  12
ATOM     12  C   LIG    1        8.007   3.775   3.381  0.00  0.00    +0.100 C 
BRANCH  12  13
ATOM     13  C   LIG    1        8.930   2.711   3.917  0.00  0.00    -0.170 A 
ATOM     14  C   LIG    1        9.601   1.828   3.175  0.00  0.00    +0.020 A 
ATOM     15  C   LIG    1       10.390   0.944   3.890  0.00  0.00    +0.000 A 
ATOM     16  C   LIG    1       10.360   1.109   5.213  0.00  0.00    -0.040 A 
ATOM     17  S   LIG    1        9.294   2.448   5.618  0.00  0.00    +0.120 S 
ENDBRANCH  12  13
ENDBRANCH  11  12
ENDBRANCH  10  11
ENDBRANCH   3   5
BRANCH   1  18
ATOM     18  C   LIG    1        1.325   1.703   2.768  0.00  0.00    +0.350 C 
BRANCH  18  25
ATOM     19  C   LIG    1       -0.944   2.667   4.758  0.00  0.00    +0.150 C 
ATOM     20  C   LIG    1       -1.142   2.264   3.320  0.00  0.00    +0.090 A 
ATOM     21  N   LIG    1       -2.281   2.253   2.676  0.00  0.00    -0.290 NA
ATOM     22  N   LIG    1       -2.039   1.824   1.365  0.00  0.00    -0.360 N 
ATOM     23  C   LIG    1       -0.718   1.572   1.248  0.00  0.00    +0.110 A 
ATOM     24  C   LIG    1       -0.013   1.086   0.008  0.00  0.00    +0.140 C 
ATOM     25  C   LIG    1       -0.140   1.839   2.442  0.00  0.00    -0.270 A 
BRANCH  22  26
ATOM     26  C   LIG    1       -3.042   1.673   0.308  0.00  0.00    +0.380 C 
BRANCH  26  27
ATOM     27  C   LIG    1       -3.607   0.277   0.347  0.00  0.00    -0.120 A 
ATOM     28  C   LIG    1       -3.017  -0.729  -0.395  0.00  0.00    +0.020 A 
ATOM     29  C   LIG    1       -3.533  -2.011  -0.355  0.00  0.00    +0.010 A 
ATOM     30  C   LIG    1       -4.644  -2.285   0.420  0.00  0.00    +0.010 A 
ATOM     31  C   LIG    1       -5.237  -1.278   1.158  0.00  0.00    +0.010 A 
ATOM     32  C   LIG    1       -4.719   0.003   1.122  0.00  0.00    +0.030 A 
ENDBRANCH  26  27
ENDBRANCH  22  26
ENDBRANCH  18  25
ENDBRANCH   1  18
TORSDOF 8
