REMARK  Name = ZINCpe00000gN0qR.0
REMARK                            x       y       z     vdW  Elec       q    Type
REMARK                         _______ _______ _______ _____ _____    ______ ____
ROOT
ATOM      1  C   LIG    1       -4.933   1.866   0.033  0.00  0.00    +0.240 C 
ATOM      2  C   LIG    1       -5.389   1.603  -1.405  0.00  0.00    +0.020 C 
ATOM      3  C   LIG    1       -6.862   1.188  -1.401  0.00  0.00    +0.180 C 
ATOM      4  N   LIG    1       -7.671   2.256  -0.799  0.00  0.00    -0.510 NA
ATOM      5  C   LIG    1       -7.283   2.493   0.597  0.00  0.00    +0.180 C 
ATOM      6  C   LIG    1       -5.823   2.948   0.652  0.00  0.00    +0.040 C 
ENDROOT
BRANCH   1   8
ATOM      7  C   LIG    1       -2.538   1.420   0.020  0.00  0.00    +0.600 C 
ATOM      8  N   LIG    1       -3.540   2.321   0.029  0.00  0.00    -0.720 N 
ATOM      9  H   LIG    1       -3.340   3.270   0.034  0.00  0.00    +0.400 HD
ATOM     10  O   LIG    1       -2.789   0.231   0.015  0.00  0.00    -0.550 OA
BRANCH   7  14
ATOM     11  C   LIG    1        2.458   1.452  -0.013  0.00  0.00    +0.360 C 
ATOM     12  N   LIG    1        1.059   1.885   0.002  0.00  0.00    -0.360 N 
ATOM     13  C   LIG    1       -0.013   1.076   0.008  0.00  0.00    +0.320 A 
ATOM     14  C   LIG    1       -1.136   1.878   0.017  0.00  0.00    -0.300 A 
ATOM     15  C   LIG    1       -0.692   3.219   0.025  0.00  0.00    +0.270 A 
ATOM     16  N   LIG    1        0.613   3.212   0.013  0.00  0.00    -0.300 NA
ENDBRANCH   7  14
ENDBRANCH   1   8
BRANCH   4  17
ATOM     17  C   LIG    1       -9.104   1.952  -0.903  0.00  0.00    +0.190 C 
BRANCH  17  18
ATOM     18  C   LIG    1       -9.418   1.476  -2.298  0.00  0.00    -0.090 A 
ATOM     19  C   LIG    1       -8.822   2.086  -3.386  0.00  0.00    +0.040 A 
ATOM     20  C   LIG    1       -9.105   1.646  -4.666  0.00  0.00    +0.000 A 
ATOM     21  C   LIG    1       -9.992   0.603  -4.858  0.00  0.00    +0.010 A 
ATOM     22  C   LIG    1      -10.592  -0.003  -3.770  0.00  0.00    +0.000 A 
ATOM     23  C   LIG    1      -10.305   0.433  -2.490  0.00  0.00    +0.010 A 
ENDBRANCH  17  18
BRANCH  17  24
ATOM     24  C   LIG    1       -9.904   3.193  -0.604  0.00  0.00    +0.530 C 
ATOM     25  O   LIG    1       -9.336   4.230  -0.332  0.00  0.00    -0.520 OA
ATOM     26  N   LIG    1      -11.251   3.152  -0.640  0.00  0.00    -0.850 N 
ATOM     27  H   LIG    1      -11.766   3.952  -0.448  0.00  0.00    +0.400 HD
ATOM     28  H   LIG    1      -11.705   2.324  -0.858  0.00  0.00    +0.400 HD
ENDBRANCH  17  24
ENDBRANCH   4  17
TORSDOF 5
