REMARK  Name = ZINCkj000005kRne.1
REMARK                            x       y       z     vdW  Elec       q    Type
REMARK                         _______ _______ _______ _____ _____    ______ ____
ROOT
ATOM      1  N   LIG    1       -0.154   0.845   4.841  0.00  0.00    -1.110 NA
ATOM      2  H   LIG    1        0.520   0.154   4.742  0.00  0.00    +0.430 HD
ENDROOT
BRANCH   1   3
ATOM      3  S   LIG    1       -0.553   1.401   6.349  0.00  0.00    +2.730 S 
ATOM      4  O   LIG    1       -0.525   2.820   6.274  0.00  0.00    -0.940 OA
ATOM      5  O   LIG    1        0.229   0.656   7.272  0.00  0.00    -0.920 OA
BRANCH   3  12
ATOM      6  C   LIG    1       -1.911  -1.393   7.746  0.00  0.00    +0.180 C 
ATOM      7  C   LIG    1       -2.726  -0.234   7.232  0.00  0.00    +0.110 A 
ATOM      8  N   LIG    1       -4.023  -0.126   7.243  0.00  0.00    -0.350 NA
ATOM      9  O   LIG    1       -4.387   0.921   6.761  0.00  0.00    +0.110 OA
ATOM     10  C   LIG    1       -3.348   1.667   6.361  0.00  0.00    +0.110 A 
ATOM     11  C   LIG    1       -3.409   3.030   5.721  0.00  0.00    +0.220 C 
ATOM     12  C   LIG    1       -2.232   0.953   6.642  0.00  0.00    -0.810 A 
ENDBRANCH   3  12
ENDBRANCH   1   3
BRANCH   1  13
ATOM     13  C   LIG    1       -0.819   1.396   3.657  0.00  0.00    +0.280 C 
BRANCH  13  14
ATOM     14  C   LIG    1       -0.032   1.006   2.404  0.00  0.00    +0.260 C 
BRANCH  14  15
ATOM     15  N   LIG    1       -0.699   1.559   1.217  0.00  0.00    -0.380 N 
ATOM     16  C   LIG    1       -0.013   1.086   0.008  0.00  0.00    +0.250 C 
ATOM     17  C   LIG    1       -0.752   1.592  -1.233  0.00  0.00    +0.060 C 
ATOM     18  C   LIG    1       -0.769   3.123  -1.220  0.00  0.00    -0.020 C 
ATOM     19  C   LIG    1       -1.420   3.606   0.080  0.00  0.00    +0.060 C 
ATOM     20  C   LIG    1       -1.573   3.635  -2.417  0.00  0.00    +0.050 C 
ATOM     21  C   LIG    1       -0.656   3.025   1.272  0.00  0.00    +0.240 C 
ATOM     22  H   LIG    1       -1.659   1.251   1.199  0.00  0.00    +0.420 HD
ENDBRANCH  14  15
ENDBRANCH  13  14
ENDBRANCH   1  13
TORSDOF 5
