REMARK  Name = ZINCkj000018REb4.1
REMARK                            x       y       z     vdW  Elec       q    Type
REMARK                         _______ _______ _______ _____ _____    ______ ____
ROOT
ATOM      1  N   LIG    1       -3.014   2.199  -1.545  0.00  0.00    -0.560 NA
ATOM      2  C   LIG    1       -2.158   1.025  -1.228  0.00  0.00    +0.220 C 
ATOM      3  C   LIG    1       -0.685   1.560  -1.297  0.00  0.00    +0.050 C 
ATOM      4  C   LIG    1       -0.013   1.086   0.008  0.00  0.00    +0.030 C 
ATOM      5  C   LIG    1       -0.661   1.547   1.331  0.00  0.00    +0.260 C 
ATOM      6  N   LIG    1       -0.656   3.058   1.270  0.00  0.00    -0.520 N 
ATOM      7  C   LIG    1       -2.037   3.463   1.634  0.00  0.00    +0.250 C 
ATOM      8  C   LIG    1       -3.190   2.916   0.767  0.00  0.00    +0.250 C 
ATOM      9  F   LIG    1       -3.207   1.518   0.810  0.00  0.00    -0.160 F 
ATOM     10  F   LIG    1       -4.414   3.431   1.208  0.00  0.00    -0.140 F 
ATOM     11  H   LIG    1        0.006   3.436   1.931  0.00  0.00    +0.440 HD
ATOM     12  H   LIG    1       -0.434   3.369   0.336  0.00  0.00    +0.430 HD
ATOM     13  C   LIG    1       -2.887   3.411  -0.691  0.00  0.00    +0.260 C 
ENDROOT
BRANCH   1  14
ATOM     14  C   LIG    1       -4.421   1.801  -1.688  0.00  0.00    +0.320 C 
BRANCH  14  19
ATOM     15  C   LIG    1       -6.474   4.842  -1.869  0.00  0.00    +0.360 A 
ATOM     16  C   LIG    1       -6.625   5.000  -3.246  0.00  0.00    -0.080 A 
ATOM     17  C   LIG    1       -6.030   4.074  -4.082  0.00  0.00    +0.360 A 
ATOM     18  N   LIG    1       -5.340   3.075  -3.552  0.00  0.00    -0.520 NA
ATOM     19  C   LIG    1       -5.216   2.954  -2.245  0.00  0.00    +0.350 A 
ATOM     20  N   LIG    1       -5.771   3.812  -1.413  0.00  0.00    -0.570 NA
BRANCH  15  22
ATOM     21  C   LIG    1       -6.835   5.492   0.386  0.00  0.00    +0.260 C 
ATOM     22  O   LIG    1       -7.038   5.724  -1.009  0.00  0.00    -0.300 OA
ENDBRANCH  15  22
ENDBRANCH  14  19
ENDBRANCH   1  14
TORSDOF 3
