REMARK  Name = ZINCqH0000003IBF.0
REMARK                            x       y       z     vdW  Elec       q    Type
REMARK                         _______ _______ _______ _____ _____    ______ ____
ROOT
ATOM      1  C   LIG    1        2.485   1.036  -0.017  0.00  0.00    +0.340 C 
ENDROOT
BRANCH   1   2
ATOM      2  C   LIG    1        1.174   1.778   0.000  0.00  0.00    -0.110 A 
ATOM      3  C   LIG    1       -0.013   1.076   0.008  0.00  0.00    +0.060 A 
ATOM      4  C   LIG    1       -1.230   1.752   0.017  0.00  0.00    +0.070 A 
ATOM      5  C   LIG    1       -1.227   3.141   0.039  0.00  0.00    -0.120 A 
ATOM      6  C   LIG    1       -2.676   3.588   0.072  0.00  0.00    +0.080 C 
ATOM      7  C   LIG    1       -3.405   2.282   0.469  0.00  0.00    +0.200 C 
ATOM      8  C   LIG    1       -3.595   2.206   1.985  0.00  0.00    +0.040 C 
ATOM      9  C   LIG    1       -0.044   3.845   0.029  0.00  0.00    -0.030 A 
ATOM     10  O   LIG    1       -2.501   1.262   0.013  0.00  0.00    -0.300 OA
ATOM     11  C   LIG    1        1.166   3.165   0.009  0.00  0.00    +0.120 A 
BRANCH  11  12
ATOM     12  O   LIG    1        2.338   3.856  -0.003  0.00  0.00    -0.310 OA
BRANCH  12  13
ATOM     13  C   LIG    1        2.250   5.282   0.008  0.00  0.00    +0.170 C 
ATOM     14  C   LIG    1        3.659   5.879  -0.008  0.00  0.00    +0.070 C 
ENDBRANCH  12  13
ENDBRANCH  11  12
ENDBRANCH   1   2
BRANCH   1  16
ATOM     15  C   LIG    1        4.218   0.379   1.565  0.00  0.00    +0.560 C 
ATOM     16  N   LIG    1        3.042   0.996   1.338  0.00  0.00    -0.720 N 
ATOM     17  H   LIG    1        2.564   1.413   2.071  0.00  0.00    +0.400 HD
ATOM     18  O   LIG    1        4.818  -0.145   0.646  0.00  0.00    -0.540 OA
BRANCH  15  22
ATOM     19  C   LIG    1        5.832   0.264   5.491  0.00  0.00    +0.160 A 
ATOM     20  C   LIG    1        6.519  -0.336   4.442  0.00  0.00    -0.020 A 
ATOM     21  C   LIG    1        5.999  -0.301   3.167  0.00  0.00    +0.120 A 
ATOM     22  C   LIG    1        4.779   0.338   2.930  0.00  0.00    -0.180 A 
ATOM     23  C   LIG    1        4.095   0.944   3.986  0.00  0.00    +0.090 A 
ATOM     24  C   LIG    1        4.619   0.901   5.259  0.00  0.00    -0.090 A 
BRANCH  19  25
ATOM     25  O   LIG    1        6.348   0.227   6.746  0.00  0.00    -0.310 OA
BRANCH  25  27
ATOM     26  C   LIG    1        6.325   0.720   9.112  0.00  0.00    +0.070 C 
ATOM     27  C   LIG    1        5.591   0.864   7.777  0.00  0.00    +0.170 C 
ENDBRANCH  25  27
ENDBRANCH  19  25
ENDBRANCH  15  22
ENDBRANCH   1  16
TORSDOF 7
