REMARK  Name = ZINCpe000000ZFLv.0
REMARK                            x       y       z     vdW  Elec       q    Type
REMARK                         _______ _______ _______ _____ _____    ______ ____
ROOT
ATOM      1  N   LIG    1       -3.244   1.132   1.605  0.00  0.00    -1.110 NA
ATOM      2  H   LIG    1       -3.456   0.255   1.959  0.00  0.00    +0.420 HD
ENDROOT
BRANCH   1   3
ATOM      3  C   LIG    1       -3.327   2.312   2.469  0.00  0.00    +0.260 C 
ATOM      4  C   LIG    1       -4.483   2.140   3.458  0.00  0.00    +0.020 C 
ATOM      5  C   LIG    1       -4.525   3.349   4.397  0.00  0.00    +0.040 C 
ATOM      6  C   LIG    1       -3.181   3.477   5.117  0.00  0.00    +0.210 C 
ATOM      7  N   LIG    1       -2.108   3.640   4.128  0.00  0.00    -0.460 N 
ATOM      8  C   LIG    1       -2.017   2.470   3.245  0.00  0.00    +0.200 C 
BRANCH   7   9
ATOM      9  C   LIG    1       -0.896   3.889   4.747  0.00  0.00    +0.490 A 
ATOM     10  N   LIG    1        0.135   3.095   4.495  0.00  0.00    -0.550 NA
ATOM     11  C   LIG    1        1.308   3.309   5.067  0.00  0.00    +0.340 A 
ATOM     12  C   LIG    1        1.449   4.371   5.946  0.00  0.00    -0.110 A 
ATOM     13  C   LIG    1        0.349   5.178   6.191  0.00  0.00    +0.350 A 
ATOM     14  N   LIG    1       -0.795   4.913   5.582  0.00  0.00    -0.530 NA
ENDBRANCH   7   9
ENDBRANCH   1   3
BRANCH   1  16
ATOM     15  O   LIG    1       -3.568   2.355  -0.514  0.00  0.00    -0.950 OA
ATOM     16  S   LIG    1       -2.786   1.296   0.021  0.00  0.00    +2.730 S 
ATOM     17  O   LIG    1       -2.770  -0.013  -0.530  0.00  0.00    -0.960 OA
BRANCH  16  18
ATOM     18  C   LIG    1       -1.116   1.859   0.017  0.00  0.00    -0.820 A 
ATOM     19  C   LIG    1       -0.013   1.076   0.008  0.00  0.00    +0.400 A 
ATOM     20  N   LIG    1        1.067   1.886   0.002  0.00  0.00    -0.360 N 
ATOM     21  N   LIG    1        0.611   3.211   0.013  0.00  0.00    -0.290 NA
ATOM     22  C   LIG    1       -0.697   3.193   0.025  0.00  0.00    +0.350 A 
BRANCH  20  23
ATOM     23  C   LIG    1        2.467   1.456  -0.013  0.00  0.00    +0.340 C 
BRANCH  23  24
ATOM     24  C   LIG    1        3.187   2.103  -1.198  0.00  0.00    +0.390 C 
ATOM     25  F   LIG    1        2.640   1.624  -2.393  0.00  0.00    -0.200 F 
ATOM     26  F   LIG    1        4.548   1.785  -1.147  0.00  0.00    -0.190 F 
ENDBRANCH  23  24
ENDBRANCH  20  23
ENDBRANCH  16  18
ENDBRANCH   1  16
TORSDOF 6
