REMARK  Name = ZINCrD0000071pyx.0
REMARK                            x       y       z     vdW  Elec       q    Type
REMARK                         _______ _______ _______ _____ _____    ______ ____
ROOT
ATOM      1  C   LIG    1        3.253   1.665  -0.044  0.00  0.00    +0.180 C 
ATOM      2  C   LIG    1        3.679   1.431   1.407  0.00  0.00    +0.070 C 
ENDROOT
BRANCH   1   5
ATOM      3  N   LIG    1        5.542   1.796  -0.972  0.00  0.00    -0.670 N 
ATOM      4  H   LIG    1        5.669   0.870  -0.711  0.00  0.00    +0.410 HD
ATOM      5  C   LIG    1        4.349   2.393  -0.778  0.00  0.00    +0.520 C 
ATOM      6  O   LIG    1        4.159   3.515  -1.196  0.00  0.00    -0.490 OA
BRANCH   3  10
ATOM      7  C   LIG    1        8.684   3.926  -2.689  0.00  0.00    -0.090 A 
ATOM      8  C   LIG    1        7.786   4.571  -1.858  0.00  0.00    +0.030 A 
ATOM      9  C   LIG    1        6.744   3.867  -1.287  0.00  0.00    +0.010 A 
ATOM     10  C   LIG    1        6.598   2.511  -1.548  0.00  0.00    +0.140 A 
ATOM     11  C   LIG    1        7.504   1.865  -2.378  0.00  0.00    -0.010 A 
ATOM     12  C   LIG    1        8.541   2.576  -2.951  0.00  0.00    +0.030 A 
BRANCH   7  14
ATOM     13  C   LIG    1       11.152   4.090  -2.865  0.00  0.00    +0.040 C 
ATOM     14  C   LIG    1        9.820   4.697  -3.310  0.00  0.00    +0.020 C 
ATOM     15  C   LIG    1        9.712   4.625  -4.835  0.00  0.00    +0.030 C 
ENDBRANCH   7  14
ENDBRANCH   3  10
ENDBRANCH   1   5
BRANCH   1  16
ATOM     16  O   LIG    1        2.041   2.464  -0.070  0.00  0.00    -0.320 OA
BRANCH  16  17
ATOM     17  C   LIG    1        0.869   1.799  -0.048  0.00  0.00    +0.530 C 
ATOM     18  O   LIG    1        0.861   0.584  -0.009  0.00  0.00    -0.520 OA
BRANCH  17  19
ATOM     19  C   LIG    1       -0.402   2.543  -0.078  0.00  0.00    -0.220 A 
ATOM     20  C   LIG    1       -0.401   3.939  -0.001  0.00  0.00    +0.130 A 
ATOM     21  C   LIG    1       -1.593   4.629  -0.030  0.00  0.00    -0.070 A 
ATOM     22  C   LIG    1       -2.795   3.948  -0.135  0.00  0.00    +0.100 A 
ATOM     23  C   LIG    1       -2.813   2.570  -0.212  0.00  0.00    -0.090 A 
ATOM     24  C   LIG    1       -1.621   1.856  -0.190  0.00  0.00    +0.290 A 
BRANCH  24  25
ATOM     25  N   LIG    1       -1.636   0.470  -0.273  0.00  0.00    -0.720 N 
ATOM     26  H   LIG    1       -0.802  -0.021  -0.336  0.00  0.00    +0.420 HD
BRANCH  25  27
ATOM     27  C   LIG    1       -2.912  -0.250  -0.265  0.00  0.00    +0.260 C 
BRANCH  27  28
ATOM     28  C   LIG    1       -2.649  -1.754  -0.365  0.00  0.00    +0.170 C 
BRANCH  28  29
ATOM     29  O   LIG    1       -1.957  -2.196   0.804  0.00  0.00    -0.570 OA
ATOM     30  H   LIG    1       -1.757  -3.142   0.809  0.00  0.00    +0.380 HD
ENDBRANCH  28  29
ENDBRANCH  27  28
ENDBRANCH  25  27
ENDBRANCH  24  25
ENDBRANCH  17  19
ENDBRANCH  16  17
ENDBRANCH   1  16
TORSDOF 10
