REMARK  Name = ZINCpe000000ZzaM.0
REMARK                            x       y       z     vdW  Elec       q    Type
REMARK                         _______ _______ _______ _____ _____    ______ ____
ROOT
ATOM      1  O   LIG    1       -0.795   9.071  -4.761  0.00  0.00    -0.490 OA
ATOM      2  C   LIG    1       -0.188   9.072  -3.711  0.00  0.00    +0.520 C 
ATOM      3  C   LIG    1        0.298   7.846  -2.981  0.00  0.00    +0.310 C 
ATOM      4  N   LIG    1        0.976   8.322  -1.767  0.00  0.00    -0.630 N 
ATOM      5  C   LIG    1        0.876   9.787  -1.797  0.00  0.00    +0.510 C 
ATOM      6  C   LIG    1        1.565   7.569  -0.817  0.00  0.00    +0.550 C 
ATOM      7  O   LIG    1        2.010   8.092   0.182  0.00  0.00    -0.510 OA
ATOM      8  N   LIG    1        0.159  10.166  -3.014  0.00  0.00    -0.630 N 
ENDROOT
BRANCH   6   9
ATOM      9  C   LIG    1        1.669   6.076  -0.997  0.00  0.00    -0.010 C 
ATOM     10  C   LIG    1        2.973   5.575  -0.369  0.00  0.00    +0.060 C 
ATOM     11  C   LIG    1        3.044   4.052  -0.501  0.00  0.00    +0.210 C 
ATOM     12  N   LIG    1        1.890   3.446   0.175  0.00  0.00    -0.470 N 
ATOM     13  C   LIG    1        0.628   3.876  -0.442  0.00  0.00    +0.200 C 
ATOM     14  C   LIG    1        0.484   5.394  -0.308  0.00  0.00    +0.060 C 
BRANCH  12  15
ATOM     15  C   LIG    1        1.991   2.060   0.188  0.00  0.00    +0.260 A 
ATOM     16  C   LIG    1        0.993   1.292   0.784  0.00  0.00    +0.210 A 
ATOM     17  N   LIG    1        1.093  -0.024   0.793  0.00  0.00    -0.420 NA
ATOM     18  C   LIG    1        2.139  -0.613   0.238  0.00  0.00    +0.180 A 
ATOM     19  C   LIG    1        3.131   0.145  -0.355  0.00  0.00    +0.250 A 
ATOM     20  N   LIG    1        3.038   1.464  -0.369  0.00  0.00    -0.480 NA
ENDBRANCH  12  15
ENDBRANCH   6   9
BRANCH   8  21
ATOM     21  C   LIG    1       -0.142  11.544  -3.413  0.00  0.00    +0.370 C 
BRANCH  21  22
ATOM     22  C   LIG    1       -1.494  11.959  -2.829  0.00  0.00    +0.430 C 
ATOM     23  F   LIG    1       -2.492  11.105  -3.310  0.00  0.00    -0.170 F 
ATOM     24  F   LIG    1       -1.782  13.274  -3.209  0.00  0.00    -0.180 F 
ATOM     25  F   LIG    1       -1.444  11.878  -1.433  0.00  0.00    -0.180 F 
ENDBRANCH  21  22
ENDBRANCH   8  21
TORSDOF 4
