REMARK  Name = ZINCpe00000VVGPD.0
REMARK                            x       y       z     vdW  Elec       q    Type
REMARK                         _______ _______ _______ _____ _____    ______ ____
ROOT
ATOM      1  N   LIG    1       -2.718   5.246  -1.111  0.00  0.00    -0.720 N 
ATOM      2  H   LIG    1       -3.024   4.401  -0.747  0.00  0.00    +0.400 HD
ATOM      3  C   LIG    1       -2.848   6.377  -0.390  0.00  0.00    +0.710 C 
ATOM      4  N   LIG    1       -3.404   6.333   0.838  0.00  0.00    -0.720 N 
ATOM      5  H   LIG    1       -3.710   5.488   1.202  0.00  0.00    +0.400 HD
ATOM      6  O   LIG    1       -2.465   7.437  -0.846  0.00  0.00    -0.590 OA
ENDROOT
BRANCH   1   8
ATOM      7  C   LIG    1       -3.162   5.745  -3.464  0.00  0.00    +0.040 C 
ATOM      8  C   LIG    1       -2.114   5.294  -2.445  0.00  0.00    +0.260 C 
BRANCH   8   9
ATOM      9  C   LIG    1       -1.602   3.902  -2.822  0.00  0.00    +0.170 C 
BRANCH   9  10
ATOM     10  N   LIG    1       -0.671   3.426  -1.790  0.00  0.00    -0.530 NA
ATOM     11  C   LIG    1        0.550   4.245  -1.764  0.00  0.00    +0.150 C 
ATOM     12  C   LIG    1        1.463   3.753  -0.638  0.00  0.00    +0.220 C 
ATOM     13  O   LIG    1        1.747   2.365  -0.831  0.00  0.00    -0.390 OA
ATOM     14  C   LIG    1        0.580   1.538  -0.863  0.00  0.00    +0.220 C 
ATOM     15  C   LIG    1       -0.342   2.008  -1.991  0.00  0.00    +0.150 C 
ENDBRANCH   9  10
ENDBRANCH   8   9
ENDBRANCH   1   8
BRANCH   4  16
ATOM     16  C   LIG    1       -3.546   7.563   1.622  0.00  0.00    +0.310 C 
BRANCH  16  17
ATOM     17  C   LIG    1       -4.677   7.404   2.604  0.00  0.00    -0.100 A 
ATOM     18  C   LIG    1       -4.779   6.252   3.361  0.00  0.00    +0.030 A 
ATOM     19  C   LIG    1       -5.814   6.108   4.266  0.00  0.00    +0.020 A 
ATOM     20  C   LIG    1       -6.753   7.113   4.407  0.00  0.00    +0.020 A 
ATOM     21  C   LIG    1       -6.655   8.262   3.646  0.00  0.00    +0.010 A 
ATOM     22  C   LIG    1       -5.617   8.408   2.744  0.00  0.00    +0.030 A 
ENDBRANCH  16  17
BRANCH  16  23
ATOM     23  C   LIG    1       -2.265   7.832   2.369  0.00  0.00    +0.510 C 
ATOM     24  N   LIG    1       -1.952   9.091   2.736  0.00  0.00    -0.620 N 
ATOM     25  C   LIG    1       -2.904  10.180   2.506  0.00  0.00    +0.270 C 
ATOM     26  C   LIG    1       -0.658   9.369   3.365  0.00  0.00    +0.290 C 
ATOM     27  O   LIG    1       -1.517   6.917   2.640  0.00  0.00    -0.530 OA
ENDBRANCH  16  23
ENDBRANCH   4  16
TORSDOF 6
