REMARK  Name = ZINCqH0000006TuJ.0
REMARK                            x       y       z     vdW  Elec       q    Type
REMARK                         _______ _______ _______ _____ _____    ______ ____
ROOT
ATOM      1  C   LIG    1        8.024  -2.483   0.438  0.00  0.00    +0.190 A 
ATOM      2  C   LIG    1        7.364  -3.708   0.500  0.00  0.00    -0.170 A 
ATOM      3  C   LIG    1        5.986  -3.761   0.454  0.00  0.00    +0.230 A 
ATOM      4  C   LIG    1        5.245  -2.570   0.344  0.00  0.00    -0.170 A 
ATOM      5  C   LIG    1        3.860  -2.295   0.281  0.00  0.00    +0.110 A 
ATOM      6  C   LIG    1        3.708  -0.948   0.175  0.00  0.00    -0.020 A 
ATOM      7  N   LIG    1        4.956  -0.350   0.178  0.00  0.00    -0.570 N 
ATOM      8  H   LIG    1        5.127   0.603   0.117  0.00  0.00    +0.420 HD
ATOM      9  C   LIG    1        5.916  -1.333   0.281  0.00  0.00    +0.180 A 
ATOM     10  C   LIG    1        7.308  -1.301   0.329  0.00  0.00    -0.010 A 
ENDROOT
BRANCH   6  11
ATOM     11  C   LIG    1        2.425  -0.240   0.080  0.00  0.00    +0.590 C 
ATOM     12  N   LIG    1        2.403   1.104  -0.015  0.00  0.00    -0.670 N 
ATOM     13  H   LIG    1        3.233   1.599  -0.085  0.00  0.00    +0.410 HD
ATOM     14  O   LIG    1        1.383  -0.868   0.087  0.00  0.00    -0.500 OA
BRANCH  12  15
ATOM     15  C   LIG    1        1.179   1.785  -0.011  0.00  0.00    +0.100 A 
ATOM     16  C   LIG    1        0.064   1.215  -0.608  0.00  0.00    +0.100 A 
ATOM     17  C   LIG    1       -1.141   1.891  -0.608  0.00  0.00    +0.010 A 
ATOM     18  C   LIG    1       -1.241   3.132  -0.003  0.00  0.00    +0.120 A 
ATOM     19  C   LIG    1       -0.130   3.705   0.594  0.00  0.00    -0.020 A 
ATOM     20  F   LIG    1       -2.422   3.788   0.001  0.00  0.00    -0.130 F 
ATOM     21  C   LIG    1        1.079   3.035   0.592  0.00  0.00    +0.110 A 
ATOM     22  F   LIG    1        2.163   3.594   1.174  0.00  0.00    -0.130 F 
ENDBRANCH  12  15
ENDBRANCH   6  11
BRANCH   1  24
ATOM     23  C   LIG    1       10.061  -3.699   0.596  0.00  0.00    +0.250 C 
ATOM     24  O   LIG    1        9.382  -2.446   0.484  0.00  0.00    -0.300 OA
ENDBRANCH   1  24
BRANCH   3  25
ATOM     25  O   LIG    1        5.348  -4.958   0.515  0.00  0.00    -0.300 OA
ATOM     26  C   LIG    1        6.166  -6.125   0.626  0.00  0.00    +0.250 C 
ENDBRANCH   3  25
BRANCH  10  27
ATOM     27  O   LIG    1        7.964  -0.110   0.268  0.00  0.00    -0.320 OA
ATOM     28  C   LIG    1        8.232   0.548   1.508  0.00  0.00    +0.210 C 
ENDBRANCH  10  27
TORSDOF 5
