REMARK  Name = ZINCqH0000001x9j.0
REMARK                            x       y       z     vdW  Elec       q    Type
REMARK                         _______ _______ _______ _____ _____    ______ ____
ROOT
ATOM      1  C   LIG    1       -0.118   5.342   0.017  0.00  0.00    +0.340 C 
ENDROOT
BRANCH   1   3
ATOM      2  C   LIG    1       -1.255   3.138   0.249  0.00  0.00    +0.160 A 
ATOM      3  C   LIG    1       -0.091   3.853   0.245  0.00  0.00    -0.150 A 
ATOM      4  C   LIG    1        1.130   3.192   0.455  0.00  0.00    +0.000 A 
ATOM      5  C   LIG    1        2.347   3.895   0.458  0.00  0.00    +0.010 A 
ATOM      6  C   LIG    1        3.513   3.222   0.664  0.00  0.00    +0.020 A 
ATOM      7  C   LIG    1        3.518   1.845   0.873  0.00  0.00    -0.010 A 
ATOM      8  C   LIG    1        2.359   1.131   0.877  0.00  0.00    +0.040 A 
ATOM      9  C   LIG    1        1.136   1.791   0.667  0.00  0.00    -0.090 A 
ATOM     10  C   LIG    1       -0.081   1.086   0.664  0.00  0.00    +0.080 A 
ATOM     11  C   LIG    1       -1.246   1.754   0.453  0.00  0.00    -0.070 A 
BRANCH   2  12
ATOM     12  O   LIG    1       -2.436   3.778   0.045  0.00  0.00    -0.300 OA
BRANCH  12  14
ATOM     13  C   LIG    1       -4.143   2.651   1.333  0.00  0.00    +0.020 C 
ATOM     14  C   LIG    1       -3.605   2.963  -0.065  0.00  0.00    +0.150 C 
ATOM     15  C   LIG    1       -4.673   3.709  -0.867  0.00  0.00    +0.060 C 
ENDBRANCH  12  14
ENDBRANCH   2  12
ENDBRANCH   1   3
BRANCH   1  16
ATOM     16  N   LIG    1       -0.004   5.620  -1.417  0.00  0.00    -0.740 N 
ATOM     17  H   LIG    1        0.072   4.887  -2.048  0.00  0.00    +0.400 HD
ATOM     18  C   LIG    1       -0.006   6.893  -1.859  0.00  0.00    +0.700 C 
ATOM     19  N   LIG    1        0.098   7.148  -3.178  0.00  0.00    -0.730 N 
ATOM     20  H   LIG    1        0.175   6.415  -3.809  0.00  0.00    +0.400 HD
ATOM     21  O   LIG    1       -0.102   7.811  -1.068  0.00  0.00    -0.600 OA
BRANCH  19  22
ATOM     22  C   LIG    1        0.097   8.531  -3.659  0.00  0.00    +0.280 C 
ATOM     23  C   LIG    1       -1.351   9.004  -3.904  0.00  0.00    +0.010 C 
ATOM     24  C   LIG    1       -1.252   9.893  -5.168  0.00  0.00    +0.020 C 
ATOM     25  C   LIG    1       -0.209   9.143  -6.034  0.00  0.00    +0.000 C 
ATOM     26  C   LIG    1        0.823   8.620  -5.013  0.00  0.00    +0.120 C 
ATOM     27  C   LIG    1        2.001   9.591  -4.913  0.00  0.00    +0.020 C 
BRANCH  26  28
ATOM     28  O   LIG    1        1.287   7.326  -5.405  0.00  0.00    -0.560 OA
ATOM     29  H   LIG    1        1.754   7.316  -6.252  0.00  0.00    +0.380 HD
ENDBRANCH  26  28
ENDBRANCH  19  22
ENDBRANCH   1  16
TORSDOF 6
