REMARK  Name = ZINC650000002wC9.0
REMARK                            x       y       z     vdW  Elec       q    Type
REMARK                         _______ _______ _______ _____ _____    ______ ____
ROOT
ATOM      1  C   LIG    1       -0.726   3.468   1.227  0.00  0.00    +0.180 C 
ATOM      2  C   LIG    1       -1.330   3.963   2.543  0.00  0.00    +0.140 C 
ENDROOT
BRANCH   1   3
ATOM      3  N   LIG    1        0.646   3.977   1.096  0.00  0.00    -0.650 N 
ATOM      4  H   LIG    1        1.203   3.644   1.868  0.00  0.00    +0.450 HD
ATOM      5  H   LIG    1        0.632   4.986   1.102  0.00  0.00    +0.460 HD
ATOM      6  H   LIG    1        1.044   3.651   0.228  0.00  0.00    +0.420 HD
ENDBRANCH   1   3
BRANCH   1   7
ATOM      7  C   LIG    1       -0.705   1.938   1.219  0.00  0.00    +0.300 C 
BRANCH   7   9
ATOM      8  C   LIG    1        0.002  -0.004   0.002  0.00  0.00    +0.360 C 
ATOM      9  N   LIG    1       -0.018   1.465   0.010  0.00  0.00    -0.520 N 
ATOM     10  H   LIG    1       -0.506   1.799  -0.807  0.00  0.00    +0.440 HD
ATOM     11  H   LIG    1        0.929   1.814   0.003  0.00  0.00    +0.420 HD
ENDBRANCH   7   9
ENDBRANCH   1   7
TORSDOF 3
