REMARK  Name = ZINC650000002wC9.1
REMARK                            x       y       z     vdW  Elec       q    Type
REMARK                         _______ _______ _______ _____ _____    ______ ____
ROOT
ATOM      1  C   LIG    1       -0.876   3.052  -1.022  0.00  0.00    +0.270 C 
ENDROOT
BRANCH   1   3
ATOM      2  C   LIG    1       -1.491   4.895   0.384  0.00  0.00    +0.320 C 
ATOM      3  N   LIG    1       -1.414   3.431   0.291  0.00  0.00    -0.500 N 
ATOM      4  H   LIG    1       -0.808   3.079   1.017  0.00  0.00    +0.440 HD
ATOM      5  H   LIG    1       -2.337   3.038   0.402  0.00  0.00    +0.430 HD
ENDBRANCH   1   3
BRANCH   1   6
ATOM      6  C   LIG    1       -0.795   1.527  -1.120  0.00  0.00    +0.170 C 
ATOM      7  C   LIG    1       -0.120   1.135  -2.436  0.00  0.00    +0.040 C 
BRANCH   6   8
ATOM      8  N   LIG    1       -0.012   1.005   0.008  0.00  0.00    -0.860 NA
ATOM      9  H   LIG    1        0.925   1.379   0.001  0.00  0.00    +0.350 HD
ATOM     10  H   LIG    1        0.002  -0.004   0.002  0.00  0.00    +0.370 HD
ENDBRANCH   6   8
ENDBRANCH   1   6
TORSDOF 3
