REMARK  Name = ZINCah0000002qaH.0
REMARK                            x       y       z     vdW  Elec       q    Type
REMARK                         _______ _______ _______ _____ _____    ______ ____
ROOT
ATOM      1  C   LIG    1        3.935  -0.146  -0.156  0.00  0.00    +0.030 C 
ATOM      2  C   LIG    1        2.507   0.342  -0.409  0.00  0.00    -0.030 C 
ATOM      3  C   LIG    1        1.524  -0.488   0.424  0.00  0.00    +0.040 C 
ATOM      4  C   LIG    1        0.099  -0.130  -0.004  0.00  0.00    +0.110 C 
ATOM      5  C   LIG    1       -0.080   1.361  -0.004  0.00  0.00    +0.220 C 
ATOM      6  C   LIG    1        0.939   2.227  -0.006  0.00  0.00    -0.360 C 
ATOM      7  C   LIG    1        2.381   1.809   0.006  0.00  0.00    +0.100 C 
ENDROOT
BRANCH   6   8
ATOM      8  C   LIG    1        0.644   3.601  -0.021  0.00  0.00    +0.430 C 
ATOM      9  O   LIG    1        1.542   4.414  -0.118  0.00  0.00    -0.470 OA
ENDBRANCH   6   8
BRANCH   5  10
ATOM     10  O   LIG    1       -1.334   1.852  -0.008  0.00  0.00    -0.480 OA
ATOM     11  H   LIG    1       -1.430   2.811   0.071  0.00  0.00    +0.410 HD
ENDBRANCH   5  10
TORSDOF 2
