REMARK  Name = ZINCrH000004mkNF.0
REMARK                            x       y       z     vdW  Elec       q    Type
REMARK                         _______ _______ _______ _____ _____    ______ ____
ROOT
ATOM      1  C   LIG    1       -1.924   2.384   3.611  0.00  0.00    +0.100 A 
ATOM      2  C   LIG    1       -2.199   3.023   2.415  0.00  0.00    -0.040 A 
ATOM      3  C   LIG    1       -1.586   2.609   1.242  0.00  0.00    -0.070 A 
ATOM      4  C   LIG    1       -0.697   1.557   1.263  0.00  0.00    -0.070 A 
ATOM      5  C   LIG    1       -0.003   1.076   0.015  0.00  0.00    +0.250 C 
ATOM      6  N   LIG    1       -0.698   1.566  -1.179  0.00  0.00    -0.510 NA
ATOM      7  C   LIG    1       -0.871   3.026  -1.103  0.00  0.00    +0.170 C 
ATOM      8  C   LIG    1       -0.418   0.912   2.461  0.00  0.00    -0.040 A 
ATOM      9  C   LIG    1       -1.921   3.335  -0.036  0.00  0.00    +0.100 C 
ATOM     10  C   LIG    1       -1.027   1.320   3.634  0.00  0.00    +0.100 A 
ENDROOT
BRANCH   1  12
ATOM     11  C   LIG    1       -3.435   3.892   4.659  0.00  0.00    +0.230 C 
ATOM     12  O   LIG    1       -2.526   2.794   4.759  0.00  0.00    -0.310 OA
ENDBRANCH   1  12
BRANCH   6  13
ATOM     13  C   LIG    1        0.022   1.184  -2.401  0.00  0.00    +0.190 C 
ATOM     14  C   LIG    1        1.475   1.654  -2.305  0.00  0.00    +0.020 C 
BRANCH  13  15
ATOM     15  C   LIG    1       -0.013  -0.315  -2.557  0.00  0.00    +0.520 C 
ATOM     16  N   LIG    1        0.588  -0.896  -3.614  0.00  0.00    -0.670 N 
ATOM     17  H   LIG    1        0.973  -0.348  -4.315  0.00  0.00    +0.410 HD
ATOM     18  O   LIG    1       -0.581  -0.997  -1.731  0.00  0.00    -0.490 OA
BRANCH  16  19
ATOM     19  C   LIG    1        0.656  -2.291  -3.699  0.00  0.00    +0.150 A 
ATOM     20  C   LIG    1        0.601  -3.062  -2.546  0.00  0.00    +0.010 A 
ATOM     21  C   LIG    1        0.663  -4.439  -2.633  0.00  0.00    -0.070 A 
ATOM     22  C   LIG    1        0.792  -5.050  -3.867  0.00  0.00    -0.020 A 
ATOM     23  C   LIG    1        0.854  -4.284  -5.018  0.00  0.00    +0.030 A 
ATOM     24  C   LIG    1        0.597  -5.277  -1.383  0.00  0.00    +0.090 C 
ATOM     25  C   LIG    1        0.786  -2.907  -4.937  0.00  0.00    -0.130 A 
ATOM     26  C   LIG    1        0.854  -2.074  -6.191  0.00  0.00    +0.090 C 
ENDBRANCH  16  19
ENDBRANCH  13  15
ENDBRANCH   6  13
BRANCH  10  27
ATOM     27  O   LIG    1       -0.750   0.684   4.803  0.00  0.00    -0.310 OA
ATOM     28  C   LIG    1        0.180  -0.399   4.749  0.00  0.00    +0.240 C 
ENDBRANCH  10  27
TORSDOF 5
