REMARK  Name = ZINCvU0000000ExA.0
REMARK                            x       y       z     vdW  Elec       q    Type
REMARK                         _______ _______ _______ _____ _____    ______ ____
ROOT
ATOM      1  C   LIG    1        8.928   2.049  -0.521  0.00  0.00    +0.200 A 
ATOM      2  N   LIG    1       10.024   1.823   0.159  0.00  0.00    -0.460 NA
ATOM      3  C   LIG    1       10.857   2.844  -0.143  0.00  0.00    +0.260 A 
ATOM      4  N   LIG    1       10.223   3.623  -0.982  0.00  0.00    -0.380 NA
ATOM      5  O   LIG    1        9.119   3.177  -1.212  0.00  0.00    +0.100 OA
ENDROOT
BRANCH   3   6
ATOM      6  C   LIG    1       12.231   3.045   0.378  0.00  0.00    -0.160 A 
ATOM      7  C   LIG    1       13.071   4.075   0.066  0.00  0.00    +0.300 A 
ATOM      8  N   LIG    1       14.218   3.887   0.751  0.00  0.00    -0.310 N 
ATOM      9  N   LIG    1       14.094   2.711   1.500  0.00  0.00    -0.280 NA
ATOM     10  C   LIG    1       12.910   2.203   1.282  0.00  0.00    +0.310 A 
BRANCH   8  11
ATOM     11  C   LIG    1       15.342   4.723   0.715  0.00  0.00    +0.170 A 
ATOM     12  C   LIG    1       16.466   4.411   1.468  0.00  0.00    +0.040 A 
ATOM     13  C   LIG    1       17.573   5.236   1.431  0.00  0.00    +0.070 A 
ATOM     14  C   LIG    1       17.564   6.373   0.644  0.00  0.00    +0.030 A 
ATOM     15  C   LIG    1       16.445   6.687  -0.109  0.00  0.00    -0.010 A 
ATOM     16 CL   LIG    1       16.438   8.116  -1.095  0.00  0.00    -0.050 Cl
ATOM     17  C   LIG    1       15.337   5.862  -0.079  0.00  0.00    +0.010 A 
ENDBRANCH   8  11
ENDBRANCH   3   6
BRANCH   1  18
ATOM     18  C   LIG    1        7.687   1.194  -0.529  0.00  0.00    +0.150 C 
ATOM     19  C   LIG    1        7.617   0.407  -1.839  0.00  0.00    +0.090 C 
BRANCH  18  20
ATOM     20  S   LIG    1        6.222   2.254  -0.382  0.00  0.00    -0.120 S 
BRANCH  20  21
ATOM     21  C   LIG    1        4.864   1.058  -0.255  0.00  0.00    +0.100 C 
BRANCH  21  24
ATOM     22  N   LIG    1        2.402   1.106  -0.015  0.00  0.00    -0.670 N 
ATOM     23  H   LIG    1        2.419   0.139   0.046  0.00  0.00    +0.410 HD
ATOM     24  C   LIG    1        3.556   1.795  -0.124  0.00  0.00    +0.530 C 
ATOM     25  O   LIG    1        3.541   3.008  -0.118  0.00  0.00    -0.490 OA
BRANCH  22  30
ATOM     26  C   LIG    1       -2.551   3.870   0.079  0.00  0.00    +0.090 C 
ATOM     27  C   LIG    1       -1.235   3.136   0.054  0.00  0.00    -0.100 A 
ATOM     28  C   LIG    1       -1.145   1.903  -0.566  0.00  0.00    +0.030 A 
ATOM     29  C   LIG    1        0.059   1.225  -0.586  0.00  0.00    -0.010 A 
ATOM     30  C   LIG    1        1.181   1.788   0.008  0.00  0.00    +0.130 A 
ATOM     31  C   LIG    1        1.087   3.028   0.626  0.00  0.00    +0.030 A 
ATOM     32  C   LIG    1       -0.120   3.698   0.647  0.00  0.00    +0.030 A 
ENDBRANCH  22  30
ENDBRANCH  21  24
ENDBRANCH  20  21
ENDBRANCH  18  20
ENDBRANCH   1  18
TORSDOF 7
