REMARK  Name = ZINCkj00000hcUnw.0
REMARK                            x       y       z     vdW  Elec       q    Type
REMARK                         _______ _______ _______ _____ _____    ______ ____
ROOT
ATOM      1  C   LIG    1        1.278  -2.142  -0.021  0.00  0.00    +0.580 C 
ATOM      2  N   LIG    1        2.464  -2.782  -0.036  0.00  0.00    -0.720 N 
ATOM      3  H   LIG    1        3.290  -2.273  -0.041  0.00  0.00    +0.410 HD
ATOM      4  O   LIG    1        0.243  -2.779  -0.014  0.00  0.00    -0.500 OA
ENDROOT
BRANCH   2   5
ATOM      5  C   LIG    1        2.506  -4.246  -0.044  0.00  0.00    +0.270 C 
ATOM      6  C   LIG    1        2.381  -4.756  -1.484  0.00  0.00    +0.060 C 
ATOM      7  C   LIG    1        3.607  -4.309  -2.283  0.00  0.00    +0.260 C 
ATOM      8  N   LIG    1        4.822  -4.890  -1.699  0.00  0.00    -0.500 N 
ATOM      9  C   LIG    1        5.030  -4.354  -0.347  0.00  0.00    +0.280 C 
ATOM     10  H   LIG    1        5.616  -4.657  -2.277  0.00  0.00    +0.430 HD
ATOM     11  H   LIG    1        4.724  -5.893  -1.651  0.00  0.00    +0.430 HD
ATOM     12  C   LIG    1        3.838  -4.723   0.534  0.00  0.00    -0.130 C 
ATOM     13  C   LIG    1        3.826  -6.195   0.965  0.00  0.00    +0.040 C 
ATOM     14  C   LIG    1        4.651  -5.759   2.188  0.00  0.00    +0.030 C 
ATOM     15  C   LIG    1        4.031  -4.362   2.011  0.00  0.00    +0.070 C 
ENDBRANCH   2   5
BRANCH   1  20
ATOM     16  C   LIG    1        1.218   3.571   0.009  0.00  0.00    +0.130 C 
ATOM     17  C   LIG    1        1.191   2.064   0.002  0.00  0.00    -0.080 A 
ATOM     18  C   LIG    1        2.375   1.343  -0.013  0.00  0.00    +0.260 A 
ATOM     19  N   LIG    1        2.369   0.029  -0.020  0.00  0.00    -0.440 NA
ATOM     20  C   LIG    1        1.236  -0.664  -0.013  0.00  0.00    +0.020 A 
ATOM     21  C   LIG    1        0.002  -0.004   0.002  0.00  0.00    +0.140 A 
ATOM     22  C   LIG    1       -0.017   1.389   0.010  0.00  0.00    +0.030 A 
BRANCH  21  23
ATOM     23  O   LIG    1       -1.157  -0.709   0.009  0.00  0.00    -0.470 OA
ATOM     24  H   LIG    1       -1.501  -0.909  -0.873  0.00  0.00    +0.400 HD
ENDBRANCH  21  23
ENDBRANCH   1  20
TORSDOF 3
