REMARK  Name = ZINCvU0000000IQt.0
REMARK                            x       y       z     vdW  Elec       q    Type
REMARK                         _______ _______ _______ _____ _____    ______ ____
ROOT
ATOM      1  C   LIG    1        2.396   1.035   0.241  0.00  0.00    -0.170 A 
ATOM      2  C   LIG    1        2.874   0.711  -1.013  0.00  0.00    +0.030 A 
ATOM      3  N   LIG    1        4.171   0.383  -0.875  0.00  0.00    -0.250 N 
ATOM      4  N   LIG    1        4.515   0.491   0.477  0.00  0.00    -0.180 NA
ATOM      5  C   LIG    1        3.466   0.878   1.150  0.00  0.00    +0.020 A 
ENDROOT
BRANCH   3   6
ATOM      6  C   LIG    1        5.032  -0.007  -1.911  0.00  0.00    +0.100 A 
ATOM      7  C   LIG    1        5.890  -1.084  -1.734  0.00  0.00    +0.060 A 
ATOM      8  C   LIG    1        6.732  -1.470  -2.758  0.00  0.00    +0.040 A 
ATOM      9  C   LIG    1        6.731  -0.777  -3.954  0.00  0.00    +0.050 A 
ATOM     10  C   LIG    1        5.882   0.300  -4.132  0.00  0.00    +0.040 A 
ATOM     11  C   LIG    1        5.032   0.687  -3.113  0.00  0.00    +0.020 A 
ENDBRANCH   3   6
BRANCH   1  14
ATOM     12  N   LIG    1        0.091   0.539   0.888  0.00  0.00    -0.660 N 
ATOM     13  H   LIG    1        0.302  -0.406   0.827  0.00  0.00    +0.420 HD
ATOM     14  C   LIG    1        1.023   1.459   0.571  0.00  0.00    +0.590 C 
ATOM     15  O   LIG    1        0.732   2.640   0.557  0.00  0.00    -0.480 OA
BRANCH  12  20
ATOM     16  C   LIG    1       -3.564   0.602   1.377  0.00  0.00    -0.150 A 
ATOM     17  C   LIG    1       -3.702   1.773   2.129  0.00  0.00    +0.060 A 
ATOM     18  C   LIG    1       -2.588   2.516   2.459  0.00  0.00    +0.030 A 
ATOM     19  C   LIG    1       -1.332   2.105   2.053  0.00  0.00    +0.050 A 
ATOM     20  C   LIG    1       -1.182   0.946   1.300  0.00  0.00    +0.130 A 
ATOM     21  C   LIG    1       -2.294   0.191   0.963  0.00  0.00    +0.060 A 
BRANCH  16  23
ATOM     22  C   LIG    1       -6.118   0.253   1.471  0.00  0.00    +0.090 C 
ATOM     23  C   LIG    1       -4.750  -0.194   1.023  0.00  0.00    +0.400 C 
ATOM     24  O   LIG    1       -4.627  -1.208   0.371  0.00  0.00    -0.460 OA
ENDBRANCH  16  23
ENDBRANCH  12  20
ENDBRANCH   1  14
BRANCH   2  25
ATOM     25  C   LIG    1        2.089   0.727  -2.299  0.00  0.00    +0.540 C 
ATOM     26  F   LIG    1        2.221   1.978  -2.911  0.00  0.00    -0.150 F 
ATOM     27  F   LIG    1        0.739   0.482  -2.024  0.00  0.00    -0.150 F 
ATOM     28  F   LIG    1        2.578  -0.266  -3.156  0.00  0.00    -0.150 F 
ENDBRANCH   2  25
BRANCH   5  29
ATOM     29  C   LIG    1        3.408   1.116   2.637  0.00  0.00    +0.560 C 
ATOM     30  F   LIG    1        2.460   2.108   2.913  0.00  0.00    -0.150 F 
ATOM     31  F   LIG    1        4.663   1.531   3.093  0.00  0.00    -0.150 F 
ATOM     32  F   LIG    1        3.045  -0.069   3.285  0.00  0.00    -0.160 F 
ENDBRANCH   5  29
TORSDOF 6
