REMARK  Name = ZINCpk00000y6xpm.0
REMARK                            x       y       z     vdW  Elec       q    Type
REMARK                         _______ _______ _______ _____ _____    ______ ____
ROOT
ATOM      1  C   LIG    1       -0.898  -0.531   0.177  0.00  0.00    +0.580 C 
ATOM      2  N   LIG    1       -1.051  -1.866   0.075  0.00  0.00    -0.610 N 
ATOM      3  C   LIG    1       -2.337  -2.586   0.075  0.00  0.00    +0.260 C 
ATOM      4  C   LIG    1       -1.990  -4.017   0.556  0.00  0.00    +0.040 C 
ATOM      5  C   LIG    1       -0.610  -4.245  -0.114  0.00  0.00    +0.040 C 
ATOM      6  C   LIG    1        0.037  -2.845  -0.062  0.00  0.00    +0.220 C 
ATOM      7  O   LIG    1       -1.862   0.176   0.399  0.00  0.00    -0.520 OA
ENDROOT
BRANCH   1  15
ATOM      8  C   LIG    1        5.602   0.023  -0.109  0.00  0.00    +0.120 C 
ATOM      9  C   LIG    1        5.374   1.485  -0.397  0.00  0.00    +0.520 C 
ATOM     10  N   LIG    1        4.118   1.971  -0.462  0.00  0.00    -0.550 N 
ATOM     11  C   LIG    1        3.773   3.368  -0.734  0.00  0.00    +0.280 C 
ATOM     12  C   LIG    1        2.237   3.418  -0.703  0.00  0.00    +0.110 C 
ATOM     13  C   LIG    1        1.817   1.995  -0.406  0.00  0.00    -0.150 A 
ATOM     14  C   LIG    1        0.568   1.436  -0.260  0.00  0.00    +0.130 A 
ATOM     15  C   LIG    1        0.439   0.073   0.019  0.00  0.00    -0.180 A 
ATOM     16  C   LIG    1        1.587  -0.714   0.147  0.00  0.00    +0.080 A 
ATOM     17  C   LIG    1        2.830  -0.148  -0.001  0.00  0.00    -0.020 A 
ATOM     18  C   LIG    1        2.960   1.216  -0.279  0.00  0.00    +0.180 A 
ATOM     19  O   LIG    1        6.320   2.224  -0.570  0.00  0.00    -0.510 OA
ENDBRANCH   1  15
BRANCH   6  20
ATOM     20  C   LIG    1        0.817  -2.581  -1.352  0.00  0.00    +0.310 C 
BRANCH  20  21
ATOM     21  N   LIG    1        2.017  -3.421  -1.379  0.00  0.00    -0.290 N 
ATOM     22  C   LIG    1        2.367  -4.271  -2.371  0.00  0.00    +0.150 A 
ATOM     23  C   LIG    1        3.535  -4.838  -1.988  0.00  0.00    +0.140 A 
ATOM     24  N   LIG    1        3.838  -4.312  -0.795  0.00  0.00    -0.260 NA
ATOM     25  N   LIG    1        2.921  -3.473  -0.465  0.00  0.00    -0.090 NA
ENDBRANCH  20  21
ENDBRANCH   6  20
TORSDOF 3
