REMARK  Name = ZINCpk00001AZj59.0
REMARK                            x       y       z     vdW  Elec       q    Type
REMARK                         _______ _______ _______ _____ _____    ______ ____
ROOT
ATOM      1  C   LIG    1       -1.857   4.866  -3.007  0.00  0.00    +0.590 C 
ATOM      2  N   LIG    1       -1.058   4.668  -1.940  0.00  0.00    -0.600 N 
ATOM      3  C   LIG    1        0.371   4.915  -2.061  0.00  0.00    +0.270 C 
ATOM      4  C   LIG    1        1.178   3.790  -1.488  0.00  0.00    +0.010 C 
ATOM      5  C   LIG    1        0.710   3.264  -0.151  0.00  0.00    +0.240 C 
ATOM      6  C   LIG    1       -0.785   3.260   0.075  0.00  0.00    +0.200 C 
ATOM      7  N   LIG    1       -1.196   1.862  -0.039  0.00  0.00    -0.730 N 
ATOM      8  H   LIG    1       -2.108   1.536  -0.079  0.00  0.00    +0.430 HD
ATOM      9  C   LIG    1       -0.083   1.108  -0.078  0.00  0.00    +0.700 C 
ATOM     10  O   LIG    1       -0.105  -0.108  -0.104  0.00  0.00    -0.580 OA
ATOM     11  N   LIG    1        1.053   1.821  -0.090  0.00  0.00    -0.640 N 
ATOM     12  C   LIG    1        2.409   1.267  -0.051  0.00  0.00    +0.330 C 
ATOM     13  C   LIG    1       -1.640   4.212  -0.690  0.00  0.00    +0.300 C 
ATOM     14  O   LIG    1       -3.037   4.579  -2.946  0.00  0.00    -0.520 OA
ENDROOT
BRANCH   1  17
ATOM     15  C   LIG    1       -0.512   3.138  -4.896  0.00  0.00    +0.120 C 
ATOM     16  C   LIG    1       -0.654   4.614  -5.160  0.00  0.00    +0.060 A 
ATOM     17  C   LIG    1       -1.300   5.430  -4.248  0.00  0.00    -0.240 A 
ATOM     18  C   LIG    1       -1.419   6.865  -4.530  0.00  0.00    +0.560 A 
ATOM     19  N   LIG    1       -0.908   7.376  -5.666  0.00  0.00    -0.630 N 
ATOM     20  H   LIG    1       -0.991   8.326  -5.843  0.00  0.00    +0.420 HD
ATOM     21  C   LIG    1       -0.267   6.568  -6.581  0.00  0.00    +0.200 A 
ATOM     22  C   LIG    1        0.256   7.114  -7.750  0.00  0.00    -0.030 A 
ATOM     23  C   LIG    1        0.895   6.303  -8.662  0.00  0.00    +0.090 A 
ATOM     24  C   LIG    1        1.026   4.941  -8.428  0.00  0.00    -0.020 A 
ATOM     25  C   LIG    1        0.522   4.380  -7.290  0.00  0.00    +0.090 A 
ATOM     26  O   LIG    1       -1.980   7.596  -3.734  0.00  0.00    -0.520 OA
ATOM     27  C   LIG    1       -0.133   5.185  -6.346  0.00  0.00    -0.130 A 
ENDBRANCH   1  17
TORSDOF 1
