REMARK  Name = ZINCpk000004ANMo.0
REMARK                            x       y       z     vdW  Elec       q    Type
REMARK                         _______ _______ _______ _____ _____    ______ ____
ROOT
ATOM      1  C   LIG    1       -1.087   0.685   2.173  0.00  0.00    +0.520 C 
ATOM      2  N   LIG    1       -0.917   1.512   1.123  0.00  0.00    -0.610 N 
ATOM      3  C   LIG    1       -0.258   1.041  -0.102  0.00  0.00    +0.280 C 
ATOM      4  C   LIG    1       -1.171   1.328  -1.299  0.00  0.00    +0.060 C 
ATOM      5  C   LIG    1       -1.534   2.815  -1.313  0.00  0.00    -0.010 C 
ATOM      6  C   LIG    1       -2.292   3.168  -0.031  0.00  0.00    +0.030 C 
ATOM      7  C   LIG    1       -1.392   2.902   1.179  0.00  0.00    +0.280 C 
ATOM      8  O   LIG    1       -0.750  -0.477   2.090  0.00  0.00    -0.530 OA
ENDROOT
BRANCH   1  13
ATOM      9  C   LIG    1       -1.315   1.591   7.523  0.00  0.00    +0.550 C 
ATOM     10  N   LIG    1       -1.742   1.638   6.245  0.00  0.00    -0.610 N 
ATOM     11  C   LIG    1       -2.582   0.564   5.697  0.00  0.00    +0.280 C 
ATOM     12  C   LIG    1       -1.932   0.038   4.413  0.00  0.00    +0.050 C 
ATOM     13  C   LIG    1       -1.695   1.204   3.451  0.00  0.00    -0.010 C 
ATOM     14  C   LIG    1       -0.742   2.213   4.096  0.00  0.00    +0.040 C 
ATOM     15  C   LIG    1       -1.379   2.765   5.375  0.00  0.00    +0.270 C 
ATOM     16  O   LIG    1       -1.543   0.610   8.204  0.00  0.00    -0.540 OA
BRANCH   9  18
ATOM     17  C   LIG    1       -0.235   2.722   9.379  0.00  0.00    +0.140 C 
ATOM     18  C   LIG    1       -0.572   2.726   8.092  0.00  0.00    -0.090 C 
ENDBRANCH   9  18
ENDBRANCH   1  13
BRANCH   5  19
ATOM     19  C   LIG    1       -2.405   3.107  -2.508  0.00  0.00    +0.520 C 
ATOM     20  N   LIG    1       -2.850   4.361  -2.726  0.00  0.00    -0.730 N 
ATOM     21  H   LIG    1       -2.610   5.074  -2.115  0.00  0.00    +0.400 HD
ATOM     22  O   LIG    1       -2.704   2.215  -3.272  0.00  0.00    -0.530 OA
BRANCH  20  23
ATOM     23  C   LIG    1       -3.696   4.645  -3.888  0.00  0.00    +0.260 C 
BRANCH  23  24
ATOM     24  C   LIG    1       -4.060   6.131  -3.902  0.00  0.00    -0.030 C 
ATOM     25  C   LIG    1       -4.924   6.456  -2.682  0.00  0.00    +0.020 C 
ATOM     26  C   LIG    1       -4.838   6.454  -5.179  0.00  0.00    +0.030 C 
ENDBRANCH  23  24
ENDBRANCH  20  23
ENDBRANCH   5  19
TORSDOF 5
