REMARK  Name = ZINCrD0000075k5a.0
REMARK                            x       y       z     vdW  Elec       q    Type
REMARK                         _______ _______ _______ _____ _____    ______ ____
ROOT
ATOM      1  C   LIG    1       -0.031   1.227  -0.374  0.00  0.00    +0.520 C 
ATOM      2  O   LIG    1       -0.024   0.023  -0.535  0.00  0.00    -0.500 OA
ENDROOT
BRANCH   1   3
ATOM      3  C   LIG    1       -1.311   1.937  -0.172  0.00  0.00    -0.100 A 
ATOM      4  C   LIG    1       -1.321   3.321   0.019  0.00  0.00    +0.070 A 
ATOM      5  C   LIG    1       -2.518   3.982   0.203  0.00  0.00    +0.030 A 
ATOM      6  C   LIG    1       -3.708   3.280   0.209  0.00  0.00    +0.030 A 
ATOM      7  C   LIG    1       -3.708   1.902   0.025  0.00  0.00    +0.140 A 
ATOM      8  C   LIG    1       -2.512   1.228  -0.166  0.00  0.00    +0.090 A 
BRANCH   7   9
ATOM      9  N   LIG    1       -4.916   1.195   0.033  0.00  0.00    -0.670 N 
ATOM     10  H   LIG    1       -5.722   1.610  -0.312  0.00  0.00    +0.410 HD
ATOM     11  C   LIG    1       -4.958  -0.061   0.519  0.00  0.00    +0.590 C 
ATOM     12  O   LIG    1       -3.970  -0.546   1.040  0.00  0.00    -0.500 OA
BRANCH  11  13
ATOM     13  C   LIG    1       -6.194  -0.843   0.422  0.00  0.00    -0.280 A 
ATOM     14  C   LIG    1       -6.361  -2.121   0.876  0.00  0.00    +0.120 A 
ATOM     15  C   LIG    1       -7.625  -2.615   0.656  0.00  0.00    +0.000 A 
ATOM     16  C   LIG    1       -8.465  -1.773   0.042  0.00  0.00    -0.050 A 
ATOM     17  S   LIG    1       -7.701  -0.284  -0.290  0.00  0.00    +0.200 S 
ENDBRANCH  11  13
ENDBRANCH   7   9
ENDBRANCH   1   3
BRANCH   1  18
ATOM     18  O   LIG    1        1.127   1.915  -0.385  0.00  0.00    -0.320 OA
BRANCH  18  19
ATOM     19  C   LIG    1        2.345   1.152  -0.595  0.00  0.00    +0.240 C 
BRANCH  19  20
ATOM     20  C   LIG    1        3.490   1.829   0.113  0.00  0.00    -0.100 A 
ATOM     21  C   LIG    1        3.541   3.209   0.181  0.00  0.00    +0.050 A 
ATOM     22  C   LIG    1        4.589   3.830   0.834  0.00  0.00    +0.010 A 
ATOM     23  C   LIG    1        5.590   3.072   1.412  0.00  0.00    +0.020 A 
ATOM     24  C   LIG    1        5.542   1.692   1.339  0.00  0.00    +0.010 A 
ATOM     25  C   LIG    1        4.491   1.071   0.690  0.00  0.00    +0.030 A 
ENDBRANCH  19  20
BRANCH  19  29
ATOM     26  N   LIG    1        3.672   0.328  -2.512  0.00  0.00    -0.840 N 
ATOM     27  H   LIG    1        3.863   0.279  -3.462  0.00  0.00    +0.410 HD
ATOM     28  H   LIG    1        4.224  -0.160  -1.881  0.00  0.00    +0.400 HD
ATOM     29  C   LIG    1        2.641   1.075  -2.070  0.00  0.00    +0.510 C 
ATOM     30  O   LIG    1        1.952   1.685  -2.860  0.00  0.00    -0.520 OA
ENDBRANCH  19  29
ENDBRANCH  18  19
ENDBRANCH   1  18
TORSDOF 7
