REMARK  Name = ZINCrH000004uq5l.0
REMARK                            x       y       z     vdW  Elec       q    Type
REMARK                         _______ _______ _______ _____ _____    ______ ____
ROOT
ATOM      1  C   LIG    1       -2.903   1.784  -1.576  0.00  0.00    +0.230 C 
ATOM      2  C   LIG    1       -4.045   1.701  -0.558  0.00  0.00    +0.030 C 
ATOM      3  C   LIG    1       -3.481   1.286   0.803  0.00  0.00    +0.020 C 
ATOM      4  C   LIG    1       -2.479   2.341   1.287  0.00  0.00    +0.020 C 
ATOM      5  C   LIG    1       -1.321   2.430   0.288  0.00  0.00    +0.290 C 
ATOM      6  N   LIG    1       -1.868   2.685  -1.052  0.00  0.00    -0.990 NA
ENDROOT
BRANCH   6   7
ATOM      7  S   LIG    1       -1.327   3.964  -1.954  0.00  0.00    +2.680 S 
ATOM      8  O   LIG    1       -0.488   4.730  -1.102  0.00  0.00    -0.940 OA
ATOM      9  O   LIG    1       -2.467   4.502  -2.611  0.00  0.00    -0.940 OA
BRANCH   7  10
ATOM     10  C   LIG    1       -0.288   3.309  -3.217  0.00  0.00    -0.680 A 
ATOM     11  C   LIG    1       -0.684   3.372  -4.540  0.00  0.00    +0.150 A 
ATOM     12  C   LIG    1        0.131   2.858  -5.531  0.00  0.00    +0.010 A 
ATOM     13  C   LIG    1        1.343   2.280  -5.200  0.00  0.00    +0.090 A 
ATOM     14  C   LIG    1        1.740   2.216  -3.878  0.00  0.00    +0.010 A 
ATOM     15  C   LIG    1        0.927   2.736  -2.886  0.00  0.00    +0.050 A 
ATOM     16 CL   LIG    1        1.429   2.664  -1.226  0.00  0.00    -0.040 Cl
ENDBRANCH   7  10
ENDBRANCH   6   7
BRANCH   1  17
ATOM     17  C   LIG    1       -3.436   2.330  -2.902  0.00  0.00    +0.290 C 
BRANCH  17  22
ATOM     18  O   LIG    1       -4.653   2.632  -5.291  0.00  0.00    -0.560 OA
ATOM     19  C   LIG    1       -4.870   1.580  -4.723  0.00  0.00    +0.700 C 
ATOM     20  N   LIG    1       -5.632   0.639  -5.315  0.00  0.00    -0.690 N 
ATOM     21  H   LIG    1       -5.877  -0.164  -4.829  0.00  0.00    +0.410 HD
ATOM     22  N   LIG    1       -4.350   1.354  -3.500  0.00  0.00    -0.740 N 
ATOM     23  H   LIG    1       -4.581   0.546  -3.016  0.00  0.00    +0.400 HD
BRANCH  20  24
ATOM     24  C   LIG    1       -6.069   0.819  -6.632  0.00  0.00    +0.170 A 
ATOM     25  C   LIG    1       -5.273   1.503  -7.542  0.00  0.00    +0.020 A 
ATOM     26  C   LIG    1       -5.704   1.674  -8.843  0.00  0.00    +0.030 A 
ATOM     27  C   LIG    1       -6.932   1.176  -9.237  0.00  0.00    -0.020 A 
ATOM     28  C   LIG    1       -7.729   0.499  -8.332  0.00  0.00    +0.030 A 
ATOM     29  C   LIG    1       -7.301   0.320  -7.031  0.00  0.00    -0.030 A 
ENDBRANCH  20  24
ENDBRANCH  17  22
ENDBRANCH   1  17
TORSDOF 5
