REMARK  Name = ZINCvU0000000AFB.0
REMARK                            x       y       z     vdW  Elec       q    Type
REMARK                         _______ _______ _______ _____ _____    ______ ____
ROOT
ATOM      1  O   LIG    1        8.529  -1.788  -0.198  0.00  0.00    -0.510 OA
ATOM      2  C   LIG    1        7.903  -2.830  -0.198  0.00  0.00    +0.560 C 
ATOM      3  N   LIG    1        6.560  -2.809  -0.082  0.00  0.00    -0.670 N 
ATOM      4  H   LIG    1        6.066  -3.642  -0.014  0.00  0.00    +0.410 HD
ENDROOT
BRANCH   3   5
ATOM      5  C   LIG    1        5.878  -1.587  -0.059  0.00  0.00    +0.120 A 
ATOM      6  C   LIG    1        6.453  -0.484   0.551  0.00  0.00    +0.090 A 
ATOM      7  C   LIG    1        5.769   0.727   0.571  0.00  0.00    -0.100 A 
ATOM      8  C   LIG    1        4.504   0.835  -0.023  0.00  0.00    +0.070 A 
ATOM      9  O   LIG    1        4.063   2.103   0.135  0.00  0.00    -0.200 OA
ATOM     10  C   LIG    1        4.960   2.861   0.803  0.00  0.00    +0.080 A 
ATOM     11  C   LIG    1        4.952   4.194   1.195  0.00  0.00    +0.020 A 
ATOM     12  C   LIG    1        6.026   4.720   1.881  0.00  0.00    +0.060 A 
ATOM     13  C   LIG    1        7.122   3.929   2.189  0.00  0.00    -0.010 A 
ATOM     14  C   LIG    1        7.148   2.604   1.809  0.00  0.00    +0.070 A 
ATOM     15  C   LIG    1        3.941  -0.281  -0.631  0.00  0.00    +0.050 A 
ATOM     16  C   LIG    1        6.070   2.064   1.116  0.00  0.00    -0.120 A 
ATOM     17  C   LIG    1        4.622  -1.479  -0.648  0.00  0.00    +0.040 A 
ENDBRANCH   3   5
BRANCH   2  18
ATOM     18  C   LIG    1        8.614  -4.120  -0.326  0.00  0.00    -0.160 A 
ATOM     19  C   LIG    1        7.898  -5.318  -0.326  0.00  0.00    +0.110 A 
ATOM     20  C   LIG    1        8.568  -6.518  -0.445  0.00  0.00    +0.000 A 
ATOM     21  C   LIG    1        9.946  -6.536  -0.565  0.00  0.00    +0.160 A 
ATOM     22  C   LIG    1       10.662  -5.351  -0.566  0.00  0.00    -0.680 A 
ATOM     23  C   LIG    1       10.004  -4.144  -0.452  0.00  0.00    +0.190 A 
BRANCH  22  24
ATOM     24  S   LIG    1       12.417  -5.385  -0.719  0.00  0.00    +2.690 S 
ATOM     25  O   LIG    1       12.834  -6.668  -0.274  0.00  0.00    -0.950 OA
ATOM     26  O   LIG    1       12.892  -4.173  -0.151  0.00  0.00    -0.950 OA
BRANCH  24  27
ATOM     27  N   LIG    1       12.769  -5.313  -2.336  0.00  0.00    -0.990 NA
ATOM     28  C   LIG    1       12.905  -6.543  -3.128  0.00  0.00    +0.290 C 
ATOM     29  C   LIG    1       11.970  -6.447  -4.343  0.00  0.00    +0.010 C 
ATOM     30  C   LIG    1       12.281  -5.164  -5.118  0.00  0.00    +0.020 C 
ATOM     31  C   LIG    1       12.028  -3.951  -4.220  0.00  0.00    +0.010 C 
ATOM     32  C   LIG    1       12.958  -4.018  -3.004  0.00  0.00    +0.290 C 
ENDBRANCH  24  27
ENDBRANCH  22  24
ENDBRANCH   2  18
TORSDOF 4
