REMARK  Name = ZINCrD000002XIi2.0
REMARK                            x       y       z     vdW  Elec       q    Type
REMARK                         _______ _______ _______ _____ _____    ______ ____
ROOT
ATOM      1  C   LIG    1        2.120   3.247  -2.912  0.00  0.00    +0.110 A 
ATOM      2  C   LIG    1        1.343   2.522  -2.033  0.00  0.00    -0.080 A 
ATOM      3  N   LIG    1        2.176   2.149  -0.994  0.00  0.00    -0.550 N 
ATOM      4  H   LIG    1        1.927   1.631  -0.213  0.00  0.00    +0.420 HD
ATOM      5  C   LIG    1        3.409   2.645  -1.278  0.00  0.00    +0.280 A 
ATOM      6  N   LIG    1        3.355   3.298  -2.422  0.00  0.00    -0.470 NA
ENDROOT
BRANCH   2   7
ATOM      7  C   LIG    1       -0.084   2.215  -2.170  0.00  0.00    +0.600 C 
ATOM      8  N   LIG    1       -0.886   2.244  -1.088  0.00  0.00    -0.610 N 
ATOM      9  C   LIG    1       -0.339   2.496   0.255  0.00  0.00    +0.230 C 
ATOM     10  C   LIG    1       -1.160   3.612   0.910  0.00  0.00    +0.230 C 
ATOM     11  O   LIG    1       -2.549   3.275   0.845  0.00  0.00    -0.350 OA
ATOM     12  C   LIG    1       -3.062   3.160  -0.484  0.00  0.00    +0.070 C 
ATOM     13  C   LIG    1       -4.561   2.853  -0.429  0.00  0.00    +0.050 C 
ATOM     14  C   LIG    1       -5.288   4.030   0.230  0.00  0.00    +0.010 C 
ATOM     15  C   LIG    1       -4.983   5.310  -0.552  0.00  0.00    +0.210 C 
ATOM     16  O   LIG    1       -3.570   5.520  -0.589  0.00  0.00    -0.370 OA
ATOM     17  C   LIG    1       -2.841   4.474  -1.236  0.00  0.00    +0.190 C 
ATOM     18  C   LIG    1       -2.336   2.025  -1.214  0.00  0.00    +0.280 C 
ATOM     19  O   LIG    1       -0.543   1.932  -3.261  0.00  0.00    -0.510 OA
ENDBRANCH   2   7
BRANCH   5  20
ATOM     20  C   LIG    1        4.614   2.483  -0.438  0.00  0.00    -0.020 A 
ATOM     21  C   LIG    1        4.542   1.771   0.761  0.00  0.00    +0.030 A 
ATOM     22  C   LIG    1        5.671   1.620   1.538  0.00  0.00    +0.030 A 
ATOM     23  C   LIG    1        6.872   2.180   1.137  0.00  0.00    -0.020 A 
ATOM     24  C   LIG    1        6.948   2.892  -0.049  0.00  0.00    +0.030 A 
ATOM     25 CL   LIG    1        8.287   1.990   2.124  0.00  0.00    -0.060 Cl
ATOM     26  C   LIG    1        5.827   3.046  -0.837  0.00  0.00    +0.090 A 
ENDBRANCH   5  20
BRANCH   1  28
ATOM     27  C   LIG    1        1.163   5.295  -3.930  0.00  0.00    +0.040 C 
ATOM     28  C   LIG    1        1.652   3.871  -4.201  0.00  0.00    +0.120 C 
ENDBRANCH   1  28
TORSDOF 3
