REMARK  Name = ZINCqH0000005fwN.0
REMARK                            x       y       z     vdW  Elec       q    Type
REMARK                         _______ _______ _______ _____ _____    ______ ____
ROOT
ATOM      1  C   LIG    1       -0.370   2.858  -1.748  0.00  0.00    +0.280 C 
ATOM      2  N   LIG    1       -0.804   1.613  -1.108  0.00  0.00    -0.610 N 
ATOM      3  C   LIG    1       -1.786   0.876  -1.664  0.00  0.00    +0.490 C 
ATOM      4  O   LIG    1       -2.145  -0.154  -1.134  0.00  0.00    -0.520 OA
ENDROOT
BRANCH   3   5
ATOM      5  C   LIG    1       -2.437   1.331  -2.945  0.00  0.00    +0.250 C 
BRANCH   5   6
ATOM      6  N   LIG    1       -3.374   0.301  -3.411  0.00  0.00    -0.470 N 
ATOM      7  C   LIG    1       -4.551   0.230  -2.542  0.00  0.00    +0.190 C 
ATOM      8  C   LIG    1       -5.476  -0.878  -3.059  0.00  0.00    +0.040 C 
ATOM      9  C   LIG    1       -4.778  -2.221  -2.829  0.00  0.00    +0.080 C 
ATOM     10  C   LIG    1       -3.351  -2.138  -3.308  0.00  0.00    -0.100 A 
ATOM     11  C   LIG    1       -2.654  -3.322  -3.490  0.00  0.00    +0.050 A 
ATOM     12  C   LIG    1       -1.341  -3.303  -3.922  0.00  0.00    -0.060 A 
ATOM     13  C   LIG    1       -0.716  -2.095  -4.174  0.00  0.00    +0.050 A 
ATOM     14  C   LIG    1       -1.405  -0.914  -3.997  0.00  0.00    -0.020 A 
ATOM     15 CL   LIG    1       -0.479  -4.793  -4.149  0.00  0.00    -0.080 Cl
ATOM     16  C   LIG    1       -2.731  -0.927  -3.564  0.00  0.00    +0.150 A 
ENDBRANCH   5   6
ENDBRANCH   3   5
BRANCH   2  17
ATOM     17  C   LIG    1       -0.171   1.171   0.137  0.00  0.00    +0.360 C 
BRANCH  17  18
ATOM     18  C   LIG    1       -0.921   1.741   1.313  0.00  0.00    -0.140 A 
ATOM     19  C   LIG    1       -1.754   0.933   2.055  0.00  0.00    +0.130 A 
ATOM     20  C   LIG    1       -2.446   1.462   3.148  0.00  0.00    -0.040 A 
ATOM     21  C   LIG    1       -2.296   2.812   3.475  0.00  0.00    +0.110 A 
ATOM     22  C   LIG    1       -1.464   3.613   2.722  0.00  0.00    +0.000 A 
ATOM     23  C   LIG    1       -0.777   3.081   1.642  0.00  0.00    +0.140 A 
ATOM     24  F   LIG    1        0.037   3.870   0.907  0.00  0.00    -0.130 F 
BRANCH  20  25
ATOM     25  C   LIG    1       -3.309   0.626   3.926  0.00  0.00    +0.250 C 
ATOM     26  N   LIG    1       -3.994  -0.038   4.544  0.00  0.00    -0.400 NA
ENDBRANCH  20  25
ENDBRANCH  17  18
ENDBRANCH   2  17
TORSDOF 5
