REMARK  Name = ZINCkj000005j8p9.0
REMARK                            x       y       z     vdW  Elec       q    Type
REMARK                         _______ _______ _______ _____ _____    ______ ____
ROOT
ATOM      1  N   LIG    1       -1.077   4.401   0.805  0.00  0.00    -0.750 N 
ATOM      2  H   LIG    1       -0.287   4.251   1.346  0.00  0.00    +0.400 HD
ATOM      3  C   LIG    1       -1.219   5.556   0.125  0.00  0.00    +0.710 C 
ATOM      4  N   LIG    1       -0.211   6.450   0.098  0.00  0.00    -0.630 N 
ATOM      5  C   LIG    1        0.996   6.242   0.910  0.00  0.00    +0.260 C 
ATOM      6  C   LIG    1        2.224   6.326  -0.010  0.00  0.00    +0.030 C 
ATOM      7  C   LIG    1        2.197   7.656  -0.766  0.00  0.00    -0.010 C 
ATOM      8  C   LIG    1        0.939   7.726  -1.635  0.00  0.00    +0.020 C 
ATOM      9  C   LIG    1       -0.300   7.655  -0.738  0.00  0.00    +0.300 C 
ATOM     10  O   LIG    1       -2.256   5.791  -0.465  0.00  0.00    -0.580 OA
ENDROOT
BRANCH   1  12
ATOM     11  C   LIG    1       -3.211   3.674   1.754  0.00  0.00    +0.030 C 
ATOM     12  C   LIG    1       -2.118   3.373   0.727  0.00  0.00    +0.280 C 
BRANCH  12  13
ATOM     13  C   LIG    1       -1.504   2.003   1.021  0.00  0.00    -0.090 C 
ATOM     14  C   LIG    1       -0.896   2.007   2.425  0.00  0.00    +0.060 C 
ATOM     15  C   LIG    1       -0.411   1.702  -0.007  0.00  0.00    +0.040 C 
BRANCH  13  16
ATOM     16  C   LIG    1       -2.591   0.929   0.939  0.00  0.00    +0.270 C 
BRANCH  16  17
ATOM     17  N   LIG    1       -2.050  -0.353   1.412  0.00  0.00    -0.390 N 
ATOM     18  C   LIG    1       -1.326  -1.012   0.317  0.00  0.00    +0.310 C 
ATOM     19  C   LIG    1       -3.152  -1.215   1.859  0.00  0.00    +0.320 C 
ATOM     20  H   LIG    1       -1.418  -0.188   2.181  0.00  0.00    +0.420 HD
ENDBRANCH  16  17
ENDBRANCH  13  16
ENDBRANCH  12  13
ENDBRANCH   1  12
BRANCH   7  21
ATOM     21  C   LIG    1        3.438   7.761  -1.656  0.00  0.00    +0.170 C 
BRANCH  21  22
ATOM     22  O   LIG    1        4.608   7.813  -0.838  0.00  0.00    -0.570 OA
ATOM     23  H   LIG    1        5.434   7.881  -1.337  0.00  0.00    +0.380 HD
ENDBRANCH  21  22
ENDBRANCH   7  21
TORSDOF 6
