REMARK  Name = ZINCvU0000000IWS.0
REMARK                            x       y       z     vdW  Elec       q    Type
REMARK                         _______ _______ _______ _____ _____    ______ ____
ROOT
ATOM      1  C   LIG    1        1.250  -2.177  -0.049  0.00  0.00    +0.240 A 
ATOM      2  N   LIG    1        0.226  -2.981  -0.216  0.00  0.00    -0.270 NA
ATOM      3  N   LIG    1        0.611  -4.205  -0.131  0.00  0.00    -0.280 NA
ATOM      4  C   LIG    1        1.904  -4.256   0.096  0.00  0.00    +0.150 A 
ATOM      5  N   LIG    1        2.357  -2.969   0.150  0.00  0.00    -0.450 N 
ENDROOT
BRANCH   1  10
ATOM      6  F   LIG    1        1.138   3.420  -0.154  0.00  0.00    -0.130 F 
ATOM      7  C   LIG    1        1.165   2.070  -0.128  0.00  0.00    +0.120 A 
ATOM      8  C   LIG    1        2.247   1.411   0.434  0.00  0.00    -0.020 A 
ATOM      9  C   LIG    1        2.279   0.033   0.463  0.00  0.00    +0.080 A 
ATOM     10  C   LIG    1        1.220  -0.699  -0.076  0.00  0.00    -0.030 A 
ATOM     11  C   LIG    1        0.133  -0.031  -0.642  0.00  0.00    +0.110 A 
ATOM     12  C   LIG    1        0.111   1.348  -0.665  0.00  0.00    -0.010 A 
ENDBRANCH   1  10
BRANCH   4  13
ATOM     13  S   LIG    1        2.874  -5.715   0.287  0.00  0.00    +0.010 S 
BRANCH  13  14
ATOM     14  C   LIG    1        1.591  -6.975   0.082  0.00  0.00    +0.210 C 
BRANCH  14  15
ATOM     15  C   LIG    1        2.207  -8.344   0.210  0.00  0.00    -0.220 A 
ATOM     16  C   LIG    1        2.341  -9.041   1.343  0.00  0.00    +0.250 A 
ATOM     17  N   LIG    1        2.909 -10.219   1.227  0.00  0.00    -0.460 NA
ATOM     18  C   LIG    1        3.278 -10.583   0.033  0.00  0.00    +0.130 A 
ATOM     19  S   LIG    1        2.867  -9.307  -1.110  0.00  0.00    +0.120 S 
BRANCH  18  20
ATOM     20  C   LIG    1        3.932 -11.865  -0.310  0.00  0.00    -0.040 A 
ATOM     21  C   LIG    1        4.277 -12.143  -1.633  0.00  0.00    +0.030 A 
ATOM     22  C   LIG    1        4.893 -13.338  -1.945  0.00  0.00    +0.010 A 
ATOM     23  C   LIG    1        5.157 -14.264  -0.951  0.00  0.00    +0.030 A 
ATOM     24  C   LIG    1        4.812 -13.996   0.362  0.00  0.00    +0.010 A 
ATOM     25  C   LIG    1        4.202 -12.803   0.688  0.00  0.00    +0.070 A 
ENDBRANCH  18  20
ENDBRANCH  14  15
ENDBRANCH  13  14
ENDBRANCH   4  13
BRANCH   5  26
ATOM     26  C   LIG    1        3.735  -2.524   0.377  0.00  0.00    +0.320 C 
BRANCH  26  27
ATOM     27  C   LIG    1        4.024  -2.504   1.879  0.00  0.00    +0.140 C 
ATOM     28  C   LIG    1        5.474  -2.046   2.128  0.00  0.00    +0.020 C 
ATOM     29  C   LIG    1        5.328  -0.790   3.021  0.00  0.00    +0.010 C 
ATOM     30  C   LIG    1        3.911  -0.981   3.620  0.00  0.00    +0.210 C 
ATOM     31  O   LIG    1        3.159  -1.558   2.531  0.00  0.00    -0.360 OA
ENDBRANCH  26  27
ENDBRANCH   5  26
TORSDOF 7
