REMARK  Name = ZINCrH000004tAFj.0
REMARK                            x       y       z     vdW  Elec       q    Type
REMARK                         _______ _______ _______ _____ _____    ______ ____
ROOT
ATOM      1  O   LIG    1       -4.215   0.886   0.453  0.00  0.00    -0.520 OA
ATOM      2  C   LIG    1       -4.013   2.018   0.052  0.00  0.00    +0.570 C 
ATOM      3  N   LIG    1       -3.232   2.856   0.763  0.00  0.00    -0.600 N 
ATOM      4  C   LIG    1       -2.867   4.174   0.227  0.00  0.00    +0.270 C 
ATOM      5  C   LIG    1       -3.242   5.245   1.256  0.00  0.00    +0.030 C 
ATOM      6  C   LIG    1       -2.589   4.909   2.598  0.00  0.00    +0.040 C 
ATOM      7  C   LIG    1       -3.108   3.558   3.096  0.00  0.00    +0.090 C 
ATOM      8  C   LIG    1       -2.731   2.468   2.088  0.00  0.00    +0.290 C 
ENDROOT
BRANCH   7   9
ATOM      9  C   LIG    1       -2.489   3.243   4.433  0.00  0.00    +0.290 A 
ATOM     10  N   LIG    1       -3.033   3.501   5.586  0.00  0.00    -0.480 NA
ATOM     11  C   LIG    1       -2.210   3.084   6.583  0.00  0.00    +0.050 A 
ATOM     12  C   LIG    1       -2.296   3.111   7.977  0.00  0.00    +0.070 A 
ATOM     13  C   LIG    1       -1.274   2.606   8.731  0.00  0.00    +0.000 A 
ATOM     14  C   LIG    1       -0.149   2.065   8.127  0.00  0.00    +0.030 A 
ATOM     15  C   LIG    1       -0.043   2.028   6.753  0.00  0.00    +0.010 A 
ATOM     16  C   LIG    1       -1.070   2.536   5.970  0.00  0.00    +0.050 A 
ATOM     17  N   LIG    1       -1.276   2.651   4.610  0.00  0.00    -0.600 N 
ATOM     18  H   LIG    1       -0.669   2.363   3.910  0.00  0.00    +0.420 HD
ENDBRANCH   7   9
BRANCH   2  19
ATOM     19  C   LIG    1       -4.617   2.468  -1.202  0.00  0.00    -0.210 C 
ATOM     20  C   LIG    1       -5.759   3.198  -1.183  0.00  0.00    +0.110 C 
ATOM     21  C   LIG    1       -6.335   3.607  -2.474  0.00  0.00    -0.140 A 
ATOM     22  C   LIG    1       -7.294   4.615  -2.557  0.00  0.00    +0.070 A 
ATOM     23  C   LIG    1       -7.806   4.966  -3.789  0.00  0.00    -0.020 A 
ATOM     24  C   LIG    1       -7.371   4.324  -4.937  0.00  0.00    +0.060 A 
ATOM     25  C   LIG    1       -6.420   3.323  -4.867  0.00  0.00    +0.000 A 
ATOM     26  C   LIG    1       -5.896   2.956  -3.641  0.00  0.00    +0.140 A 
ATOM     27  O   LIG    1       -4.963   1.978  -3.537  0.00  0.00    -0.300 OA
ATOM     28  C   LIG    1       -3.969   2.128  -2.519  0.00  0.00    +0.320 C 
ENDBRANCH   2  19
TORSDOF 2
