REMARK  Name = ZINCtV00000L6kWl.0
REMARK                            x       y       z     vdW  Elec       q    Type
REMARK                         _______ _______ _______ _____ _____    ______ ____
ROOT
ATOM      1  C   LIG    1        1.270   2.017   0.006  0.00  0.00    +0.250 C 
ENDROOT
BRANCH   1   2
ATOM      2  C   LIG    1        1.709   2.251  -1.416  0.00  0.00    -0.130 A 
ATOM      3  C   LIG    1        0.784   2.632  -2.371  0.00  0.00    +0.040 A 
ATOM      4  C   LIG    1        1.188   2.851  -3.675  0.00  0.00    +0.010 A 
ATOM      5  C   LIG    1        2.514   2.680  -4.026  0.00  0.00    +0.030 A 
ATOM      6  C   LIG    1        3.437   2.294  -3.073  0.00  0.00    +0.010 A 
ATOM      7  C   LIG    1        3.035   2.079  -1.768  0.00  0.00    +0.030 A 
ENDBRANCH   1   2
BRANCH   1   8
ATOM      8  C   LIG    1        1.146   3.339   0.718  0.00  0.00    +0.530 C 
ATOM      9  N   LIG    1        2.220   4.144   0.837  0.00  0.00    -0.660 N 
ATOM     10  H   LIG    1        3.088   3.844   0.524  0.00  0.00    +0.420 HD
ATOM     11  O   LIG    1        0.079   3.679   1.183  0.00  0.00    -0.480 OA
BRANCH   9  12
ATOM     12  C   LIG    1        2.084   5.413   1.411  0.00  0.00    +0.170 A 
ATOM     13  C   LIG    1        2.849   6.473   0.944  0.00  0.00    +0.020 A 
ATOM     14  C   LIG    1        2.708   7.727   1.509  0.00  0.00    -0.000 A 
ATOM     15  C   LIG    1        1.814   7.923   2.546  0.00  0.00    +0.040 A 
ATOM     16  C   LIG    1        1.054   6.867   3.017  0.00  0.00    -0.000 A 
ATOM     17 CL   LIG    1       -0.066   7.117   4.319  0.00  0.00    -0.050 Cl
ATOM     18 CL   LIG    1        3.659   9.056   0.920  0.00  0.00    -0.050 Cl
ATOM     19  C   LIG    1        1.187   5.613   2.452  0.00  0.00    +0.050 A 
ENDBRANCH   9  12
ENDBRANCH   1   8
BRANCH   1  20
ATOM     20  O   LIG    1       -0.015   1.342   0.012  0.00  0.00    -0.320 OA
BRANCH  20  22
ATOM     21  O   LIG    1        1.061  -0.600   0.006  0.00  0.00    -0.490 OA
ATOM     22  C   LIG    1        0.001  -0.005   0.011  0.00  0.00    +0.520 C 
BRANCH  22  23
ATOM     23  C   LIG    1       -1.268  -0.760   0.016  0.00  0.00    -0.110 A 
ATOM     24  C   LIG    1       -2.488  -0.079   0.027  0.00  0.00    +0.120 A 
ATOM     25  C   LIG    1       -3.670  -0.788   0.028  0.00  0.00    +0.050 A 
ATOM     26  C   LIG    1       -3.651  -2.173   0.027  0.00  0.00    +0.000 A 
ATOM     27  C   LIG    1       -2.444  -2.855   0.021  0.00  0.00    -0.050 A 
ATOM     28 CL   LIG    1       -2.429  -4.591   0.021  0.00  0.00    -0.030 Cl
ATOM     29 CL   LIG    1       -5.144  -3.059   0.033  0.00  0.00    -0.030 Cl
ATOM     30  C   LIG    1       -1.254  -2.156   0.015  0.00  0.00    +0.130 A 
ENDBRANCH  22  23
ENDBRANCH  20  22
ENDBRANCH   1  20
TORSDOF 6
