REMARK  Name = ZINCpk00000eakkN.0
REMARK                            x       y       z     vdW  Elec       q    Type
REMARK                         _______ _______ _______ _____ _____    ______ ____
ROOT
ATOM      1  C   LIG    1       -3.741  -1.596   1.045  0.00  0.00    +0.260 C 
ATOM      2  C   LIG    1       -3.640  -0.598  -0.112  0.00  0.00    +0.040 C 
ATOM      3  C   LIG    1       -2.345   0.205   0.026  0.00  0.00    +0.220 C 
ATOM      4  N   LIG    1       -1.196  -0.709   0.010  0.00  0.00    -0.480 N 
ATOM      5  C   LIG    1       -1.247  -1.647   1.139  0.00  0.00    +0.210 C 
ATOM      6  C   LIG    1       -2.509  -2.505   1.034  0.00  0.00    +0.040 C 
ENDROOT
BRANCH   1  11
ATOM      7  C   LIG    1       -7.527  -5.698   1.003  0.00  0.00    +0.150 C 
ATOM      8  C   LIG    1       -7.420  -4.527   2.010  0.00  0.00    +0.090 C 
ATOM      9  C   LIG    1       -7.019  -3.319   1.150  0.00  0.00    +0.180 C 
ATOM     10  C   LIG    1       -5.955  -2.463   1.790  0.00  0.00    +0.530 C 
ATOM     11  N   LIG    1       -4.950  -2.408   0.886  0.00  0.00    -0.580 N 
ATOM     12  C   LIG    1       -5.198  -3.196  -0.172  0.00  0.00    +0.740 C 
ATOM     13  O   LIG    1       -4.500  -3.240  -1.166  0.00  0.00    -0.520 OA
ATOM     14  O   LIG    1       -5.992  -1.935   2.881  0.00  0.00    -0.460 OA
ATOM     15  N   LIG    1       -6.301  -3.925  -0.003  0.00  0.00    -0.640 N 
ATOM     16  C   LIG    1       -7.119  -5.098  -0.347  0.00  0.00    +0.330 C 
BRANCH   7  18
ATOM     17  C   LIG    1       -8.963  -7.584   0.645  0.00  0.00    +0.220 C 
ATOM     18  O   LIG    1       -8.867  -6.193   0.957  0.00  0.00    -0.370 OA
ENDBRANCH   7  18
ENDBRANCH   1  11
BRANCH   4  19
ATOM     19  C   LIG    1        0.002  -0.004   0.002  0.00  0.00    +0.320 A 
ATOM     20  C   LIG    1        1.209  -0.696  -0.013  0.00  0.00    -0.050 A 
ATOM     21  C   LIG    1        2.393   0.019  -0.021  0.00  0.00    +0.090 A 
ATOM     22  C   LIG    1        2.331   1.406  -0.013  0.00  0.00    -0.070 A 
ATOM     23  C   LIG    1        1.098   2.027   0.003  0.00  0.00    +0.150 A 
ATOM     24  C   LIG    1        1.024   3.532   0.011  0.00  0.00    +0.130 C 
ATOM     25  N   LIG    1       -0.016   1.320   0.009  0.00  0.00    -0.520 NA
ENDBRANCH   4  19
TORSDOF 3
