REMARK  Name = ZINCrg00000fS7ax.0
REMARK                            x       y       z     vdW  Elec       q    Type
REMARK                         _______ _______ _______ _____ _____    ______ ____
ROOT
ATOM      1  C   LIG    1       -2.226   0.840  -0.598  0.00  0.00    +0.520 C 
ATOM      2  N   LIG    1       -3.413   1.448  -0.793  0.00  0.00    -0.600 N 
ATOM      3  C   LIG    1       -3.601   2.858  -0.427  0.00  0.00    +0.280 C 
ATOM      4  C   LIG    1       -4.817   2.976   0.490  0.00  0.00    +0.010 C 
ATOM      5  C   LIG    1       -6.030   2.336  -0.189  0.00  0.00    +0.020 C 
ATOM      6  C   LIG    1       -5.753   0.851  -0.438  0.00  0.00    -0.020 C 
ATOM      7  C   LIG    1       -4.546   0.711  -1.371  0.00  0.00    +0.270 C 
ATOM      8  O   LIG    1       -1.329   1.429  -0.034  0.00  0.00    -0.530 OA
ENDROOT
BRANCH   1  10
ATOM      9  C   LIG    1       -1.784  -0.564  -2.594  0.00  0.00    +0.070 C 
ATOM     10  C   LIG    1       -2.014  -0.571  -1.081  0.00  0.00    +0.260 C 
BRANCH  10  11
ATOM     11  N   LIG    1       -0.844  -1.146  -0.412  0.00  0.00    -0.700 N 
ATOM     12  H   LIG    1       -0.147  -0.565  -0.070  0.00  0.00    +0.420 HD
ATOM     13  C   LIG    1       -0.739  -2.482  -0.267  0.00  0.00    +0.650 C 
ATOM     14  O   LIG    1       -1.612  -3.210  -0.696  0.00  0.00    -0.570 OA
BRANCH  13  15
ATOM     15  O   LIG    1        0.333  -3.009   0.353  0.00  0.00    -0.360 OA
BRANCH  15  16
ATOM     16  C   LIG    1        0.380  -4.455   0.473  0.00  0.00    +0.290 C 
BRANCH  16  17
ATOM     17  C   LIG    1        1.643  -4.860   1.189  0.00  0.00    -0.100 A 
ATOM     18  C   LIG    1        2.793  -5.119   0.468  0.00  0.00    +0.040 A 
ATOM     19  C   LIG    1        3.953  -5.485   1.125  0.00  0.00    +0.010 A 
ATOM     20  C   LIG    1        3.960  -5.602   2.502  0.00  0.00    +0.020 A 
ATOM     21  C   LIG    1        2.808  -5.347   3.223  0.00  0.00    +0.010 A 
ATOM     22  C   LIG    1        1.649  -4.976   2.566  0.00  0.00    +0.030 A 
ENDBRANCH  16  17
ENDBRANCH  15  16
ENDBRANCH  13  15
ENDBRANCH  10  11
ENDBRANCH   1  10
BRANCH   6  23
ATOM     23  C   LIG    1       -6.978   0.205  -1.087  0.00  0.00    +0.280 C 
BRANCH  23  24
ATOM     24  N   LIG    1       -8.101   0.233  -0.146  0.00  0.00    -1.120 NA
ATOM     25  H   LIG    1       -7.942   0.418   0.793  0.00  0.00    +0.420 HD
BRANCH  24  26
ATOM     26  S   LIG    1       -9.640  -0.051  -0.686  0.00  0.00    +2.610 S 
ATOM     27  O   LIG    1       -9.793   0.831  -1.789  0.00  0.00    -0.950 OA
ATOM     28  O   LIG    1      -10.449   0.081   0.475  0.00  0.00    -0.960 OA
ATOM     29  C   LIG    1       -9.612  -1.775  -1.248  0.00  0.00    -0.280 C 
ENDBRANCH  24  26
ENDBRANCH  23  24
ENDBRANCH   6  23
TORSDOF 8
