REMARK  Name = ZINCc70000002tE9.0
REMARK                            x       y       z     vdW  Elec       q    Type
REMARK                         _______ _______ _______ _____ _____    ______ ____
ROOT
ATOM      1  C   LIG    1       -2.034   1.815   1.339  0.00  0.00    +0.160 A 
ATOM      2  N   LIG    1       -2.267   2.219   2.573  0.00  0.00    -0.460 NA
ATOM      3  C   LIG    1       -1.120   2.240   3.251  0.00  0.00    +0.280 A 
ATOM      4  C   LIG    1       -0.123   1.830   2.417  0.00  0.00    +0.100 A 
ATOM      5  N   LIG    1       -0.698   1.558   1.213  0.00  0.00    -0.400 N 
ATOM      6  C   LIG    1       -0.013   1.086   0.008  0.00  0.00    +0.340 C 
ENDROOT
BRANCH   3   7
ATOM      7  N   LIG    1       -0.966   2.619   4.592  0.00  0.00    -0.850 N 
ATOM      8  H   LIG    1       -1.737   2.898   5.109  0.00  0.00    +0.400 HD
ATOM      9  H   LIG    1       -0.087   2.603   5.003  0.00  0.00    +0.410 HD
ENDBRANCH   3   7
BRANCH   1  10
ATOM     10  C   LIG    1       -3.043   1.664   0.279  0.00  0.00    +0.570 C 
ATOM     11  O   LIG    1       -2.711   1.279  -0.825  0.00  0.00    -0.510 OA
BRANCH  10  12
ATOM     12  O   LIG    1       -4.336   1.952   0.532  0.00  0.00    -0.330 OA
BRANCH  12  14
ATOM     13  C   LIG    1       -6.682   2.152  -0.087  0.00  0.00    +0.070 C 
ATOM     14  C   LIG    1       -5.276   1.780  -0.561  0.00  0.00    +0.200 C 
ENDBRANCH  12  14
ENDBRANCH  10  12
ENDBRANCH   1  10
TORSDOF 4
