REMARK  Name = ZINCpe000000Y6il.0
REMARK                            x       y       z     vdW  Elec       q    Type
REMARK                         _______ _______ _______ _____ _____    ______ ____
ROOT
ATOM      1  C   LIG    1        0.114  -0.041   2.833  0.00  0.00    +0.610 C 
ATOM      2  N   LIG    1       -0.027  -0.637   4.033  0.00  0.00    -0.620 N 
ATOM      3  C   LIG    1       -0.348   0.119   5.241  0.00  0.00    +0.310 C 
ATOM      4  C   LIG    1        0.303  -0.543   6.451  0.00  0.00    -0.320 C 
ATOM      5  S   LIG    1        2.096  -0.528   6.186  0.00  0.00    +2.490 S 
ATOM      6  C   LIG    1        2.462  -1.954   5.217  0.00  0.00    -0.630 A 
ATOM      7  C   LIG    1        3.732  -2.505   5.347  0.00  0.00    +0.110 A 
ATOM      8  C   LIG    1        4.140  -3.543   4.537  0.00  0.00    +0.010 A 
ATOM      9  C   LIG    1        3.274  -4.048   3.586  0.00  0.00    +0.070 A 
ATOM     10  C   LIG    1        1.998  -3.537   3.487  0.00  0.00    +0.010 A 
ATOM     11  C   LIG    1        1.572  -2.511   4.325  0.00  0.00    -0.020 A 
ATOM     12  O   LIG    1        2.460   0.559   5.346  0.00  0.00    -0.910 OA
ATOM     13  O   LIG    1        2.777  -0.761   7.410  0.00  0.00    -0.940 OA
ATOM     14  C   LIG    1        0.137  -2.085   4.207  0.00  0.00    +0.340 C 
ATOM     15  O   LIG    1        0.293  -0.715   1.837  0.00  0.00    -0.500 OA
ENDROOT
BRANCH   1  21
ATOM     16  C   LIG    1       -2.437   4.274   2.708  0.00  0.00    +0.150 C 
ATOM     17  C   LIG    1       -1.143   3.502   2.665  0.00  0.00    +0.050 A 
ATOM     18  N   LIG    1       -0.013   4.141   2.529  0.00  0.00    -0.200 NA
ATOM     19  N   LIG    1        1.123   3.548   2.479  0.00  0.00    -0.340 N 
ATOM     20  C   LIG    1        1.232   2.209   2.571  0.00  0.00    +0.500 A 
ATOM     21  C   LIG    1        0.052   1.428   2.728  0.00  0.00    -0.210 A 
ATOM     22  O   LIG    1        2.325   1.673   2.520  0.00  0.00    -0.490 OA
ATOM     23  C   LIG    1        2.337   4.351   2.317  0.00  0.00    +0.360 C 
ATOM     24  C   LIG    1       -1.164   2.107   2.778  0.00  0.00    +0.010 A 
ATOM     25  C   LIG    1       -2.463   1.360   2.942  0.00  0.00    +0.150 C 
ENDBRANCH   1  21
TORSDOF 1
