REMARK  Name = ZINCrH000004vC2v.0
REMARK                            x       y       z     vdW  Elec       q    Type
REMARK                         _______ _______ _______ _____ _____    ______ ____
ROOT
ATOM      1  O   LIG    1       -0.781   3.317  -1.052  0.00  0.00    -0.510 OA
ATOM      2  C   LIG    1       -1.262   3.820  -0.056  0.00  0.00    +0.560 C 
ATOM      3  N   LIG    1       -1.752   5.074  -0.104  0.00  0.00    -0.580 N 
ATOM      4  C   LIG    1       -1.781   5.757  -1.380  0.00  0.00    +0.290 C 
ATOM      5  C   LIG    1       -0.465   6.551  -1.572  0.00  0.00    +0.040 C 
ATOM      6  C   LIG    1       -0.428   7.689  -0.632  0.00  0.00    +0.200 C 
ATOM      7  N   LIG    1       -0.440   7.306   0.779  0.00  0.00    -0.460 N 
ATOM      8  C   LIG    1       -1.798   7.165   1.258  0.00  0.00    +0.200 C 
ATOM      9  C   LIG    1       -2.242   5.690   1.147  0.00  0.00    +0.280 C 
ENDROOT
BRANCH   7  10
ATOM     10  C   LIG    1        0.268   8.223   1.550  0.00  0.00    +0.290 A 
ATOM     11  N   LIG    1        0.836   9.268   0.970  0.00  0.00    -0.500 NA
ATOM     12  C   LIG    1        1.515  10.162   1.664  0.00  0.00    +0.290 A 
ATOM     13  C   LIG    1        1.659  10.037   3.031  0.00  0.00    -0.020 A 
ATOM     14  C   LIG    1        1.079   8.955   3.681  0.00  0.00    +0.070 A 
ATOM     15  C   LIG    1        0.368   8.036   2.927  0.00  0.00    +0.030 A 
ATOM     16  F   LIG    1       -0.217   6.972   3.519  0.00  0.00    -0.130 F 
ENDBRANCH   7  10
BRANCH   2  17
ATOM     17  C   LIG    1       -1.311   3.055   1.208  0.00  0.00    -0.050 A 
ATOM     18  C   LIG    1       -0.641   3.527   2.338  0.00  0.00    +0.050 A 
ATOM     19  C   LIG    1       -0.686   2.808   3.515  0.00  0.00    +0.090 A 
ATOM     20  C   LIG    1       -1.395   1.623   3.579  0.00  0.00    +0.020 A 
ATOM     21  C   LIG    1       -2.067   1.150   2.462  0.00  0.00    +0.150 A 
ATOM     22  F   LIG    1       -2.758  -0.009   2.531  0.00  0.00    -0.120 F 
ATOM     23  C   LIG    1       -2.030   1.861   1.278  0.00  0.00    -0.190 A 
BRANCH  23  24
ATOM     24  C   LIG    1       -2.760   1.347   0.065  0.00  0.00    +0.510 C 
ATOM     25  F   LIG    1       -3.297   2.425  -0.648  0.00  0.00    -0.170 F 
ATOM     26  F   LIG    1       -1.868   0.645  -0.753  0.00  0.00    -0.160 F 
ATOM     27  F   LIG    1       -3.793   0.494   0.468  0.00  0.00    -0.170 F 
ENDBRANCH  23  24
ENDBRANCH   2  17
TORSDOF 3
