REMARK  Name = ZINCvU0000000Dhv.0
REMARK                            x       y       z     vdW  Elec       q    Type
REMARK                         _______ _______ _______ _____ _____    ______ ____
ROOT
ATOM      1  N   LIG    1       -0.959  -2.571  -2.451  0.00  0.00    -0.640 N 
ATOM      2  H   LIG    1       -0.974  -1.605  -2.546  0.00  0.00    +0.420 HD
ATOM      3  C   LIG    1       -1.079  -3.357  -3.539  0.00  0.00    +0.510 C 
ATOM      4  O   LIG    1       -1.061  -4.564  -3.420  0.00  0.00    -0.470 OA
ENDROOT
BRANCH   1   6
ATOM      5  C   LIG    1       -0.685  -2.431  -0.032  0.00  0.00    -0.190 A 
ATOM      6  C   LIG    1       -0.814  -3.141  -1.196  0.00  0.00    +0.050 A 
ATOM      7  S   LIG    1       -0.774  -4.818  -0.898  0.00  0.00    +0.340 S 
ATOM      8  C   LIG    1       -0.579  -4.591   0.831  0.00  0.00    -0.080 A 
ATOM      9  C   LIG    1       -0.544  -3.286   1.137  0.00  0.00    +0.020 A 
BRANCH   9  10
ATOM     10  C   LIG    1       -0.382  -2.772   2.512  0.00  0.00    -0.140 A 
ATOM     11  C   LIG    1       -1.107  -3.164   3.580  0.00  0.00    +0.030 A 
ATOM     12  C   LIG    1       -0.770  -2.541   4.765  0.00  0.00    +0.010 A 
ATOM     13  C   LIG    1        0.213  -1.642   4.672  0.00  0.00    -0.040 A 
ATOM     14  S   LIG    1        0.780  -1.549   3.010  0.00  0.00    +0.130 S 
ENDBRANCH   9  10
BRANCH   5  15
ATOM     15  C   LIG    1       -0.683  -0.970   0.030  0.00  0.00    +0.530 C 
ATOM     16  O   LIG    1       -1.729  -0.366   0.174  0.00  0.00    -0.490 OA
BRANCH  15  17
ATOM     17  O   LIG    1        0.479  -0.292  -0.074  0.00  0.00    -0.340 OA
BRANCH  17  19
ATOM     18  C   LIG    1        1.812   1.722  -0.141  0.00  0.00    +0.070 C 
ATOM     19  C   LIG    1        0.406   1.133  -0.006  0.00  0.00    +0.200 C 
ENDBRANCH  17  19
ENDBRANCH  15  17
ENDBRANCH   5  15
ENDBRANCH   1   6
BRANCH   3  20
ATOM     20  C   LIG    1       -1.237  -2.737  -4.903  0.00  0.00    +0.230 C 
BRANCH  20  21
ATOM     21  N   LIG    1       -1.347  -3.797  -5.913  0.00  0.00    -0.520 NA
ATOM     22  C   LIG    1       -2.585  -4.568  -5.735  0.00  0.00    +0.220 C 
BRANCH  21  23
ATOM     23  C   LIG    1       -1.264  -3.242  -7.271  0.00  0.00    +0.220 C 
BRANCH  23  24
ATOM     24  C   LIG    1        0.190  -2.889  -7.589  0.00  0.00    +0.190 C 
BRANCH  24  25
ATOM     25  O   LIG    1        0.977  -4.082  -7.607  0.00  0.00    -0.290 OA
BRANCH  25  26
ATOM     26  C   LIG    1        2.302  -3.943  -7.876  0.00  0.00    +0.140 A 
ATOM     27  C   LIG    1        2.832  -2.685  -8.124  0.00  0.00    -0.070 A 
ATOM     28  C   LIG    1        4.180  -2.546  -8.394  0.00  0.00    +0.060 A 
ATOM     29  C   LIG    1        4.999  -3.661  -8.426  0.00  0.00    -0.080 A 
ATOM     30  C   LIG    1        4.471  -4.917  -8.184  0.00  0.00    +0.070 A 
ATOM     31 CL   LIG    1        6.691  -3.484  -8.771  0.00  0.00    -0.070 Cl
ATOM     32  C   LIG    1        3.125  -5.060  -7.910  0.00  0.00    +0.000 A 
ENDBRANCH  25  26
ENDBRANCH  24  25
ENDBRANCH  23  24
ENDBRANCH  21  23
ENDBRANCH  20  21
ENDBRANCH   3  20
TORSDOF 11
