REMARK  Name = ZINCnE000001TDGl.0
REMARK                            x       y       z     vdW  Elec       q    Type
REMARK                         _______ _______ _______ _____ _____    ______ ____
ROOT
ATOM      1  C   LIG    1       -0.057   3.850   0.022  0.00  0.00    -0.010 A 
ATOM      2  C   LIG    1       -1.253   3.130   0.030  0.00  0.00    +0.050 A 
ATOM      3  C   LIG    1       -1.224   1.749   0.017  0.00  0.00    +0.060 A 
ATOM      4  C   LIG    1       -0.013   1.076   0.008  0.00  0.00    +0.030 A 
ATOM      5  C   LIG    1        1.177   1.779   0.000  0.00  0.00    -0.050 A 
ATOM      6  F   LIG    1       -2.382   1.052   0.019  0.00  0.00    -0.140 F 
ATOM      7  C   LIG    1        1.165   3.165   0.007  0.00  0.00    +0.160 A 
ENDROOT
BRANCH   1  11
ATOM      8  C   LIG    1       -0.529   7.748   0.046  0.00  0.00    -0.230 A 
ATOM      9  C   LIG    1        0.792   7.377   0.031  0.00  0.00    +0.230 A 
ATOM     10  N   LIG    1        0.981   6.086   0.023  0.00  0.00    -0.440 NA
ATOM     11  C   LIG    1       -0.080   5.326   0.029  0.00  0.00    +0.010 A 
ATOM     12  S   LIG    1       -1.500   6.278   0.041  0.00  0.00    +0.180 S 
BRANCH   8  14
ATOM     13  O   LIG    1       -0.243  10.020   0.055  0.00  0.00    -0.670 OA
ATOM     14  C   LIG    1       -1.023   9.076   0.058  0.00  0.00    +0.540 C 
ATOM     15  O   LIG    1       -2.231   9.279   0.070  0.00  0.00    -0.680 OA
ENDBRANCH   8  14
ENDBRANCH   1  11
BRANCH   7  16
ATOM     16  O   LIG    1        2.334   3.856  -0.000  0.00  0.00    -0.260 OA
BRANCH  16  17
ATOM     17  C   LIG    1        3.540   3.091  -0.015  0.00  0.00    +0.180 C 
BRANCH  17  18
ATOM     18  C   LIG    1        4.744   4.035  -0.022  0.00  0.00    +0.010 C 
ATOM     19  C   LIG    1        4.764   4.830  -1.331  0.00  0.00    +0.010 C 
ATOM     20  C   LIG    1        6.014   5.714  -1.363  0.00  0.00    +0.210 C 
ATOM     21  O   LIG    1        7.178   4.896  -1.225  0.00  0.00    -0.390 OA
ATOM     22  C   LIG    1        7.236   4.166   0.002  0.00  0.00    +0.200 C 
ATOM     23  C   LIG    1        6.036   3.220   0.088  0.00  0.00    -0.010 C 
ENDBRANCH  17  18
ENDBRANCH  16  17
ENDBRANCH   7  16
TORSDOF 5
