REMARK  Name = ZINCrg00000SjSCS.0
REMARK                            x       y       z     vdW  Elec       q    Type
REMARK                         _______ _______ _______ _____ _____    ______ ____
ROOT
ATOM      1  N   LIG    1       -1.197   1.851   0.018  0.00  0.00    -0.550 N 
ATOM      2  C   LIG    1       -1.259   3.199   0.031  0.00  0.00    +0.600 A 
ATOM      3  C   LIG    1       -0.069   3.943   0.024  0.00  0.00    -0.180 A 
ATOM      4  C   LIG    1        1.153   3.271   0.009  0.00  0.00    +0.370 A 
ATOM      5  N   LIG    1        1.152   1.884   0.001  0.00  0.00    -0.510 N 
ATOM      6  C   LIG    1        2.420   1.151  -0.015  0.00  0.00    +0.350 C 
ATOM      7  N   LIG    1        2.115   4.190   0.005  0.00  0.00    -0.500 NA
ATOM      8  C   LIG    1        1.581   5.403   0.017  0.00  0.00    +0.450 A 
ATOM      9  N   LIG    1        1.890   6.737   0.021  0.00  0.00    -0.460 N 
ATOM     10  C   LIG    1        0.704   7.446   0.036  0.00  0.00    +0.070 A 
ATOM     11  C   LIG    1       -0.301   6.574   0.041  0.00  0.00    +0.020 A 
ATOM     12  C   LIG    1       -1.768   6.918   0.057  0.00  0.00    +0.170 C 
ATOM     13  C   LIG    1        0.571   8.947   0.045  0.00  0.00    +0.190 C 
ATOM     14  N   LIG    1        0.232   5.297   0.029  0.00  0.00    -0.350 N 
ATOM     15  O   LIG    1       -2.339   3.764   0.044  0.00  0.00    -0.500 OA
ATOM     16  C   LIG    1       -0.014   1.212   0.009  0.00  0.00    +0.710 A 
ATOM     17  O   LIG    1        0.002  -0.004   0.002  0.00  0.00    -0.540 OA
ENDROOT
BRANCH   1  18
ATOM     18  C   LIG    1       -2.437   1.072   0.019  0.00  0.00    +0.350 C 
BRANCH  18  19
ATOM     19  C   LIG    1       -2.862   0.793   1.462  0.00  0.00    +0.170 C 
BRANCH  19  21
ATOM     20  C   LIG    1       -3.601   1.874   3.470  0.00  0.00    +0.190 C 
ATOM     21  O   LIG    1       -3.189   2.024   2.110  0.00  0.00    -0.380 OA
ENDBRANCH  19  21
ENDBRANCH  18  19
ENDBRANCH   1  18
BRANCH   9  22
ATOM     22  C   LIG    1        3.238   7.311   0.011  0.00  0.00    +0.460 C 
BRANCH  22  23
ATOM     23  C   LIG    1        3.686   7.515  -1.413  0.00  0.00    -0.060 A 
ATOM     24  C   LIG    1        3.489   8.624  -2.149  0.00  0.00    -0.020 A 
ATOM     25  C   LIG    1        4.071   8.384  -3.415  0.00  0.00    -0.070 A 
ATOM     26  C   LIG    1        4.582   7.140  -3.380  0.00  0.00    +0.190 A 
ATOM     27  O   LIG    1        4.346   6.619  -2.165  0.00  0.00    -0.160 OA
ENDBRANCH  22  23
ENDBRANCH   9  22
TORSDOF 5
