REMARK  Name = ZINCqH0000006RCm.0
REMARK                            x       y       z     vdW  Elec       q    Type
REMARK                         _______ _______ _______ _____ _____    ______ ____
ROOT
ATOM      1  C   LIG    1       -0.654   2.908   1.439  0.00  0.00    +0.160 A 
ATOM      2  C   LIG    1       -0.119   3.762   0.490  0.00  0.00    -0.090 A 
ATOM      3  C   LIG    1       -0.375   5.125   0.562  0.00  0.00    +0.220 A 
ATOM      4  C   LIG    1       -1.166   5.631   1.585  0.00  0.00    -0.010 A 
ATOM      5  C   LIG    1       -1.701   4.779   2.533  0.00  0.00    +0.090 A 
ATOM      6  C   LIG    1       -1.452   3.417   2.462  0.00  0.00    +0.090 A 
ENDROOT
BRANCH   3   7
ATOM      7  N   LIG    1        0.165   5.991  -0.398  0.00  0.00    -0.690 N 
ATOM      8  H   LIG    1        0.282   5.689  -1.313  0.00  0.00    +0.410 HD
ATOM      9  C   LIG    1        0.522   7.243  -0.052  0.00  0.00    +0.710 C 
ATOM     10  N   LIG    1        0.941   8.110  -0.995  0.00  0.00    -0.730 N 
ATOM     11  H   LIG    1        0.986   7.832  -1.923  0.00  0.00    +0.400 HD
ATOM     12  O   LIG    1        0.467   7.591   1.112  0.00  0.00    -0.570 OA
BRANCH  10  13
ATOM     13  C   LIG    1        1.329   9.471  -0.618  0.00  0.00    +0.340 C 
BRANCH  13  14
ATOM     14  C   LIG    1        1.755  10.231  -1.848  0.00  0.00    -0.110 A 
ATOM     15  C   LIG    1        0.917  11.184  -2.397  0.00  0.00    +0.050 A 
ATOM     16  C   LIG    1        1.308  11.880  -3.525  0.00  0.00    +0.010 A 
ATOM     17  C   LIG    1        2.536  11.624  -4.106  0.00  0.00    +0.040 A 
ATOM     18  C   LIG    1        3.374  10.671  -3.559  0.00  0.00    +0.030 A 
ATOM     19  C   LIG    1        2.987   9.979  -2.426  0.00  0.00    -0.020 A 
ATOM     20 CL   LIG    1        4.043   8.787  -1.733  0.00  0.00    -0.060 Cl
ENDBRANCH  13  14
ENDBRANCH  10  13
ENDBRANCH   3   7
BRANCH   6  21
ATOM     21  N   LIG    1       -1.998   2.553   3.422  0.00  0.00    -0.570 N 
ATOM     22  C   LIG    1       -1.336   2.186   4.679  0.00  0.00    +0.260 C 
ATOM     23  C   LIG    1       -2.453   1.605   5.577  0.00  0.00    +0.040 C 
ATOM     24  C   LIG    1       -3.469   1.099   4.527  0.00  0.00    +0.060 C 
ATOM     25  C   LIG    1       -3.194   1.950   3.306  0.00  0.00    +0.520 C 
ATOM     26  O   LIG    1       -3.944   2.070   2.360  0.00  0.00    -0.520 OA
ENDBRANCH   6  21
BRANCH   1  28
ATOM     27  C   LIG    1        0.416   1.121   0.291  0.00  0.00    +0.250 C 
ATOM     28  O   LIG    1       -0.405   1.573   1.370  0.00  0.00    -0.310 OA
ENDBRANCH   1  28
TORSDOF 5
