REMARK  Name = ZINCvU0000000IaX.0
REMARK                            x       y       z     vdW  Elec       q    Type
REMARK                         _______ _______ _______ _____ _____    ______ ____
ROOT
ATOM      1  C   LIG    1        3.241   7.946   1.570  0.00  0.00    -0.020 A 
ATOM      2  C   LIG    1        3.901   9.031   1.968  0.00  0.00    -0.020 A 
ATOM      3  S   LIG    1        3.813   9.229   3.708  0.00  0.00    +0.180 S 
ATOM      4  C   LIG    1        2.852   7.770   3.897  0.00  0.00    +0.120 A 
ATOM      5  N   LIG    1        2.350   7.183   4.992  0.00  0.00    -0.530 NA
ATOM      6  C   LIG    1        1.647   6.077   4.906  0.00  0.00    +0.560 A 
ATOM      7  N   LIG    1        1.398   5.491   3.749  0.00  0.00    -0.580 NA
ATOM      8  C   LIG    1        1.853   5.998   2.612  0.00  0.00    +0.490 A 
ATOM      9  C   LIG    1        2.622   7.187   2.650  0.00  0.00    -0.220 A 
ENDROOT
BRANCH   1  13
ATOM     10  C   LIG    1        2.961   6.787  -2.513  0.00  0.00    +0.140 A 
ATOM     11  C   LIG    1        2.502   8.035  -2.114  0.00  0.00    +0.000 A 
ATOM     12  C   LIG    1        2.592   8.414  -0.791  0.00  0.00    +0.080 A 
ATOM     13  C   LIG    1        3.143   7.542   0.147  0.00  0.00    -0.080 A 
ATOM     14  C   LIG    1        3.607   6.291  -0.258  0.00  0.00    +0.050 A 
ATOM     15  C   LIG    1        3.510   5.916  -1.582  0.00  0.00    -0.080 A 
BRANCH  10  17
ATOM     16  C   LIG    1        3.362   5.119  -4.158  0.00  0.00    +0.240 C 
ATOM     17  O   LIG    1        2.871   6.417  -3.817  0.00  0.00    -0.310 OA
ENDBRANCH  10  17
ENDBRANCH   1  13
BRANCH   8  18
ATOM     18  N   LIG    1        1.586   5.372   1.407  0.00  0.00    -0.700 N 
ATOM     19  H   LIG    1        1.852   5.792   0.574  0.00  0.00    +0.420 HD
BRANCH  18  20
ATOM     20  C   LIG    1        0.902   4.077   1.390  0.00  0.00    +0.300 C 
BRANCH  20  21
ATOM     21  C   LIG    1        0.731   3.610  -0.056  0.00  0.00    +0.180 C 
BRANCH  21  22
ATOM     22  C   LIG    1        0.027   2.277  -0.074  0.00  0.00    +0.170 A 
ATOM     23  N   LIG    1       -1.262   2.088  -0.132  0.00  0.00    -0.270 NA
ATOM     24  N   LIG    1       -1.512   0.826  -0.129  0.00  0.00    -0.270 NA
ATOM     25  C   LIG    1       -0.382   0.161  -0.068  0.00  0.00    +0.220 A 
ATOM     26  O   LIG    1        0.614   1.069  -0.032  0.00  0.00    -0.220 OA
BRANCH  25  27
ATOM     27  C   LIG    1       -0.230  -1.309  -0.044  0.00  0.00    -0.030 A 
ATOM     28  C   LIG    1        1.042  -1.881   0.017  0.00  0.00    +0.050 A 
ATOM     29  C   LIG    1        1.176  -3.254   0.044  0.00  0.00    +0.010 A 
ATOM     30  C   LIG    1        0.055  -4.063   0.001  0.00  0.00    +0.040 A 
ATOM     31  C   LIG    1       -1.208  -3.502  -0.064  0.00  0.00    +0.020 A 
ATOM     32  C   LIG    1       -1.357  -2.131  -0.086  0.00  0.00    +0.080 A 
ENDBRANCH  25  27
ENDBRANCH  21  22
ENDBRANCH  20  21
ENDBRANCH  18  20
ENDBRANCH   8  18
TORSDOF 7
