REMARK  Name = ZINCvU0000000EpD.0
REMARK                            x       y       z     vdW  Elec       q    Type
REMARK                         _______ _______ _______ _____ _____    ______ ____
ROOT
ATOM      1  C   LIG    1       -1.247  -2.104   0.003  0.00  0.00    -0.140 A 
ATOM      2  C   LIG    1       -1.258  -2.820   1.210  0.00  0.00    +0.070 A 
ATOM      3  C   LIG    1       -1.319  -4.234   1.138  0.00  0.00    -0.090 A 
ATOM      4  C   LIG    1       -1.338  -5.021   2.297  0.00  0.00    +0.050 A 
ATOM      5  C   LIG    1       -1.391  -6.379   2.190  0.00  0.00    +0.030 A 
ATOM      6  C   LIG    1       -1.426  -6.994   0.941  0.00  0.00    +0.050 A 
ATOM      7  C   LIG    1       -1.409  -6.258  -0.205  0.00  0.00    +0.050 A 
ATOM      8  C   LIG    1       -1.355  -4.856  -0.134  0.00  0.00    +0.140 A 
ATOM      9  N   LIG    1       -1.337  -4.114  -1.249  0.00  0.00    -0.440 NA
ATOM     10  C   LIG    1       -1.287  -2.807  -1.213  0.00  0.00    +0.190 A 
ENDROOT
BRANCH   2  11
ATOM     11  C   LIG    1       -1.211  -2.123   2.513  0.00  0.00    -0.080 A 
ATOM     12  C   LIG    1       -0.112  -2.289   3.358  0.00  0.00    +0.040 A 
ATOM     13  C   LIG    1       -0.073  -1.631   4.570  0.00  0.00    +0.010 A 
ATOM     14  C   LIG    1       -1.124  -0.817   4.953  0.00  0.00    +0.030 A 
ATOM     15  C   LIG    1       -2.219  -0.652   4.123  0.00  0.00    +0.010 A 
ATOM     16  C   LIG    1       -2.268  -1.300   2.906  0.00  0.00    +0.040 A 
ENDBRANCH   2  11
BRANCH   1  17
ATOM     17  C   LIG    1       -1.190  -0.632   0.010  0.00  0.00    +0.520 C 
ATOM     18  O   LIG    1       -2.218   0.016   0.023  0.00  0.00    -0.480 OA
BRANCH  17  20
ATOM     19  C   LIG    1       -0.018   1.448   0.010  0.00  0.00    +0.280 C 
ATOM     20  O   LIG    1        0.002  -0.004   0.002  0.00  0.00    -0.340 OA
ENDBRANCH  17  20
ENDBRANCH   1  17
BRANCH  10  21
ATOM     21  C   LIG    1       -1.269  -2.037  -2.508  0.00  0.00    +0.320 C 
BRANCH  21  22
ATOM     22  O   LIG    1        0.104  -1.842  -2.937  0.00  0.00    -0.340 OA
BRANCH  22  23
ATOM     23  C   LIG    1        0.296  -1.166  -4.086  0.00  0.00    +0.510 C 
ATOM     24  O   LIG    1       -0.658  -0.750  -4.713  0.00  0.00    -0.470 OA
BRANCH  23  25
ATOM     25  C   LIG    1        1.665  -0.930  -4.585  0.00  0.00    -0.160 A 
ATOM     26  C   LIG    1        2.774  -1.404  -3.872  0.00  0.00    +0.160 A 
ATOM     27  C   LIG    1        4.036  -1.157  -4.382  0.00  0.00    -0.020 A 
ATOM     28  C   LIG    1        4.163  -0.456  -5.568  0.00  0.00    +0.330 A 
ATOM     29  N   LIG    1        3.101  -0.020  -6.219  0.00  0.00    -0.480 NA
ATOM     30  C   LIG    1        1.878  -0.235  -5.779  0.00  0.00    +0.230 A 
ATOM     31 CL   LIG    1        0.520   0.356  -6.684  0.00  0.00    +0.010 Cl
ENDBRANCH  23  25
ENDBRANCH  22  23
ENDBRANCH  21  22
ENDBRANCH  10  21
TORSDOF 7
