REMARK  Name = ZINCrH000004lfFn.0
REMARK                            x       y       z     vdW  Elec       q    Type
REMARK                         _______ _______ _______ _____ _____    ______ ____
ROOT
ATOM      1  C   LIG    1       -1.365   1.869   0.019  0.00  0.00    -0.210 A 
ATOM      2  C   LIG    1       -2.332   0.901   0.028  0.00  0.00    +0.040 A 
ATOM      3  S   LIG    1       -1.631  -0.650   0.013  0.00  0.00    +0.300 S 
ATOM      4  C   LIG    1        0.002  -0.004   0.002  0.00  0.00    -0.240 A 
ATOM      5  C   LIG    1        1.266  -0.842  -0.014  0.00  0.00    +0.120 C 
ATOM      6  C   LIG    1        2.440   0.046  -0.436  0.00  0.00    +0.020 C 
ATOM      7  C   LIG    1        2.431   1.322   0.412  0.00  0.00    +0.020 C 
ATOM      8  C   LIG    1        1.240   2.190   0.002  0.00  0.00    +0.090 C 
ATOM      9  C   LIG    1       -0.016   1.334   0.009  0.00  0.00    -0.050 A 
ENDROOT
BRANCH   1  12
ATOM     10  N   LIG    1       -1.794   3.957   1.201  0.00  0.00    -0.720 N 
ATOM     11  H   LIG    1       -1.692   3.477   2.038  0.00  0.00    +0.400 HD
ATOM     12  C   LIG    1       -1.663   3.304   0.029  0.00  0.00    +0.580 C 
ATOM     13  O   LIG    1       -1.791   3.907  -1.020  0.00  0.00    -0.530 OA
BRANCH  10  14
ATOM     14  C   LIG    1       -2.091   5.391   1.212  0.00  0.00    +0.260 C 
BRANCH  14  15
ATOM     15  C   LIG    1       -2.188   5.882   2.658  0.00  0.00    +0.030 C 
BRANCH  15  16
ATOM     16  C   LIG    1       -2.498   7.380   2.668  0.00  0.00    +0.160 C 
BRANCH  16  18
ATOM     17  C   LIG    1       -2.877   9.232   4.142  0.00  0.00    +0.200 C 
ATOM     18  O   LIG    1       -2.589   7.838   4.019  0.00  0.00    -0.390 OA
ENDBRANCH  16  18
ENDBRANCH  15  16
ENDBRANCH  14  15
ENDBRANCH  10  14
ENDBRANCH   1  12
BRANCH   2  19
ATOM     19  N   LIG    1       -3.695   1.150   0.042  0.00  0.00    -0.630 N 
ATOM     20  H   LIG    1       -4.021   2.063   0.050  0.00  0.00    +0.420 HD
ATOM     21  C   LIG    1       -4.567   0.122   0.044  0.00  0.00    +0.560 C 
ATOM     22  O   LIG    1       -4.158  -1.022   0.034  0.00  0.00    -0.490 OA
BRANCH  21  23
ATOM     23  C   LIG    1       -6.021   0.388   0.059  0.00  0.00    -0.110 A 
ATOM     24  C   LIG    1       -6.494   1.701   0.077  0.00  0.00    +0.040 A 
ATOM     25  C   LIG    1       -7.852   1.943   0.084  0.00  0.00    +0.060 A 
ATOM     26  C   LIG    1       -8.746   0.887   0.086  0.00  0.00    +0.030 A 
ATOM     27  C   LIG    1       -8.284  -0.419   0.075  0.00  0.00    +0.100 A 
ATOM     28  F   LIG    1       -9.164  -1.445   0.077  0.00  0.00    -0.130 F 
ATOM     29  C   LIG    1       -6.927  -0.674   0.061  0.00  0.00    +0.060 A 
ENDBRANCH  21  23
ENDBRANCH   2  19
TORSDOF 7
