REMARK  Name = ZINCpe00000MH4xe.0
REMARK                            x       y       z     vdW  Elec       q    Type
REMARK                         _______ _______ _______ _____ _____    ______ ____
ROOT
ATOM      1  C   LIG    1       -4.873   1.471   0.923  0.00  0.00    +0.190 C 
ATOM      2  N   LIG    1       -4.095   0.991  -0.226  0.00  0.00    -0.530 NA
ATOM      3  C   LIG    1       -4.073  -0.479  -0.271  0.00  0.00    +0.150 C 
ATOM      4  C   LIG    1       -3.304  -0.939  -1.512  0.00  0.00    +0.230 C 
ATOM      5  O   LIG    1       -1.990  -0.374  -1.492  0.00  0.00    -0.370 OA
ATOM      6  C   LIG    1       -1.983   1.054  -1.450  0.00  0.00    +0.170 C 
ATOM      7  C   LIG    1       -0.545   1.570  -1.435  0.00  0.00    +0.040 C 
ATOM      8  C   LIG    1        0.184   1.024  -0.204  0.00  0.00    +0.280 C 
ATOM      9  N   LIG    1       -0.591   1.371   0.996  0.00  0.00    -0.580 N 
ATOM     10  C   LIG    1       -2.010   0.985   1.049  0.00  0.00    +0.260 C 
ATOM     11  C   LIG    1       -0.014   2.030   2.021  0.00  0.00    +0.570 C 
ATOM     12  O   LIG    1       -0.684   2.381   2.971  0.00  0.00    -0.540 OA
ATOM     13  C   LIG    1       -2.723   1.526  -0.195  0.00  0.00    +0.140 C 
ENDROOT
BRANCH  11  14
ATOM     14  C   LIG    1        1.435   2.324   1.988  0.00  0.00    -0.090 A 
ATOM     15  C   LIG    1        1.973   3.076   0.943  0.00  0.00    +0.030 A 
ATOM     16  C   LIG    1        3.325   3.352   0.920  0.00  0.00    +0.020 A 
ATOM     17  C   LIG    1        4.148   2.875   1.925  0.00  0.00    +0.030 A 
ATOM     18  C   LIG    1        3.621   2.125   2.962  0.00  0.00    +0.030 A 
ATOM     19  C   LIG    1        2.270   1.847   2.999  0.00  0.00    -0.070 A 
BRANCH  19  20
ATOM     20  C   LIG    1        1.698   1.030   4.128  0.00  0.00    +0.380 C 
BRANCH  20  21
ATOM     21  N   LIG    1        1.597  -0.372   3.714  0.00  0.00    -0.370 N 
ATOM     22  C   LIG    1        2.121  -1.438   4.343  0.00  0.00    +0.470 A 
ATOM     23  N   LIG    1        1.808  -2.508   3.659  0.00  0.00    -0.540 NA
ATOM     24  C   LIG    1        1.088  -2.167   2.591  0.00  0.00    +0.400 A 
ATOM     25  N   LIG    1        0.927  -0.870   2.584  0.00  0.00    -0.300 NA
ENDBRANCH  20  21
ENDBRANCH  19  20
ENDBRANCH  11  14
TORSDOF 3
