REMARK  Name = ZINCrD000000fGzU.0
REMARK                            x       y       z     vdW  Elec       q    Type
REMARK                         _______ _______ _______ _____ _____    ______ ____
ROOT
ATOM      1  C   LIG    1        0.004   1.117   0.004  0.00  0.00    +0.320 C 
ENDROOT
BRANCH   1   2
ATOM      2  C   LIG    1       -0.615   1.757   1.220  0.00  0.00    -0.150 A 
ATOM      3  C   LIG    1       -1.569   2.745   1.070  0.00  0.00    +0.130 A 
ATOM      4  C   LIG    1       -2.142   3.329   2.184  0.00  0.00    -0.030 A 
ATOM      5  C   LIG    1       -1.752   2.932   3.452  0.00  0.00    +0.140 A 
ATOM      6  C   LIG    1       -0.793   1.945   3.604  0.00  0.00    -0.050 A 
ATOM      7  F   LIG    1       -2.309   3.506   4.541  0.00  0.00    -0.130 F 
ATOM      8  C   LIG    1       -0.224   1.357   2.487  0.00  0.00    +0.140 A 
ATOM      9  F   LIG    1        0.712   0.394   2.634  0.00  0.00    -0.130 F 
ENDBRANCH   1   2
BRANCH   1  12
ATOM     10  C   LIG    1        2.960   3.435  -0.727  0.00  0.00    +0.090 C 
ATOM     11  C   LIG    1        1.570   2.933  -0.432  0.00  0.00    +0.510 C 
ATOM     12  N   LIG    1        1.367   1.625  -0.174  0.00  0.00    -0.710 N 
ATOM     13  H   LIG    1        2.122   1.021  -0.107  0.00  0.00    +0.410 HD
ATOM     14  O   LIG    1        0.634   3.704  -0.427  0.00  0.00    -0.540 OA
ENDBRANCH   1  12
BRANCH   1  15
ATOM     15  C   LIG    1       -0.832   1.455  -1.232  0.00  0.00    +0.080 C 
BRANCH  15  16
ATOM     16  C   LIG    1       -0.284   0.717  -2.426  0.00  0.00    +0.530 C 
ATOM     17  N   LIG    1       -0.866   0.863  -3.633  0.00  0.00    -0.570 N 
ATOM     18  C   LIG    1       -0.349   0.153  -4.812  0.00  0.00    +0.290 C 
ATOM     19  C   LIG    1       -1.166  -1.099  -5.073  0.00  0.00    -0.000 C 
ATOM     20  C   LIG    1       -2.616  -0.788  -5.416  0.00  0.00    +0.230 C 
ATOM     21  O   LIG    1       -3.302  -0.225  -4.299  0.00  0.00    -0.320 OA
ATOM     22  C   LIG    1       -3.206   1.130  -4.147  0.00  0.00    +0.100 A 
ATOM     23  C   LIG    1       -4.315   1.936  -4.332  0.00  0.00    +0.020 A 
ATOM     24  C   LIG    1       -4.203   3.305  -4.162  0.00  0.00    +0.030 A 
ATOM     25  C   LIG    1       -2.991   3.867  -3.809  0.00  0.00    +0.020 A 
ATOM     26  C   LIG    1       -1.877   3.066  -3.628  0.00  0.00    +0.030 A 
ATOM     27  C   LIG    1       -1.986   1.692  -3.800  0.00  0.00    +0.090 A 
ATOM     28  O   LIG    1        0.680  -0.008  -2.301  0.00  0.00    -0.530 OA
ENDBRANCH  15  16
ENDBRANCH   1  15
TORSDOF 4
