REMARK  Name = ZINCqH00000092ew.0
REMARK                            x       y       z     vdW  Elec       q    Type
REMARK                         _______ _______ _______ _____ _____    ______ ____
ROOT
ATOM      1  N   LIG    1       -1.146  -0.690  -0.144  0.00  0.00    -0.720 N 
ATOM      2  H   LIG    1       -1.994  -0.218  -0.117  0.00  0.00    +0.410 HD
ATOM      3  C   LIG    1        0.010   0.002  -0.135  0.00  0.00    +0.610 C 
ATOM      4  O   LIG    1        1.074  -0.590  -0.169  0.00  0.00    -0.510 OA
ENDROOT
BRANCH   3   5
ATOM      5  C   LIG    1       -0.012   1.462  -0.085  0.00  0.00    -0.110 A 
ATOM      6  C   LIG    1        1.090   2.290  -0.071  0.00  0.00    +0.100 A 
ATOM      7  C   LIG    1        0.606   3.602  -0.021  0.00  0.00    -0.060 A 
ATOM      8  C   LIG    1       -0.753   3.529  -0.006  0.00  0.00    +0.220 A 
ATOM      9  O   LIG    1       -1.117   2.240  -0.050  0.00  0.00    -0.180 OA
BRANCH   8  10
ATOM     10  O   LIG    1       -1.598   4.585   0.040  0.00  0.00    -0.200 OA
BRANCH  10  11
ATOM     11  C   LIG    1       -2.931   4.340  -0.053  0.00  0.00    +0.060 A 
ATOM     12  C   LIG    1       -3.603   4.594  -1.240  0.00  0.00    +0.030 A 
ATOM     13  C   LIG    1       -4.957   4.340  -1.334  0.00  0.00    +0.030 A 
ATOM     14  C   LIG    1       -5.646   3.842  -0.243  0.00  0.00    +0.020 A 
ATOM     15  C   LIG    1       -4.980   3.594   0.943  0.00  0.00    +0.020 A 
ATOM     16  C   LIG    1       -3.624   3.841   1.040  0.00  0.00    +0.010 A 
ENDBRANCH  10  11
ENDBRANCH   8  10
ENDBRANCH   3   5
BRANCH   1  18
ATOM     17  C   LIG    1       -1.009  -2.612  -1.649  0.00  0.00    +0.050 C 
ATOM     18  C   LIG    1       -1.124  -2.154  -0.194  0.00  0.00    +0.230 C 
BRANCH  18  19
ATOM     19  C   LIG    1       -2.415  -2.705   0.414  0.00  0.00    +0.300 C 
BRANCH  19  20
ATOM     20  N   LIG    1       -2.585  -2.169   1.767  0.00  0.00    -0.710 N 
ATOM     21  H   LIG    1       -1.924  -1.563   2.135  0.00  0.00    +0.410 HD
ATOM     22  C   LIG    1       -3.660  -2.520   2.500  0.00  0.00    +0.650 C 
ATOM     23  O   LIG    1       -4.489  -3.280   2.039  0.00  0.00    -0.560 OA
BRANCH  22  24
ATOM     24  O   LIG    1       -3.817  -2.028   3.743  0.00  0.00    -0.360 OA
BRANCH  24  25
ATOM     25  C   LIG    1       -4.998  -2.448   4.475  0.00  0.00    +0.140 C 
ATOM     26  C   LIG    1       -6.252  -2.027   3.705  0.00  0.00    +0.040 C 
ATOM     27  C   LIG    1       -5.003  -1.791   5.857  0.00  0.00    +0.080 C 
ATOM     28  C   LIG    1       -4.985  -3.970   4.634  0.00  0.00    +0.040 C 
ENDBRANCH  24  25
ENDBRANCH  22  24
ENDBRANCH  19  20
ENDBRANCH  18  19
ENDBRANCH   1  18
TORSDOF 8
