REMARK  Name = ZINCqH0000034G6Q.0
REMARK                            x       y       z     vdW  Elec       q    Type
REMARK                         _______ _______ _______ _____ _____    ______ ____
ROOT
ATOM      1  C   LIG    1       -0.897   8.099  -3.508  0.00  0.00    +0.300 C 
ATOM      2  N   LIG    1       -2.219   8.314  -4.101  0.00  0.00    -0.600 N 
ATOM      3  C   LIG    1       -3.111   7.305  -4.144  0.00  0.00    +0.560 C 
ATOM      4  O   LIG    1       -4.173   7.456  -4.716  0.00  0.00    -0.530 OA
ENDROOT
BRANCH   3   5
ATOM      5  C   LIG    1       -2.799   6.014  -3.494  0.00  0.00    -0.120 A 
ATOM      6  C   LIG    1       -1.508   5.489  -3.565  0.00  0.00    +0.050 A 
ATOM      7  C   LIG    1       -1.223   4.284  -2.956  0.00  0.00    +0.030 A 
ATOM      8  C   LIG    1       -2.213   3.597  -2.277  0.00  0.00    -0.050 A 
ATOM      9  C   LIG    1       -3.497   4.110  -2.208  0.00  0.00    +0.060 A 
ATOM     10  C   LIG    1       -3.794   5.316  -2.808  0.00  0.00    +0.060 A 
BRANCH   8  11
ATOM     11  C   LIG    1       -1.895   2.281  -1.615  0.00  0.00    +0.160 C 
ATOM     12  S   LIG    1       -2.208   2.366   0.185  0.00  0.00    -0.230 S 
ATOM     13  C   LIG    1       -2.872   0.713   0.534  0.00  0.00    +0.130 C 
ATOM     14  C   LIG    1       -2.869  -0.150  -0.733  0.00  0.00    +0.140 C 
ATOM     15  S   LIG    1       -3.067   0.976  -2.159  0.00  0.00    -0.230 S 
ENDBRANCH   8  11
ENDBRANCH   3   5
BRANCH   2  16
ATOM     16  C   LIG    1       -2.572   9.627  -4.648  0.00  0.00    +0.430 C 
BRANCH  16  17
ATOM     17  C   LIG    1       -3.197  10.470  -3.567  0.00  0.00    +0.150 A 
ATOM     18  N   LIG    1       -2.570  11.270  -2.745  0.00  0.00    -0.280 NA
ATOM     19  N   LIG    1       -3.417  11.836  -1.959  0.00  0.00    -0.290 NA
ATOM     20  C   LIG    1       -4.620  11.426  -2.246  0.00  0.00    +0.180 A 
ATOM     21  C   LIG    1       -5.908  11.848  -1.587  0.00  0.00    +0.150 C 
ATOM     22  C   LIG    1       -6.741  10.601  -1.273  0.00  0.00    +0.020 C 
ATOM     23  C   LIG    1       -7.615  10.255  -2.474  0.00  0.00    +0.010 C 
ATOM     24  C   LIG    1       -6.901  10.612  -3.777  0.00  0.00    +0.030 C 
ATOM     25  C   LIG    1       -5.607   9.802  -3.895  0.00  0.00    +0.300 C 
ATOM     26  N   LIG    1       -4.513  10.545  -3.268  0.00  0.00    -0.450 N 
ENDBRANCH  16  17
ENDBRANCH   2  16
TORSDOF 4
