REMARK  Name = ZINCwl0000000C3C.1
REMARK                            x       y       z     vdW  Elec       q    Type
REMARK                         _______ _______ _______ _____ _____    ______ ____
ROOT
ATOM      1  N   LIG    1        3.357   1.905   0.328  0.00  0.00    -0.500 N 
ATOM      2  C   LIG    1        4.402   1.061   0.195  0.00  0.00    +0.520 C 
ATOM      3  O   LIG    1        4.207  -0.117  -0.017  0.00  0.00    -0.510 OA
ENDROOT
BRANCH   1   9
ATOM      4  N   LIG    1       -0.110   1.214  -0.672  0.00  0.00    -0.540 N 
ATOM      5  C   LIG    1       -0.507   0.416   0.335  0.00  0.00    +0.710 A 
ATOM      6  N   LIG    1        0.328   0.093   1.339  0.00  0.00    -0.660 N 
ATOM      7  H   LIG    1        0.017  -0.481   2.056  0.00  0.00    +0.440 HD
ATOM      8  C   LIG    1        1.591   0.563   1.363  0.00  0.00    +0.570 A 
ATOM      9  C   LIG    1        2.039   1.401   0.325  0.00  0.00    -0.170 A 
ATOM     10  O   LIG    1        2.339   0.265   2.278  0.00  0.00    -0.510 OA
ATOM     11  O   LIG    1       -1.641  -0.023   0.338  0.00  0.00    -0.520 OA
ATOM     12  C   LIG    1        1.169   1.721  -0.697  0.00  0.00    +0.500 A 
BRANCH  12  13
ATOM     13  N   LIG    1        1.574   2.537  -1.726  0.00  0.00    -0.830 N 
ATOM     14  H   LIG    1        2.453   2.946  -1.703  0.00  0.00    +0.420 HD
ATOM     15  H   LIG    1        0.980   2.703  -2.475  0.00  0.00    +0.410 HD
ENDBRANCH  12  13
BRANCH   4  16
ATOM     16  C   LIG    1       -1.045   1.546  -1.750  0.00  0.00    +0.310 C 
BRANCH  16  18
ATOM     17  C   LIG    1       -2.792   3.163  -2.510  0.00  0.00    +0.040 C 
ATOM     18  C   LIG    1       -1.815   2.817  -1.385  0.00  0.00    +0.010 C 
ENDBRANCH  16  18
ENDBRANCH   4  16
ENDBRANCH   1   9
BRANCH   2  19
ATOM     19  C   LIG    1        5.811   1.583   0.310  0.00  0.00    +0.290 C 
BRANCH  19  20
ATOM     20  N   LIG    1        6.760   0.476   0.129  0.00  0.00    -0.370 N 
ATOM     21  C   LIG    1        6.649  -0.045  -1.240  0.00  0.00    +0.330 C 
ATOM     22  H   LIG    1        6.548  -0.259   0.787  0.00  0.00    +0.430 HD
BRANCH  20  23
ATOM     23  C   LIG    1        8.127   0.960   0.360  0.00  0.00    +0.230 C 
ATOM     24  C   LIG    1        8.404   2.146  -0.562  0.00  0.00    +0.050 C 
ATOM     25  C   LIG    1        9.745   2.770  -0.158  0.00  0.00    +0.060 C 
ATOM     26  C   LIG    1        9.570   3.453   1.197  0.00  0.00    +0.090 C 
ATOM     27  C   LIG    1        8.940   2.509   2.188  0.00  0.00    -0.040 A 
ATOM     28  C   LIG    1        9.044   2.822   3.537  0.00  0.00    +0.020 A 
ATOM     29  C   LIG    1        8.485   2.000   4.493  0.00  0.00    +0.040 A 
ATOM     30  C   LIG    1        7.814   0.855   4.106  0.00  0.00    +0.030 A 
ATOM     31  C   LIG    1        7.710   0.541   2.767  0.00  0.00    +0.000 A 
ATOM     32  C   LIG    1        8.274   1.366   1.803  0.00  0.00    -0.140 A 
ENDBRANCH  20  23
ENDBRANCH  19  20
ENDBRANCH   2  19
BRANCH   1  33
ATOM     33  C   LIG    1        3.592   3.343   0.476  0.00  0.00    +0.290 C 
BRANCH  33  34
ATOM     34  C   LIG    1        3.570   3.714   1.960  0.00  0.00    +0.170 C 
BRANCH  34  35
ATOM     35  O   LIG    1        4.666   3.082   2.624  0.00  0.00    -0.400 OA
ATOM     36  C   LIG    1        4.739   3.365   4.023  0.00  0.00    +0.230 C 
ENDBRANCH  34  35
ENDBRANCH  33  34
ENDBRANCH   1  33
TORSDOF 10
