REMARK  Name = ZINCwl0000000C3C.0
REMARK                            x       y       z     vdW  Elec       q    Type
REMARK                         _______ _______ _______ _____ _____    ______ ____
ROOT
ATOM      1  N   LIG    1       -0.174   1.234  -0.192  0.00  0.00    -0.480 N 
ATOM      2  C   LIG    1       -0.038  -0.094  -0.389  0.00  0.00    +0.490 C 
ATOM      3  O   LIG    1        1.050  -0.559  -0.659  0.00  0.00    -0.510 OA
ENDROOT
BRANCH   1   9
ATOM      4  N   LIG    1        3.034   2.771   0.731  0.00  0.00    -0.540 N 
ATOM      5  C   LIG    1        3.157   3.695  -0.240  0.00  0.00    +0.710 A 
ATOM      6  N   LIG    1        2.219   3.832  -1.194  0.00  0.00    -0.660 N 
ATOM      7  H   LIG    1        2.331   4.506  -1.883  0.00  0.00    +0.440 HD
ATOM      8  C   LIG    1        1.128   3.042  -1.207  0.00  0.00    +0.570 A 
ATOM      9  C   LIG    1        0.963   2.069  -0.203  0.00  0.00    -0.170 A 
ATOM     10  O   LIG    1        0.286   3.171  -2.079  0.00  0.00    -0.530 OA
ATOM     11  O   LIG    1        4.134   4.418  -0.255  0.00  0.00    -0.520 OA
ATOM     12  C   LIG    1        1.936   1.943   0.768  0.00  0.00    +0.530 A 
BRANCH  12  13
ATOM     13  N   LIG    1        1.810   1.000   1.760  0.00  0.00    -0.820 N 
ATOM     14  H   LIG    1        2.492   0.924   2.446  0.00  0.00    +0.410 HD
ATOM     15  H   LIG    1        1.040   0.411   1.774  0.00  0.00    +0.410 HD
ENDBRANCH  12  13
BRANCH   4  16
ATOM     16  C   LIG    1        4.074   2.648   1.754  0.00  0.00    +0.310 C 
BRANCH  16  18
ATOM     17  C   LIG    1        6.219   1.517   2.357  0.00  0.00    +0.050 C 
ATOM     18  C   LIG    1        5.133   1.646   1.288  0.00  0.00    +0.010 C 
ENDBRANCH  16  18
ENDBRANCH   4  16
ENDBRANCH   1   9
BRANCH   2  19
ATOM     19  C   LIG    1       -1.237  -0.999  -0.274  0.00  0.00    +0.280 C 
BRANCH  19  20
ATOM     20  N   LIG    1       -0.829  -2.387  -0.531  0.00  0.00    -0.370 N 
ATOM     21  C   LIG    1       -0.425  -2.526  -1.937  0.00  0.00    +0.330 C 
ATOM     22  H   LIG    1       -0.052  -2.626   0.067  0.00  0.00    +0.430 HD
BRANCH  20  23
ATOM     23  C   LIG    1       -1.956  -3.288  -0.254  0.00  0.00    +0.220 C 
ATOM     24  C   LIG    1       -3.079  -3.011  -1.252  0.00  0.00    +0.040 C 
ATOM     25  C   LIG    1       -4.149  -4.097  -1.088  0.00  0.00    +0.060 C 
ATOM     26  C   LIG    1       -3.579  -5.416  -1.606  0.00  0.00    +0.080 C 
ATOM     27  C   LIG    1       -2.236  -5.694  -0.983  0.00  0.00    -0.040 A 
ATOM     28  C   LIG    1       -1.750  -6.993  -1.046  0.00  0.00    +0.030 A 
ATOM     29  C   LIG    1       -0.524  -7.311  -0.497  0.00  0.00    +0.050 A 
ATOM     30  C   LIG    1        0.227  -6.329   0.119  0.00  0.00    +0.030 A 
ATOM     31  C   LIG    1       -0.255  -5.037   0.184  0.00  0.00    +0.000 A 
ATOM     32  C   LIG    1       -1.489  -4.716  -0.366  0.00  0.00    -0.140 A 
ENDBRANCH  20  23
ENDBRANCH  19  20
ENDBRANCH   2  19
BRANCH   1  33
ATOM     33  C   LIG    1       -1.503   1.810   0.028  0.00  0.00    +0.320 C 
BRANCH  33  34
ATOM     34  C   LIG    1       -1.813   1.820   1.526  0.00  0.00    +0.160 C 
BRANCH  34  35
ATOM     35  O   LIG    1       -0.906   2.699   2.194  0.00  0.00    -0.380 OA
ATOM     36  C   LIG    1       -1.110   2.783   3.606  0.00  0.00    +0.210 C 
ENDBRANCH  34  35
ENDBRANCH  33  34
ENDBRANCH   1  33
TORSDOF 10
