REMARK  Name = ZINCqH0000004NeB.0
REMARK                            x       y       z     vdW  Elec       q    Type
REMARK                         _______ _______ _______ _____ _____    ______ ____
ROOT
ATOM      1  C   LIG    1       -0.472   0.015  -0.252  0.00  0.00    +0.130 A 
ATOM      2  N   LIG    1        0.217  -0.649  -1.152  0.00  0.00    -0.430 NA
ATOM      3  C   LIG    1        0.189  -1.986  -1.156  0.00  0.00    +0.090 A 
ATOM      4  C   LIG    1        0.923  -2.721  -2.106  0.00  0.00    +0.070 A 
ATOM      5  C   LIG    1        0.877  -4.077  -2.100  0.00  0.00    +0.050 A 
ATOM      6  C   LIG    1        0.103  -4.769  -1.151  0.00  0.00    -0.120 A 
ATOM      7  C   LIG    1       -0.630  -4.075  -0.203  0.00  0.00    +0.140 A 
ATOM      8  C   LIG    1       -0.596  -2.671  -0.194  0.00  0.00    +0.070 A 
ATOM      9  N   LIG    1       -1.294  -1.972   0.709  0.00  0.00    -0.420 NA
ATOM     10  C   LIG    1       -1.245  -0.661   0.696  0.00  0.00    +0.120 A 
ENDROOT
BRANCH   6  11
ATOM     11  C   LIG    1        0.072  -6.246  -1.165  0.00  0.00    +0.570 C 
ATOM     12  N   LIG    1       -0.032  -6.907  -2.336  0.00  0.00    -0.550 N 
ATOM     13  C   LIG    1       -0.057  -6.184  -3.619  0.00  0.00    +0.270 C 
ATOM     14  C   LIG    1       -1.129  -6.842  -4.501  0.00  0.00    +0.250 C 
ATOM     15  O   LIG    1       -0.804  -8.225  -4.665  0.00  0.00    -0.310 OA
ATOM     16  C   LIG    1       -0.512  -8.944  -3.550  0.00  0.00    +0.090 A 
ATOM     17  C   LIG    1       -0.602 -10.327  -3.582  0.00  0.00    +0.010 A 
ATOM     18  C   LIG    1       -0.286 -11.068  -2.454  0.00  0.00    +0.030 A 
ATOM     19  C   LIG    1        0.104 -10.433  -1.289  0.00  0.00    +0.000 A 
ATOM     20  C   LIG    1        0.190  -9.054  -1.247  0.00  0.00    +0.050 A 
ATOM     21  C   LIG    1       -0.115  -8.308  -2.374  0.00  0.00    +0.070 A 
ATOM     22  O   LIG    1        0.141  -6.866  -0.122  0.00  0.00    -0.500 OA
ENDBRANCH   6  11
BRANCH   1  24
ATOM     23  C   LIG    1        0.707   1.999   0.653  0.00  0.00    +0.040 C 
ATOM     24  C   LIG    1       -0.434   1.521  -0.246  0.00  0.00    +0.100 C 
ENDBRANCH   1  24
BRANCH  10  25
ATOM     25  C   LIG    1       -2.032   0.125   1.713  0.00  0.00    +0.100 C 
ATOM     26  C   LIG    1       -3.427   0.423   1.160  0.00  0.00    +0.040 C 
ENDBRANCH  10  25
TORSDOF 3
