REMARK  Name = ZINCnE000001KDJP.1
REMARK                            x       y       z     vdW  Elec       q    Type
REMARK                         _______ _______ _______ _____ _____    ______ ____
ROOT
ATOM      1  C   LIG    1       -2.838   3.325   1.458  0.00  0.00    +0.230 C 
ENDROOT
BRANCH   1   7
ATOM      2  C   LIG    1       -2.533   4.559   3.619  0.00  0.00    +0.130 A 
ATOM      3  C   LIG    1       -2.871   4.801   4.939  0.00  0.00    -0.040 A 
ATOM      4  C   LIG    1       -3.894   4.064   5.540  0.00  0.00    -0.090 A 
ATOM      5  C   LIG    1       -4.569   3.088   4.803  0.00  0.00    +0.010 A 
ATOM      6  C   LIG    1       -4.227   2.859   3.486  0.00  0.00    +0.020 A 
ATOM      7  C   LIG    1       -3.210   3.586   2.895  0.00  0.00    -0.140 A 
BRANCH   4   8
ATOM      8  C   LIG    1       -4.261   4.316   6.947  0.00  0.00    +0.520 C 
ATOM      9  O   LIG    1       -5.158   3.670   7.470  0.00  0.00    -0.680 OA
ATOM     10  O   LIG    1       -3.669   5.172   7.589  0.00  0.00    -0.690 OA
ENDBRANCH   4   8
BRANCH   2  12
ATOM     11  C   LIG    1       -0.884   6.258   3.834  0.00  0.00    +0.220 C 
ATOM     12  O   LIG    1       -1.537   5.273   3.031  0.00  0.00    -0.310 OA
ENDBRANCH   2  12
ENDBRANCH   1   7
BRANCH   1  13
ATOM     13  N   LIG    1       -1.639   2.478   1.409  0.00  0.00    -0.680 NA
ATOM     14  H   LIG    1       -1.781   1.620   1.921  0.00  0.00    +0.340 HD
BRANCH  13  15
ATOM     15  C   LIG    1       -1.247   2.202   0.020  0.00  0.00    +0.270 C 
BRANCH  15  16
ATOM     16  C   LIG    1       -0.016   1.332   0.009  0.00  0.00    -0.220 A 
ATOM     17  C   LIG    1        0.002  -0.004   0.002  0.00  0.00    +0.210 A 
ATOM     18  N   LIG    1        1.208  -0.534  -0.012  0.00  0.00    -0.470 NA
ATOM     19  C   LIG    1        2.209   0.281  -0.018  0.00  0.00    +0.050 A 
ATOM     20  S   LIG    1        1.653   1.897  -0.004  0.00  0.00    +0.150 S 
BRANCH  19  21
ATOM     21  C   LIG    1        3.658  -0.133  -0.034  0.00  0.00    +0.010 C 
ATOM     22  C   LIG    1        3.962  -0.974   1.208  0.00  0.00    +0.060 C 
ATOM     23  C   LIG    1        4.544   1.114  -0.035  0.00  0.00    +0.040 C 
ATOM     24  C   LIG    1        3.939  -0.959  -1.290  0.00  0.00    +0.050 C 
ENDBRANCH  19  21
ENDBRANCH  15  16
ENDBRANCH  13  15
ENDBRANCH   1  13
TORSDOF 7
