REMARK  Name = ZINCpe00000MJMci.0
REMARK                            x       y       z     vdW  Elec       q    Type
REMARK                         _______ _______ _______ _____ _____    ______ ____
ROOT
ATOM      1  O   LIG    1       -1.425   3.452  -3.853  0.00  0.00    -0.530 OA
ATOM      2  C   LIG    1       -0.219   3.396  -3.960  0.00  0.00    +0.500 C 
ATOM      3  N   LIG    1        0.362   3.596  -5.160  0.00  0.00    -0.720 N 
ATOM      4  H   LIG    1        1.327   3.552  -5.245  0.00  0.00    +0.400 HD
ENDROOT
BRANCH   3   5
ATOM      5  C   LIG    1       -0.465   3.882  -6.335  0.00  0.00    +0.330 C 
BRANCH   5   6
ATOM      6  C   LIG    1        0.421   4.064  -7.540  0.00  0.00    -0.110 A 
ATOM      7  C   LIG    1        0.731   5.336  -7.989  0.00  0.00    +0.050 A 
ATOM      8  C   LIG    1        1.547   5.505  -9.092  0.00  0.00    +0.030 A 
ATOM      9  C   LIG    1        2.051   4.403  -9.760  0.00  0.00    +0.030 A 
ATOM     10  C   LIG    1        1.739   3.129  -9.316  0.00  0.00    +0.060 A 
ATOM     11  O   LIG    1        2.230   2.034  -9.966  0.00  0.00    -0.320 OA
ATOM     12  C   LIG    1        3.191   1.259  -9.246  0.00  0.00    +0.230 C 
ATOM     13  C   LIG    1        2.501   0.265  -8.325  0.00  0.00    -0.010 C 
ATOM     14  C   LIG    1        1.704   0.950  -7.226  0.00  0.00    +0.210 C 
ATOM     15  O   LIG    1        0.620   1.700  -7.779  0.00  0.00    -0.310 OA
ATOM     16  C   LIG    1        0.923   2.960  -8.207  0.00  0.00    +0.080 A 
ENDBRANCH   5   6
ENDBRANCH   3   5
BRANCH   2  17
ATOM     17  C   LIG    1        0.632   3.102  -2.751  0.00  0.00    +0.310 C 
BRANCH  17  18
ATOM     18  N   LIG    1       -0.229   2.925  -1.579  0.00  0.00    -0.580 N 
ATOM     19  C   LIG    1       -0.739   1.586  -1.242  0.00  0.00    +0.290 C 
ATOM     20  C   LIG    1       -0.013   1.086   0.008  0.00  0.00    -0.000 C 
ATOM     21  C   LIG    1       -0.710   1.569   1.267  0.00  0.00    +0.020 C 
ATOM     22  C   LIG    1       -0.633   3.071   1.472  0.00  0.00    +0.050 C 
ATOM     23  C   LIG    1       -1.431   3.805   0.392  0.00  0.00    +0.190 C 
ATOM     24  C   LIG    1       -0.547   3.978  -0.825  0.00  0.00    +0.490 C 
ATOM     25  O   LIG    1       -0.125   5.078  -1.115  0.00  0.00    -0.540 OA
BRANCH  23  26
ATOM     26  O   LIG    1       -2.584   3.038   0.042  0.00  0.00    -0.540 OA
ATOM     27  H   LIG    1       -3.129   3.439  -0.649  0.00  0.00    +0.390 HD
ENDBRANCH  23  26
ENDBRANCH  17  18
ENDBRANCH   2  17
TORSDOF 5
