REMARK  Name = ZINCvU00000008zA.0
REMARK                            x       y       z     vdW  Elec       q    Type
REMARK                         _______ _______ _______ _____ _____    ______ ____
ROOT
ATOM      1  O   LIG    1        1.240   2.933  -0.033  0.00  0.00    -0.560 OA
ATOM      2  C   LIG    1        1.104   1.726  -0.101  0.00  0.00    +0.710 C 
ATOM      3  N   LIG    1       -0.131   1.186  -0.097  0.00  0.00    -0.730 N 
ATOM      4  H   LIG    1       -0.239   0.224  -0.152  0.00  0.00    +0.400 HD
ATOM      5  N   LIG    1        2.188   0.929  -0.180  0.00  0.00    -0.680 N 
ATOM      6  H   LIG    1        2.083  -0.035  -0.170  0.00  0.00    +0.410 HD
ENDROOT
BRANCH   5   7
ATOM      7  C   LIG    1        3.465   1.493  -0.275  0.00  0.00    +0.170 A 
ATOM      8  C   LIG    1        3.751   2.679   0.388  0.00  0.00    +0.050 A 
ATOM      9  C   LIG    1        5.010   3.236   0.296  0.00  0.00    +0.050 A 
ATOM     10  C   LIG    1        5.995   2.608  -0.464  0.00  0.00    -0.040 A 
ATOM     11  C   LIG    1        5.706   1.418  -1.129  0.00  0.00    +0.060 A 
ATOM     12  C   LIG    1        4.448   0.861  -1.030  0.00  0.00    -0.060 A 
ATOM     13 CL   LIG    1        4.089  -0.625  -1.852  0.00  0.00    -0.060 Cl
BRANCH  10  14
ATOM     14  C   LIG    1        7.349   3.206  -0.565  0.00  0.00    -0.050 A 
ATOM     15  C   LIG    1        7.637   4.400   0.095  0.00  0.00    +0.020 A 
ATOM     16  C   LIG    1        8.900   4.949   0.002  0.00  0.00    +0.010 A 
ATOM     17  C   LIG    1        9.875   4.323  -0.753  0.00  0.00    +0.000 A 
ATOM     18  C   LIG    1        9.593   3.141  -1.414  0.00  0.00    +0.010 A 
ATOM     19  C   LIG    1        8.335   2.580  -1.324  0.00  0.00    +0.020 A 
ENDBRANCH  10  14
ENDBRANCH   5   7
BRANCH   3  20
ATOM     20  C   LIG    1       -1.309   2.053  -0.018  0.00  0.00    +0.290 C 
ATOM     21  C   LIG    1       -1.759   2.242   1.450  0.00  0.00    +0.070 C 
ATOM     22  C   LIG    1       -3.270   2.266   1.374  0.00  0.00    +0.520 C 
ATOM     23  N   LIG    1       -3.682   1.775   0.193  0.00  0.00    -0.560 N 
ATOM     24  O   LIG    1       -4.003   2.670   2.252  0.00  0.00    -0.490 OA
ATOM     25  C   LIG    1       -2.545   1.365  -0.640  0.00  0.00    +0.280 C 
BRANCH  23  26
ATOM     26  C   LIG    1       -5.023   1.667  -0.194  0.00  0.00    +0.200 A 
ATOM     27  C   LIG    1       -6.024   2.184   0.619  0.00  0.00    +0.020 A 
ATOM     28  C   LIG    1       -7.346   2.082   0.234  0.00  0.00    +0.100 A 
ATOM     29  C   LIG    1       -7.676   1.456  -0.955  0.00  0.00    -0.100 A 
ATOM     30  C   LIG    1       -6.680   0.935  -1.766  0.00  0.00    +0.140 A 
ATOM     31  F   LIG    1       -7.004   0.324  -2.927  0.00  0.00    -0.120 F 
ATOM     32 CL   LIG    1       -9.340   1.325  -1.433  0.00  0.00    -0.050 Cl
ATOM     33  C   LIG    1       -5.354   1.040  -1.387  0.00  0.00    -0.040 A 
ENDBRANCH  23  26
ENDBRANCH   3  20
TORSDOF 4
