REMARK  Name = ZINCvU0000000Hfv.0
REMARK                            x       y       z     vdW  Elec       q    Type
REMARK                         _______ _______ _______ _____ _____    ______ ____
ROOT
ATOM      1  O   LIG    1        4.580   5.604  -6.057  0.00  0.00    -0.580 OA
ATOM      2  C   LIG    1        3.891   4.685  -6.456  0.00  0.00    +0.700 C 
ATOM      3  N   LIG    1        3.818   3.542  -5.746  0.00  0.00    -0.730 N 
ATOM      4  H   LIG    1        3.268   2.808  -6.064  0.00  0.00    +0.400 HD
ATOM      5  N   LIG    1        3.200   4.810  -7.606  0.00  0.00    -0.740 N 
ATOM      6  H   LIG    1        2.651   4.077  -7.924  0.00  0.00    +0.400 HD
ENDROOT
BRANCH   5   7
ATOM      7  C   LIG    1        3.280   6.053  -8.377  0.00  0.00    +0.310 C 
ATOM      8  C   LIG    1        3.016   5.737  -9.839  0.00  0.00    +0.060 C 
ATOM      9  C   LIG    1        3.131   7.030 -10.658  0.00  0.00    +0.120 C 
ATOM     10  S   LIG    1        1.664   8.035 -10.288  0.00  0.00    -0.110 S 
ATOM     11  C   LIG    1        1.574   7.949  -8.527  0.00  0.00    -0.070 A 
ATOM     12  C   LIG    1        0.715   8.838  -7.878  0.00  0.00    +0.050 A 
ATOM     13  C   LIG    1        0.584   8.815  -6.511  0.00  0.00    +0.050 A 
ATOM     14  C   LIG    1        1.318   7.904  -5.772  0.00  0.00    -0.040 A 
ATOM     15  C   LIG    1        2.172   7.028  -6.409  0.00  0.00    +0.060 A 
ATOM     16 CL   LIG    1        1.162   7.862  -4.044  0.00  0.00    -0.050 Cl
ATOM     17  C   LIG    1        2.313   7.042  -7.795  0.00  0.00    -0.090 A 
ENDBRANCH   5   7
BRANCH   3  18
ATOM     18  C   LIG    1        4.569   3.406  -4.496  0.00  0.00    +0.340 C 
ATOM     19  C   LIG    1        4.817   1.921  -4.201  0.00  0.00    +0.020 C 
ATOM     20  C   LIG    1        5.368   1.768  -2.781  0.00  0.00    +0.040 C 
ATOM     21  C   LIG    1        4.262   2.083  -1.766  0.00  0.00    +0.110 C 
ATOM     22  C   LIG    1        3.636   3.402  -2.141  0.00  0.00    +0.100 A 
ATOM     23  N   LIG    1        2.857   4.194  -1.385  0.00  0.00    -0.360 N 
ATOM     24  N   LIG    1        2.506   5.313  -2.155  0.00  0.00    -0.290 NA
ATOM     25  C   LIG    1        3.056   5.186  -3.338  0.00  0.00    +0.250 A 
ATOM     26  C   LIG    1        3.770   3.990  -3.357  0.00  0.00    -0.260 A 
BRANCH  23  27
ATOM     27  C   LIG    1        2.451   3.937  -0.001  0.00  0.00    +0.370 C 
BRANCH  27  28
ATOM     28  C   LIG    1        1.156   3.165   0.008  0.00  0.00    -0.120 A 
ATOM     29  C   LIG    1        1.175   1.783   0.000  0.00  0.00    +0.020 A 
ATOM     30  C   LIG    1       -0.013   1.076   0.008  0.00  0.00    +0.000 A 
ATOM     31  C   LIG    1       -1.219   1.751   0.017  0.00  0.00    +0.010 A 
ATOM     32  C   LIG    1       -1.238   3.133   0.030  0.00  0.00    +0.000 A 
ATOM     33  C   LIG    1       -0.050   3.840   0.022  0.00  0.00    +0.030 A 
ENDBRANCH  27  28
ENDBRANCH  23  27
ENDBRANCH   3  18
TORSDOF 4
