REMARK  Name = ZINCrH000004l25U.0
REMARK                            x       y       z     vdW  Elec       q    Type
REMARK                         _______ _______ _______ _____ _____    ______ ____
ROOT
ATOM      1  N   LIG    1       -2.488  -0.338   0.011  0.00  0.00    -0.670 N 
ATOM      2  H   LIG    1       -1.641  -0.807   0.054  0.00  0.00    +0.410 HD
ATOM      3  C   LIG    1       -2.510   1.000  -0.151  0.00  0.00    +0.550 C 
ATOM      4  O   LIG    1       -3.570   1.577  -0.301  0.00  0.00    -0.490 OA
ENDROOT
BRANCH   1   9
ATOM      5  C   LIG    1       -5.981  -1.180   0.835  0.00  0.00    -0.110 A 
ATOM      6  C   LIG    1       -6.062  -2.476   0.320  0.00  0.00    +0.060 A 
ATOM      7  C   LIG    1       -4.963  -3.046  -0.289  0.00  0.00    +0.030 A 
ATOM      8  C   LIG    1       -3.781  -2.337  -0.396  0.00  0.00    +0.020 A 
ATOM      9  C   LIG    1       -3.688  -1.049   0.118  0.00  0.00    +0.140 A 
ATOM     10  C   LIG    1       -4.786  -0.467   0.731  0.00  0.00    +0.090 A 
BRANCH   5  11
ATOM     11  C   LIG    1       -7.156  -0.567   1.488  0.00  0.00    +0.510 C 
ATOM     12  O   LIG    1       -7.084   0.559   1.935  0.00  0.00    -0.500 OA
BRANCH  11  14
ATOM     13  C   LIG    1       -9.422  -0.594   2.240  0.00  0.00    +0.260 C 
ATOM     14  O   LIG    1       -8.309  -1.258   1.587  0.00  0.00    -0.350 OA
ENDBRANCH  11  14
ENDBRANCH   5  11
ENDBRANCH   1   9
BRANCH   3  15
ATOM     15  C   LIG    1       -1.250   1.764  -0.147  0.00  0.00    -0.130 A 
ATOM     16  C   LIG    1       -0.029   1.105   0.025  0.00  0.00    +0.070 A 
ATOM     17  C   LIG    1        1.146   1.823   0.021  0.00  0.00    +0.010 A 
ATOM     18  C   LIG    1        1.126   3.199  -0.145  0.00  0.00    +0.070 A 
ATOM     19  C   LIG    1       -0.071   3.866  -0.310  0.00  0.00    -0.010 A 
ATOM     20  C   LIG    1       -1.267   3.159  -0.310  0.00  0.00    -0.040 A 
BRANCH  20  21
ATOM     21  S   LIG    1       -2.797   4.006  -0.521  0.00  0.00    +0.040 S 
BRANCH  21  22
ATOM     22  C   LIG    1       -2.284   5.738  -0.693  0.00  0.00    +0.150 C 
BRANCH  22  23
ATOM     23  C   LIG    1       -3.501   6.606  -0.885  0.00  0.00    +0.190 A 
ATOM     24  N   LIG    1       -4.196   7.174   0.055  0.00  0.00    -0.370 NA
ATOM     25  O   LIG    1       -5.113   7.806  -0.425  0.00  0.00    +0.090 OA
ATOM     26  C   LIG    1       -5.090   7.698  -1.757  0.00  0.00    +0.180 A 
ATOM     27  C   LIG    1       -6.056   8.331  -2.725  0.00  0.00    +0.260 C 
ATOM     28  N   LIG    1       -4.064   6.939  -2.060  0.00  0.00    -0.480 NA
ENDBRANCH  22  23
ENDBRANCH  21  22
ENDBRANCH  20  21
ENDBRANCH   3  15
TORSDOF 7
