REMARK  Name = ZINCvU0000000AI9.0
REMARK                            x       y       z     vdW  Elec       q    Type
REMARK                         _______ _______ _______ _____ _____    ______ ____
ROOT
ATOM      1  C   LIG    1        8.145   7.644  -0.596  0.00  0.00    +0.230 A 
ATOM      2  N   LIG    1        8.517   6.414  -0.330  0.00  0.00    -0.270 NA
ATOM      3  N   LIG    1        7.501   5.629  -0.374  0.00  0.00    -0.290 NA
ATOM      4  C   LIG    1        6.417   6.311  -0.671  0.00  0.00    +0.140 A 
ATOM      5  N   LIG    1        6.789   7.615  -0.829  0.00  0.00    -0.440 N 
ENDROOT
BRANCH   1  11
ATOM      6  C   LIG    1        8.804  12.544   0.079  0.00  0.00    +0.090 C 
ATOM      7  C   LIG    1        9.341  11.194  -0.320  0.00  0.00    -0.080 A 
ATOM      8  C   LIG    1       10.656  11.068  -0.731  0.00  0.00    +0.030 A 
ATOM      9  C   LIG    1       11.157   9.831  -1.098  0.00  0.00    +0.020 A 
ATOM     10  C   LIG    1       10.348   8.715  -1.051  0.00  0.00    +0.050 A 
ATOM     11  C   LIG    1        9.019   8.836  -0.643  0.00  0.00    -0.020 A 
ATOM     12  C   LIG    1        8.520  10.086  -0.274  0.00  0.00    +0.020 A 
ENDBRANCH   1  11
BRANCH   5  13
ATOM     13  C   LIG    1        5.925   8.747  -1.171  0.00  0.00    +0.250 C 
ATOM     14  C   LIG    1        5.282   8.504  -2.537  0.00  0.00    +0.010 C 
ATOM     15  C   LIG    1        4.379   9.686  -2.894  0.00  0.00    +0.040 C 
ATOM     16  C   LIG    1        3.285   9.831  -1.835  0.00  0.00    +0.010 C 
ATOM     17  C   LIG    1        3.928  10.075  -0.468  0.00  0.00    +0.040 C 
ATOM     18  C   LIG    1        4.831   8.892  -0.111  0.00  0.00    -0.020 C 
ATOM     19  C   LIG    1        5.474   9.136   1.256  0.00  0.00    +0.030 C 
ENDBRANCH   5  13
BRANCH   4  20
ATOM     20  S   LIG    1        4.788   5.661  -0.842  0.00  0.00    +0.090 S 
BRANCH  20  21
ATOM     21  C   LIG    1        5.109   3.913  -0.499  0.00  0.00    +0.100 C 
BRANCH  21  22
ATOM     22  C   LIG    1        3.820   3.138  -0.591  0.00  0.00    +0.540 C 
ATOM     23  N   LIG    1        3.816   1.808  -0.372  0.00  0.00    -0.660 N 
ATOM     24  H   LIG    1        4.628   1.361  -0.088  0.00  0.00    +0.420 HD
ATOM     25  O   LIG    1        2.785   3.711  -0.862  0.00  0.00    -0.500 OA
BRANCH  23  26
ATOM     26  C   LIG    1        2.639   1.072  -0.553  0.00  0.00    +0.120 A 
ATOM     27  C   LIG    1        1.624   1.555  -1.375  0.00  0.00    +0.090 A 
ATOM     28  C   LIG    1        0.477   0.790  -1.523  0.00  0.00    +0.010 A 
ATOM     29  C   LIG    1        0.379  -0.416  -0.857  0.00  0.00    +0.270 A 
ATOM     30  N   LIG    1        1.358  -0.847  -0.085  0.00  0.00    -0.450 NA
ATOM     31  C   LIG    1        2.466  -0.151   0.084  0.00  0.00    +0.140 A 
ATOM     32 CL   LIG    1        3.721  -0.770   1.112  0.00  0.00    -0.020 Cl
ENDBRANCH  23  26
ENDBRANCH  21  22
ENDBRANCH  20  21
ENDBRANCH   4  20
TORSDOF 6
