REMARK  Name = ZINCqH0000007MQm.0
REMARK                            x       y       z     vdW  Elec       q    Type
REMARK                         _______ _______ _______ _____ _____    ______ ____
ROOT
ATOM      1  C   LIG    1       -1.817  -5.235  -1.627  0.00  0.00    +0.600 C 
ATOM      2  N   LIG    1       -1.228  -4.048  -1.382  0.00  0.00    -0.720 N 
ATOM      3  H   LIG    1       -0.891  -3.513  -2.117  0.00  0.00    +0.410 HD
ATOM      4  O   LIG    1       -2.239  -5.905  -0.706  0.00  0.00    -0.520 OA
ENDROOT
BRANCH   1   7
ATOM      5  C   LIG    1       -2.407  -6.916  -4.804  0.00  0.00    +0.030 A 
ATOM      6  C   LIG    1       -2.533  -6.946  -3.442  0.00  0.00    +0.010 A 
ATOM      7  C   LIG    1       -1.948  -5.724  -3.021  0.00  0.00    -0.030 A 
ATOM      8  N   LIG    1       -1.542  -5.115  -4.109  0.00  0.00    -0.330 NA
ATOM      9  O   LIG    1       -1.788  -5.760  -5.102  0.00  0.00    +0.140 OA
BRANCH   5  15
ATOM     10  C   LIG    1       -3.624  -7.594  -6.874  0.00  0.00    +0.160 A 
ATOM     11  C   LIG    1       -4.040  -8.571  -7.763  0.00  0.00    -0.070 A 
ATOM     12  C   LIG    1       -3.700  -9.893  -7.548  0.00  0.00    +0.070 A 
ATOM     13  C   LIG    1       -2.942 -10.250  -6.446  0.00  0.00    -0.030 A 
ATOM     14  C   LIG    1       -2.514  -9.288  -5.555  0.00  0.00    +0.100 A 
ATOM     15  C   LIG    1       -2.857  -7.951  -5.758  0.00  0.00    -0.070 A 
BRANCH  10  17
ATOM     16  C   LIG    1       -4.743  -6.006  -8.243  0.00  0.00    +0.240 C 
ATOM     17  O   LIG    1       -3.959  -6.294  -7.084  0.00  0.00    -0.310 OA
ENDBRANCH  10  17
ENDBRANCH   5  15
ENDBRANCH   1   7
BRANCH   2  18
ATOM     18  C   LIG    1       -1.099  -3.565  -0.005  0.00  0.00    +0.360 C 
BRANCH  18  19
ATOM     19  C   LIG    1       -0.411  -2.224  -0.005  0.00  0.00    +0.050 A 
ATOM     20  C   LIG    1       -1.037  -1.036   0.007  0.00  0.00    -0.020 A 
ATOM     21  C   LIG    1        0.002  -0.004   0.002  0.00  0.00    -0.110 A 
ATOM     22  C   LIG    1       -0.017   1.392   0.010  0.00  0.00    +0.050 A 
ATOM     23  C   LIG    1        1.160   2.086   0.002  0.00  0.00    -0.030 A 
ATOM     24  C   LIG    1        2.375   1.415  -0.014  0.00  0.00    +0.040 A 
ATOM     25  C   LIG    1        2.417   0.038  -0.021  0.00  0.00    -0.010 A 
ATOM     26  C   LIG    1        1.231  -0.689  -0.013  0.00  0.00    +0.100 A 
ATOM     27  N   LIG    1        0.945  -2.036  -0.017  0.00  0.00    -0.590 N 
ATOM     28  H   LIG    1        1.605  -2.746  -0.027  0.00  0.00    +0.420 HD
ENDBRANCH  18  19
ENDBRANCH   2  18
TORSDOF 5
