REMARK  Name = ZINCpk00000kWZLQ.1
REMARK                            x       y       z     vdW  Elec       q    Type
REMARK                         _______ _______ _______ _____ _____    ______ ____
ROOT
ATOM      1  N   LIG    1        3.533  -1.883  -0.135  0.00  0.00    -0.660 N 
ATOM      2  H   LIG    1        2.733  -2.423  -0.036  0.00  0.00    +0.420 HD
ATOM      3  C   LIG    1        3.444  -0.538  -0.118  0.00  0.00    +0.580 C 
ATOM      4  O   LIG    1        4.453   0.139  -0.168  0.00  0.00    -0.520 OA
ENDROOT
BRANCH   3   5
ATOM      5  C   LIG    1        2.124   0.113  -0.039  0.00  0.00    -0.250 A 
ATOM      6  C   LIG    1        2.026   1.489  -0.022  0.00  0.00    +0.400 A 
ATOM      7  N   LIG    1        0.821   2.088   0.050  0.00  0.00    -0.440 N 
ATOM      8  C   LIG    1       -0.311   1.362   0.106  0.00  0.00    +0.520 A 
ATOM      9  C   LIG    1       -0.260  -0.044   0.092  0.00  0.00    -0.070 A 
ATOM     10  O   LIG    1       -1.390   1.928   0.166  0.00  0.00    -0.510 OA
ATOM     11  C   LIG    1        0.945  -0.670   0.020  0.00  0.00    +0.140 A 
BRANCH   7  12
ATOM     12  C   LIG    1        0.745   3.486   0.065  0.00  0.00    +0.070 A 
ATOM     13  C   LIG    1       -0.001   4.153  -0.898  0.00  0.00    +0.090 A 
ATOM     14  C   LIG    1       -0.079   5.531  -0.878  0.00  0.00    +0.010 A 
ATOM     15  C   LIG    1        0.595   6.250   0.096  0.00  0.00    +0.120 A 
ATOM     16  C   LIG    1        1.344   5.587   1.054  0.00  0.00    +0.010 A 
ATOM     17  F   LIG    1        0.522   7.599   0.111  0.00  0.00    -0.130 F 
ATOM     18  C   LIG    1        1.420   4.208   1.040  0.00  0.00    +0.060 A 
ENDBRANCH   7  12
ENDBRANCH   3   5
BRANCH   1  22
ATOM     19  C   LIG    1        7.161  -3.680  -0.599  0.00  0.00    +0.300 A 
ATOM     20  N   LIG    1        7.088  -2.550   0.076  0.00  0.00    -0.500 NA
ATOM     21  C   LIG    1        5.930  -1.936   0.249  0.00  0.00    +0.330 A 
ATOM     22  C   LIG    1        4.779  -2.499  -0.294  0.00  0.00    +0.040 A 
ATOM     23  C   LIG    1        4.899  -3.696  -0.996  0.00  0.00    +0.300 A 
ATOM     24  N   LIG    1        6.095  -4.245  -1.128  0.00  0.00    -0.480 NA
BRANCH  19  25
ATOM     25  C   LIG    1        8.503  -4.344  -0.770  0.00  0.00    +0.290 C 
BRANCH  25  26
ATOM     26  N   LIG    1        8.736  -5.272   0.344  0.00  0.00    -0.840 NA
ATOM     27  H   LIG    1        8.663  -4.798   1.232  0.00  0.00    +0.340 HD
ATOM     28  H   LIG    1        9.630  -5.731   0.252  0.00  0.00    +0.350 HD
ENDBRANCH  25  26
ENDBRANCH  19  25
ENDBRANCH   1  22
TORSDOF 5
