REMARK  Name = ZINC670000003VRe.0
REMARK                            x       y       z     vdW  Elec       q    Type
REMARK                         _______ _______ _______ _____ _____    ______ ____
ROOT
ATOM      1  N   LIG    1       -0.020   1.094   2.454  0.00  0.00    -0.740 N 
ATOM      2  H   LIG    1       -0.308   0.277   2.890  0.00  0.00    +0.400 HD
ATOM      3  C   LIG    1        1.032   1.782   2.939  0.00  0.00    +0.620 C 
ATOM      4  O   LIG    1        1.392   2.804   2.393  0.00  0.00    -0.550 OA
ENDROOT
BRANCH   1   6
ATOM      5  C   LIG    1       -0.013   1.086   0.008  0.00  0.00    +0.030 C 
ATOM      6  C   LIG    1       -0.729   1.579   1.267  0.00  0.00    +0.220 C 
ATOM      7  C   LIG    1       -2.164   1.050   1.278  0.00  0.00    +0.030 C 
ENDBRANCH   1   6
TORSDOF 1
