REMARK  Name = ZINCrH000004mcbr.2
REMARK                            x       y       z     vdW  Elec       q    Type
REMARK                         _______ _______ _______ _____ _____    ______ ____
ROOT
ATOM      1  N   LIG    1       -0.269  -3.029  -2.065  0.00  0.00    -0.680 N 
ATOM      2  H   LIG    1        0.215  -2.806  -2.876  0.00  0.00    +0.410 HD
ATOM      3  C   LIG    1       -0.328  -2.143  -1.051  0.00  0.00    +0.520 C 
ATOM      4  O   LIG    1       -0.848  -2.457  -0.001  0.00  0.00    -0.490 OA
ENDROOT
BRANCH   1   7
ATOM      5  C   LIG    1       -2.716  -5.609  -1.115  0.00  0.00    +0.190 A 
ATOM      6  C   LIG    1       -2.087  -4.379  -1.230  0.00  0.00    -0.040 A 
ATOM      7  C   LIG    1       -0.904  -4.270  -1.948  0.00  0.00    +0.230 A 
ATOM      8  C   LIG    1       -0.354  -5.391  -2.554  0.00  0.00    -0.080 A 
ATOM      9  C   LIG    1       -0.982  -6.622  -2.434  0.00  0.00    +0.180 A 
ATOM     10  C   LIG    1       -2.164  -6.730  -1.717  0.00  0.00    -0.170 A 
BRANCH   5  12
ATOM     11  C   LIG    1       -4.468  -7.014  -0.334  0.00  0.00    +0.250 C 
ATOM     12  O   LIG    1       -3.874  -5.717  -0.412  0.00  0.00    -0.310 OA
ENDBRANCH   5  12
BRANCH   9  13
ATOM     13  O   LIG    1       -0.442  -7.720  -3.024  0.00  0.00    -0.310 OA
ATOM     14  C   LIG    1       -1.145  -8.954  -2.864  0.00  0.00    +0.250 C 
ENDBRANCH   9  13
ENDBRANCH   1   7
BRANCH   3  15
ATOM     15  C   LIG    1        0.252  -0.762  -1.221  0.00  0.00    +0.210 C 
BRANCH  15  16
ATOM     16  N   LIG    1       -0.031   0.039  -0.023  0.00  0.00    -0.480 NA
BRANCH  16  17
ATOM     17  C   LIG    1        0.184   1.469  -0.283  0.00  0.00    +0.190 C 
ATOM     18  C   LIG    1       -0.425   1.863  -1.645  0.00  0.00    +0.050 C 
ATOM     19  C   LIG    1       -0.927   3.300  -1.377  0.00  0.00    +0.080 C 
ATOM     20  C   LIG    1       -1.191   3.358   0.112  0.00  0.00    -0.090 A 
ATOM     21  C   LIG    1       -1.932   4.259   0.858  0.00  0.00    +0.010 A 
ATOM     22  C   LIG    1       -2.034   4.110   2.227  0.00  0.00    +0.000 A 
ATOM     23  C   LIG    1       -1.395   3.058   2.856  0.00  0.00    +0.000 A 
ATOM     24  C   LIG    1       -0.656   2.158   2.114  0.00  0.00    +0.040 A 
ATOM     25  C   LIG    1       -0.552   2.305   0.741  0.00  0.00    -0.080 A 
ENDBRANCH  16  17
BRANCH  16  26
ATOM     26  C   LIG    1        0.775  -0.417   1.117  0.00  0.00    +0.160 C 
ATOM     27  C   LIG    1        1.692   0.608   1.788  0.00  0.00    +0.020 C 
ATOM     28  C   LIG    1        2.290  -0.503   0.921  0.00  0.00    -0.030 C 
ENDBRANCH  16  26
ENDBRANCH  15  16
ENDBRANCH   3  15
TORSDOF 7
