REMARK  Name = ZINCrH000004ou1E.0
REMARK                            x       y       z     vdW  Elec       q    Type
REMARK                         _______ _______ _______ _____ _____    ______ ____
ROOT
ATOM      1  C   LIG    1       -0.649   3.428  -1.105  0.00  0.00    -0.060 A 
ATOM      2  C   LIG    1       -0.830   4.076   0.103  0.00  0.00    +0.020 A 
ATOM      3  C   LIG    1       -0.878   5.457   0.150  0.00  0.00    +0.030 A 
ATOM      4  C   LIG    1       -0.758   6.194  -1.012  0.00  0.00    -0.020 A 
ATOM      5  C   LIG    1       -0.582   5.546  -2.228  0.00  0.00    +0.150 A 
ATOM      6  C   LIG    1       -0.528   4.159  -2.271  0.00  0.00    +0.010 A 
ENDROOT
BRANCH   5   7
ATOM      7  N   LIG    1       -0.459   6.288  -3.407  0.00  0.00    -0.660 N 
ATOM      8  H   LIG    1       -0.031   7.159  -3.389  0.00  0.00    +0.410 HD
ATOM      9  C   LIG    1       -0.935   5.795  -4.567  0.00  0.00    +0.580 C 
ATOM     10  O   LIG    1       -1.554   4.747  -4.574  0.00  0.00    -0.490 OA
BRANCH   9  11
ATOM     11  C   LIG    1       -0.707   6.523  -5.826  0.00  0.00    -0.130 A 
ATOM     12  C   LIG    1        0.512   6.438  -6.489  0.00  0.00    +0.130 A 
ATOM     13  C   LIG    1        0.689   7.143  -7.683  0.00  0.00    +0.000 A 
ATOM     14  C   LIG    1       -0.297   7.908  -8.198  0.00  0.00    +0.320 A 
ATOM     15  N   LIG    1       -1.507   8.028  -7.584  0.00  0.00    -0.270 N 
ATOM     16  N   LIG    1       -2.666   8.745  -7.909  0.00  0.00    -0.300 NA
ATOM     17  C   LIG    1       -3.574   8.529  -6.984  0.00  0.00    +0.330 A 
ATOM     18  C   LIG    1       -3.046   7.671  -6.027  0.00  0.00    -0.260 A 
ATOM     19 BR   LIG    1       -3.935   7.039  -4.482  0.00  0.00    +0.000 Br
ATOM     20  C   LIG    1       -1.754   7.363  -6.410  0.00  0.00    +0.160 A 
ENDBRANCH   9  11
ENDBRANCH   5   7
BRANCH   1  22
ATOM     21  C   LIG    1       -2.010   1.355  -1.095  0.00  0.00    +0.060 C 
ATOM     22  C   LIG    1       -0.590   1.923  -1.150  0.00  0.00    +0.170 C 
BRANCH  22  23
ATOM     23  N   LIG    1        0.180   1.428  -0.002  0.00  0.00    -0.530 NA
ATOM     24  C   LIG    1        1.525   2.021   0.025  0.00  0.00    +0.150 C 
ATOM     25  C   LIG    1        2.271   1.526   1.268  0.00  0.00    +0.220 C 
ATOM     26  O   LIG    1        2.309   0.096   1.255  0.00  0.00    -0.390 OA
ATOM     27  C   LIG    1        1.017  -0.515   1.229  0.00  0.00    +0.220 C 
ATOM     28  C   LIG    1        0.259  -0.040  -0.013  0.00  0.00    +0.140 C 
ENDBRANCH  22  23
ENDBRANCH   1  22
TORSDOF 4
