REMARK  Name = ZINCrD000000C3uZ.0
REMARK                            x       y       z     vdW  Elec       q    Type
REMARK                         _______ _______ _______ _____ _____    ______ ____
ROOT
ATOM      1  C   LIG    1        5.737   1.396  -0.220  0.00  0.00    +0.140 A 
ATOM      2  C   LIG    1        6.297   0.130  -0.327  0.00  0.00    +0.050 A 
ATOM      3  C   LIG    1        7.667  -0.013  -0.428  0.00  0.00    +0.010 A 
ATOM      4  C   LIG    1        8.484   1.110  -0.424  0.00  0.00    +0.140 A 
ATOM      5  C   LIG    1        7.923   2.376  -0.317  0.00  0.00    -0.100 A 
ATOM      6  C   LIG    1        8.813   3.592  -0.313  0.00  0.00    +0.100 C 
ATOM      7  C   LIG    1       10.131   3.259   0.386  0.00  0.00    +0.080 C 
ATOM      8  C   LIG    1       10.690   1.972  -0.160  0.00  0.00    +0.520 C 
ATOM      9  O   LIG    1       11.890   1.839  -0.270  0.00  0.00    -0.510 OA
ATOM     10  N   LIG    1        9.873   0.968  -0.528  0.00  0.00    -0.550 N 
ATOM     11  C   LIG    1        6.554   2.519  -0.221  0.00  0.00    +0.020 A 
ENDROOT
BRANCH   1  14
ATOM     12  O   LIG    1        4.182  -0.280   1.147  0.00  0.00    -0.530 OA
ATOM     13  C   LIG    1        3.622   0.622   0.550  0.00  0.00    +0.600 C 
ATOM     14  N   LIG    1        4.348   1.540  -0.118  0.00  0.00    -0.680 N 
ATOM     15  H   LIG    1        3.908   2.301  -0.528  0.00  0.00    +0.400 HD
BRANCH  13  16
ATOM     16  C   LIG    1        2.162   0.708   0.559  0.00  0.00    -0.300 A 
ATOM     17  C   LIG    1        1.259  -0.202   1.109  0.00  0.00    +0.360 A 
ATOM     18  N   LIG    1        0.025   0.227   0.914  0.00  0.00    -0.550 NA
ATOM     19  C   LIG    1       -0.010   1.383   0.261  0.00  0.00    +0.280 A 
ATOM     20  N   LIG    1       -1.034   2.193  -0.152  0.00  0.00    -0.490 N 
ATOM     21  H   LIG    1       -1.951   1.938   0.033  0.00  0.00    +0.430 HD
ATOM     22  C   LIG    1       -0.783   3.334  -0.814  0.00  0.00    +0.340 A 
ATOM     23  C   LIG    1        0.488   3.736  -1.092  0.00  0.00    -0.050 A 
ATOM     24  C   LIG    1        1.571   2.958  -0.693  0.00  0.00    +0.170 A 
ATOM     25  C   LIG    1        1.324   1.772  -0.012  0.00  0.00    -0.140 A 
ENDBRANCH  13  16
ENDBRANCH   1  14
BRANCH  10  26
ATOM     26  C   LIG    1       10.441  -0.281  -1.040  0.00  0.00    +0.290 C 
BRANCH  26  27
ATOM     27  C   LIG    1       10.592  -0.188  -2.559  0.00  0.00    +0.370 C 
ATOM     28  F   LIG    1       11.443   0.876  -2.878  0.00  0.00    -0.190 F 
ATOM     29  F   LIG    1        9.338   0.027  -3.141  0.00  0.00    -0.200 F 
ENDBRANCH  26  27
ENDBRANCH  10  26
TORSDOF 4
