REMARK  Name = ZINCvU0000000GzR.0
REMARK                            x       y       z     vdW  Elec       q    Type
REMARK                         _______ _______ _______ _____ _____    ______ ____
ROOT
ATOM      1  N   LIG    1       -2.591   7.637   0.721  0.00  0.00    -0.510 N 
ATOM      2  C   LIG    1       -1.287   7.348   0.534  0.00  0.00    +0.580 C 
ATOM      3  C   LIG    1       -1.121   5.910   0.261  0.00  0.00    +0.100 A 
ATOM      4  C   LIG    1       -2.354   5.323   0.290  0.00  0.00    -0.240 A 
ATOM      5  C   LIG    1       -2.512   3.884   0.058  0.00  0.00    +0.460 A 
ATOM      6  C   LIG    1       -1.226   3.142   0.031  0.00  0.00    -0.210 A 
ATOM      7  C   LIG    1       -1.215   1.747   0.017  0.00  0.00    +0.120 A 
ATOM      8  C   LIG    1       -0.013   1.076   0.008  0.00  0.00    +0.000 A 
ATOM      9  C   LIG    1        1.180   1.785   0.000  0.00  0.00    +0.100 A 
ATOM     10  C   LIG    1        1.182   3.162   0.005  0.00  0.00    +0.020 A 
ATOM     11  C   LIG    1       -0.022   3.865   0.018  0.00  0.00    +0.140 A 
ATOM     12  O   LIG    1       -3.595   3.347  -0.097  0.00  0.00    -0.420 OA
ATOM     13  O   LIG    1        0.008   5.218   0.013  0.00  0.00    -0.180 OA
ATOM     14  O   LIG    1       -0.381   8.156   0.582  0.00  0.00    -0.440 OA
ATOM     15  C   LIG    1       -3.359   6.389   0.580  0.00  0.00    +0.440 C 
ENDROOT
BRANCH   1  22
ATOM     16  C   LIG    1       -5.296  14.597   2.229  0.00  0.00    +0.100 C 
ATOM     17  C   LIG    1       -5.093  13.130   1.949  0.00  0.00    -0.070 A 
ATOM     18  C   LIG    1       -6.184  12.274   1.911  0.00  0.00    +0.040 A 
ATOM     19  C   LIG    1       -6.014  10.937   1.658  0.00  0.00    +0.080 A 
ATOM     20  C   LIG    1       -4.724  10.411   1.432  0.00  0.00    +0.100 A 
ATOM     21  N   LIG    1       -4.367   9.139   1.166  0.00  0.00    -0.480 NA
ATOM     22  C   LIG    1       -3.115   8.887   0.997  0.00  0.00    +0.340 A 
ATOM     23  S   LIG    1       -2.167  10.359   1.158  0.00  0.00    +0.150 S 
ATOM     24  C   LIG    1       -3.633  11.285   1.473  0.00  0.00    -0.190 A 
ATOM     25  C   LIG    1       -3.825  12.639   1.732  0.00  0.00    +0.060 A 
ENDBRANCH   1  22
BRANCH  15  26
ATOM     26  C   LIG    1       -4.088   6.080   1.862  0.00  0.00    -0.040 A 
ATOM     27  C   LIG    1       -5.312   5.530   1.958  0.00  0.00    +0.000 A 
ATOM     28  C   LIG    1       -5.605   5.419   3.337  0.00  0.00    -0.060 A 
ATOM     29  C   LIG    1       -4.543   5.909   4.001  0.00  0.00    +0.000 A 
ATOM     30  C   LIG    1       -4.403   5.995   5.499  0.00  0.00    +0.170 C 
ATOM     31  O   LIG    1       -3.625   6.302   3.103  0.00  0.00    -0.170 OA
ENDBRANCH  15  26
TORSDOF 2
