REMARK  Name = ZINCqH0000003999.0
REMARK                            x       y       z     vdW  Elec       q    Type
REMARK                         _______ _______ _______ _____ _____    ______ ____
ROOT
ATOM      1  C   LIG    1       -5.076   6.408   1.107  0.00  0.00    -0.690 A 
ATOM      2  C   LIG    1       -3.891   7.114   1.011  0.00  0.00    +0.140 A 
ATOM      3  C   LIG    1       -2.709   6.542   1.438  0.00  0.00    +0.010 A 
ATOM      4  C   LIG    1       -2.711   5.257   1.966  0.00  0.00    +0.200 A 
ATOM      5  C   LIG    1       -3.903   4.549   2.057  0.00  0.00    -0.020 A 
ATOM      6  C   LIG    1       -5.082   5.129   1.632  0.00  0.00    +0.150 A 
ENDROOT
BRANCH   4   7
ATOM      7  N   LIG    1       -1.516   4.675   2.400  0.00  0.00    -0.670 N 
ATOM      8  H   LIG    1       -1.368   3.724   2.278  0.00  0.00    +0.420 HD
ATOM      9  C   LIG    1       -0.571   5.436   2.987  0.00  0.00    +0.610 C 
ATOM     10  O   LIG    1       -0.721   6.641   3.065  0.00  0.00    -0.490 OA
BRANCH   9  11
ATOM     11  C   LIG    1        0.639   4.811   3.530  0.00  0.00    -0.090 A 
ATOM     12  C   LIG    1        1.670   5.461   4.147  0.00  0.00    +0.060 A 
ATOM     13  C   LIG    1        2.606   4.479   4.510  0.00  0.00    -0.070 A 
ATOM     14  C   LIG    1        2.111   3.289   4.104  0.00  0.00    +0.230 A 
ATOM     15  O   LIG    1        0.926   3.493   3.515  0.00  0.00    -0.170 OA
ENDBRANCH   9  11
ENDBRANCH   4   7
BRANCH   1  16
ATOM     16  S   LIG    1       -6.582   7.141   0.560  0.00  0.00    +2.690 S 
ATOM     17  O   LIG    1       -6.448   8.540   0.772  0.00  0.00    -0.940 OA
ATOM     18  O   LIG    1       -7.633   6.367   1.122  0.00  0.00    -0.940 OA
BRANCH  16  19
ATOM     19  N   LIG    1       -6.667   6.923  -1.080  0.00  0.00    -0.940 N 
BRANCH  19  20
ATOM     20  C   LIG    1       -7.486   5.924  -1.610  0.00  0.00    +0.160 A 
ATOM     21  C   LIG    1       -7.459   4.643  -1.073  0.00  0.00    -0.010 A 
ATOM     22  C   LIG    1       -8.274   3.659  -1.597  0.00  0.00    +0.040 A 
ATOM     23  C   LIG    1       -9.109   3.945  -2.661  0.00  0.00    +0.000 A 
ATOM     24  C   LIG    1       -9.135   5.217  -3.202  0.00  0.00    +0.030 A 
ATOM     25  C   LIG    1       -8.326   6.207  -2.679  0.00  0.00    +0.000 A 
ENDBRANCH  19  20
BRANCH  19  27
ATOM     26  C   LIG    1       -4.562   7.082  -2.316  0.00  0.00    +0.020 C 
ATOM     27  C   LIG    1       -5.881   7.778  -1.974  0.00  0.00    +0.290 C 
ENDBRANCH  19  27
ENDBRANCH  16  19
ENDBRANCH   1  16
TORSDOF 6
