REMARK  Name = ZINCrH000004neAh.0
REMARK                            x       y       z     vdW  Elec       q    Type
REMARK                         _______ _______ _______ _____ _____    ______ ____
ROOT
ATOM      1  C   LIG    1       -2.641  -4.546   6.343  0.00  0.00    +0.240 C 
ENDROOT
BRANCH   1   2
ATOM      2  C   LIG    1       -1.355  -4.887   5.635  0.00  0.00    +0.520 C 
ATOM      3  N   LIG    1       -1.149  -4.465   4.372  0.00  0.00    -0.730 N 
ATOM      4  H   LIG    1       -1.829  -3.942   3.918  0.00  0.00    +0.410 HD
ATOM      5  O   LIG    1       -0.505  -5.541   6.202  0.00  0.00    -0.510 OA
BRANCH   3   6
ATOM      6  C   LIG    1        0.101  -4.796   3.683  0.00  0.00    +0.290 C 
BRANCH   6   7
ATOM      7  C   LIG    1        0.080  -4.202   2.274  0.00  0.00    +0.200 C 
BRANCH   7   8
ATOM      8  O   LIG    1        0.062  -2.775   2.358  0.00  0.00    -0.310 OA
BRANCH   8   9
ATOM      9  C   LIG    1        0.042  -2.088   1.186  0.00  0.00    +0.130 A 
ATOM     10  C   LIG    1        0.040  -2.772  -0.020  0.00  0.00    -0.090 A 
ATOM     11  C   LIG    1        0.019  -2.071  -1.211  0.00  0.00    +0.050 A 
ATOM     12  C   LIG    1       -0.006  -0.689  -1.200  0.00  0.00    -0.040 A 
ATOM     13  C   LIG    1        0.002  -0.004   0.002  0.00  0.00    -0.050 A 
ATOM     14  C   LIG    1       -0.018   1.503   0.010  0.00  0.00    +0.090 C 
ATOM     15  C   LIG    1        0.023  -0.700   1.195  0.00  0.00    -0.020 A 
ENDBRANCH   8   9
ENDBRANCH   7   8
ENDBRANCH   6   7
ENDBRANCH   3   6
ENDBRANCH   1   2
BRANCH   1  16
ATOM     16  O   LIG    1       -2.622  -5.101   7.659  0.00  0.00    -0.290 OA
BRANCH  16  21
ATOM     17  C   LIG    1       -6.070  -5.441  12.570  0.00  0.00    +0.140 A 
ATOM     18  C   LIG    1       -4.955  -5.676  11.817  0.00  0.00    -0.020 A 
ATOM     19  C   LIG    1       -4.882  -5.169  10.508  0.00  0.00    +0.030 A 
ATOM     20  C   LIG    1       -3.754  -5.396   9.703  0.00  0.00    -0.020 A 
ATOM     21  C   LIG    1       -3.715  -4.885   8.437  0.00  0.00    +0.140 A 
ATOM     22  C   LIG    1       -4.787  -4.146   7.928  0.00  0.00    -0.070 A 
ATOM     23  C   LIG    1       -5.895  -3.912   8.682  0.00  0.00    +0.080 A 
ATOM     24  C   LIG    1       -5.968  -4.419   9.991  0.00  0.00    -0.120 A 
ATOM     25  C   LIG    1       -7.099  -4.196  10.795  0.00  0.00    +0.080 A 
ATOM     26  C   LIG    1       -7.139  -4.700  12.057  0.00  0.00    -0.070 A 
BRANCH  17  28
ATOM     27  C   LIG    1       -7.330  -5.654  14.575  0.00  0.00    +0.250 C 
ATOM     28  O   LIG    1       -6.140  -5.932  13.835  0.00  0.00    -0.320 OA
ENDBRANCH  17  28
ENDBRANCH  16  21
ENDBRANCH   1  16
TORSDOF 8
