REMARK  Name = ZINCpk00000eawLV.1
REMARK                            x       y       z     vdW  Elec       q    Type
REMARK                         _______ _______ _______ _____ _____    ______ ____
ROOT
ATOM      1  N   LIG    1        3.501  -2.412   0.266  0.00  0.00    -0.670 NA
ATOM      2  H   LIG    1        2.629  -2.603   0.736  0.00  0.00    +0.360 HD
ENDROOT
BRANCH   1   3
ATOM      3  C   LIG    1        3.744  -0.966   0.175  0.00  0.00    +0.150 C 
ATOM      4  C   LIG    1        4.583  -0.667  -1.069  0.00  0.00    +0.060 C 
BRANCH   3   7
ATOM      5  N   LIG    1        2.403   1.104  -0.015  0.00  0.00    -0.660 N 
ATOM      6  H   LIG    1        3.233   1.600  -0.086  0.00  0.00    +0.410 HD
ATOM      7  C   LIG    1        2.426  -0.241   0.078  0.00  0.00    +0.510 C 
ATOM      8  O   LIG    1        1.387  -0.867   0.085  0.00  0.00    -0.510 OA
BRANCH   5  14
ATOM      9  C   LIG    1        1.077   3.037   0.592  0.00  0.00    +0.100 A 
ATOM     10  C   LIG    1       -0.136   3.706   0.593  0.00  0.00    -0.060 A 
ATOM     11  C   LIG    1       -1.243   3.131  -0.004  0.00  0.00    +0.040 A 
ATOM     12  C   LIG    1       -1.142   1.892  -0.608  0.00  0.00    -0.010 A 
ATOM     13  C   LIG    1        0.064   1.215  -0.608  0.00  0.00    +0.070 A 
ATOM     14  C   LIG    1        1.178   1.785  -0.011  0.00  0.00    +0.110 A 
BRANCH   9  16
ATOM     15  C   LIG    1        1.989   4.886   1.778  0.00  0.00    +0.250 C 
ATOM     16  O   LIG    1        2.167   3.600   1.179  0.00  0.00    -0.320 OA
ENDBRANCH   9  16
ENDBRANCH   5  14
ENDBRANCH   3   7
ENDBRANCH   1   3
BRANCH   1  17
ATOM     17  C   LIG    1        4.619  -3.092   0.934  0.00  0.00    +0.230 C 
BRANCH  17  18
ATOM     18  C   LIG    1        4.334  -4.570   1.009  0.00  0.00    -0.020 A 
ATOM     19  C   LIG    1        3.672  -5.092   2.105  0.00  0.00    +0.000 A 
ATOM     20  C   LIG    1        3.407  -6.447   2.171  0.00  0.00    +0.120 A 
ATOM     21  C   LIG    1        3.813  -7.282   1.147  0.00  0.00    -0.670 A 
ATOM     22  C   LIG    1        4.480  -6.761   0.054  0.00  0.00    +0.120 A 
ATOM     23  C   LIG    1        4.741  -5.405  -0.015  0.00  0.00    +0.020 A 
BRANCH  21  24
ATOM     24  S   LIG    1        3.480  -9.010   1.235  0.00  0.00    +2.700 S 
ATOM     25  O   LIG    1        3.489  -9.489  -0.103  0.00  0.00    -0.960 OA
ATOM     26  O   LIG    1        2.368  -9.161   2.107  0.00  0.00    -0.960 OA
BRANCH  24  27
ATOM     27  N   LIG    1        4.769  -9.720   1.994  0.00  0.00    -1.250 NA
ATOM     28  H   LIG    1        4.778 -10.679   2.140  0.00  0.00    +0.420 HD
ATOM     29  H   LIG    1        5.516  -9.177   2.292  0.00  0.00    +0.420 HD
ENDBRANCH  24  27
ENDBRANCH  21  24
ENDBRANCH  17  18
ENDBRANCH   1  17
TORSDOF 8
