REMARK  Name = ZINCrH00000No54H.0
REMARK                            x       y       z     vdW  Elec       q    Type
REMARK                         _______ _______ _______ _____ _____    ______ ____
ROOT
ATOM      1  C   LIG    1        2.535   1.315   0.216  0.00  0.00    +0.600 C 
ATOM      2  N   LIG    1        3.532   2.157  -0.122  0.00  0.00    -0.610 N 
ATOM      3  C   LIG    1        3.304   3.604  -0.112  0.00  0.00    +0.310 C 
ATOM      4  O   LIG    1        2.725   0.113   0.210  0.00  0.00    -0.520 OA
ENDROOT
BRANCH   1  12
ATOM      5  C   LIG    1       -4.216   4.124   1.000  0.00  0.00    +0.550 C 
ATOM      6  N   LIG    1       -3.143   3.539   1.567  0.00  0.00    -0.610 N 
ATOM      7  C   LIG    1       -3.243   2.209   2.188  0.00  0.00    +0.290 C 
ATOM      8  C   LIG    1       -2.382   1.226   1.392  0.00  0.00    +0.090 C 
ATOM      9  C   LIG    1       -1.018   1.851   1.129  0.00  0.00    -0.100 A 
ATOM     10  C   LIG    1       -0.781   3.180   1.216  0.00  0.00    -0.250 A 
ATOM     11  S   LIG    1        0.847   3.543   0.855  0.00  0.00    +0.240 S 
ATOM     12  C   LIG    1        1.222   1.847   0.590  0.00  0.00    -0.270 A 
ATOM     13  C   LIG    1        0.097   1.107   0.788  0.00  0.00    +0.110 A 
ATOM     14  C   LIG    1       -1.834   4.210   1.587  0.00  0.00    +0.370 C 
ATOM     15  O   LIG    1       -5.289   3.552   0.995  0.00  0.00    -0.540 OA
BRANCH   5  17
ATOM     16  C   LIG    1       -5.148   6.032  -0.174  0.00  0.00    +0.160 C 
ATOM     17  C   LIG    1       -4.089   5.455   0.386  0.00  0.00    -0.100 C 
ENDBRANCH   5  17
ENDBRANCH   1  12
BRANCH   2  18
ATOM     18  C   LIG    1        4.844   1.625  -0.498  0.00  0.00    +0.350 C 
ATOM     19  C   LIG    1        5.195   2.079  -1.919  0.00  0.00    +0.040 C 
ATOM     20  C   LIG    1        6.666   1.756  -2.197  0.00  0.00    +0.030 C 
ATOM     21  C   LIG    1        7.557   2.681  -1.365  0.00  0.00    +0.140 C 
ATOM     22  C   LIG    1        7.102   2.624   0.085  0.00  0.00    +0.090 A 
ATOM     23  N   LIG    1        7.837   3.026   1.113  0.00  0.00    -0.480 NA
ATOM     24  C   LIG    1        7.331   2.921   2.291  0.00  0.00    +0.050 A 
ATOM     25  C   LIG    1        8.023   3.327   3.566  0.00  0.00    +0.180 C 
ATOM     26  S   LIG    1        5.760   2.254   2.200  0.00  0.00    +0.130 S 
ATOM     27  C   LIG    1        5.895   2.152   0.449  0.00  0.00    -0.250 A 
ENDBRANCH   2  18
TORSDOF 3
