REMARK  Name = ZINCb70000002DkX.0
REMARK                            x       y       z     vdW  Elec       q    Type
REMARK                         _______ _______ _______ _____ _____    ______ ____
ROOT
ATOM      1  C   LIG    1       -0.742   1.585  -1.213  0.00  0.00    +0.150 A 
ATOM      2  N   LIG    1       -1.707   0.972  -1.842  0.00  0.00    -0.270 NA
ATOM      3  N   LIG    1       -2.098   1.687  -2.837  0.00  0.00    -0.280 NA
ATOM      4  C   LIG    1       -1.393   2.784  -2.893  0.00  0.00    +0.390 A 
ATOM      5  N   LIG    1       -0.512   2.751  -1.865  0.00  0.00    -0.440 N 
ENDROOT
BRANCH   5   6
ATOM      6  C   LIG    1        0.486   3.768  -1.525  0.00  0.00    +0.170 C 
ATOM      7  C   LIG    1        0.426   5.096  -2.282  0.00  0.00    +0.070 C 
ATOM      8  C   LIG    1        1.546   4.096  -2.578  0.00  0.00    +0.060 C 
ENDBRANCH   5   6
BRANCH   1   9
ATOM      9  C   LIG    1       -0.013   1.086   0.008  0.00  0.00    +0.180 C 
BRANCH   9  10
ATOM     10  C   LIG    1       -0.729   1.579   1.267  0.00  0.00    +0.270 C 
BRANCH  10  11
ATOM     11  N   LIG    1       -0.018   1.093   2.457  0.00  0.00    -0.640 N 
ATOM     12  H   LIG    1        0.928   1.442   2.450  0.00  0.00    +0.440 HD
ATOM     13  H   LIG    1       -0.005   0.084   2.451  0.00  0.00    +0.440 HD
ATOM     14  H   LIG    1       -0.491   1.418   3.287  0.00  0.00    +0.440 HD
ENDBRANCH  10  11
ENDBRANCH   9  10
ENDBRANCH   1   9
TORSDOF 4
