REMARK  Name = ZINCvU0000000869.0
REMARK                            x       y       z     vdW  Elec       q    Type
REMARK                         _______ _______ _______ _____ _____    ______ ____
ROOT
ATOM      1  C   LIG    1       -1.933   0.787   3.997  0.00  0.00    -0.220 A 
ATOM      2  C   LIG    1       -3.183   0.760   3.485  0.00  0.00    +0.240 A 
ATOM      3  N   LIG    1       -3.789  -0.373   3.927  0.00  0.00    -0.320 N 
ATOM      4  N   LIG    1       -2.882  -1.060   4.743  0.00  0.00    -0.270 NA
ATOM      5  C   LIG    1       -1.764  -0.366   4.788  0.00  0.00    +0.130 A 
ENDROOT
BRANCH   5   6
ATOM      6  C   LIG    1       -0.540  -0.735   5.541  0.00  0.00    -0.010 A 
ATOM      7  C   LIG    1        0.716  -0.554   4.965  0.00  0.00    +0.060 A 
ATOM      8  C   LIG    1        1.852  -0.893   5.671  0.00  0.00    +0.030 A 
ATOM      9  C   LIG    1        1.745  -1.422   6.946  0.00  0.00    -0.030 A 
ATOM     10  C   LIG    1        0.499  -1.609   7.521  0.00  0.00    +0.030 A 
ATOM     11 CL   LIG    1        3.177  -1.853   7.827  0.00  0.00    -0.060 Cl
ATOM     12  C   LIG    1       -0.642  -1.268   6.825  0.00  0.00    +0.060 A 
ENDBRANCH   5   6
BRANCH   3  13
ATOM     13  C   LIG    1       -5.095  -0.779   3.623  0.00  0.00    +0.160 A 
ATOM     14  C   LIG    1       -5.894   0.004   2.801  0.00  0.00    -0.010 A 
ATOM     15  C   LIG    1       -7.179  -0.403   2.499  0.00  0.00    +0.040 A 
ATOM     16  C   LIG    1       -7.675  -1.582   3.024  0.00  0.00    +0.000 A 
ATOM     17  C   LIG    1       -6.883  -2.361   3.848  0.00  0.00    +0.040 A 
ATOM     18  C   LIG    1       -5.595  -1.963   4.149  0.00  0.00    +0.020 A 
ENDBRANCH   3  13
BRANCH   1  19
ATOM     19  C   LIG    1       -0.903   1.863   3.766  0.00  0.00    +0.380 C 
BRANCH  19  21
ATOM     20  C   LIG    1       -1.541   2.888   1.534  0.00  0.00    +0.280 C 
ATOM     21  N   LIG    1       -1.503   2.956   2.997  0.00  0.00    -0.620 N 
ATOM     22  C   LIG    1       -2.020   4.024   3.636  0.00  0.00    +0.510 C 
ATOM     23  O   LIG    1       -1.989   4.080   4.847  0.00  0.00    -0.530 OA
BRANCH  22  24
ATOM     24  C   LIG    1       -2.638   5.149   2.845  0.00  0.00    +0.060 C 
BRANCH  24  25
ATOM     25  C   LIG    1       -3.144   6.228   3.803  0.00  0.00    +0.100 C 
BRANCH  25  26
ATOM     26  C   LIG    1       -3.762   7.353   3.013  0.00  0.00    -0.140 A 
ATOM     27  C   LIG    1       -2.988   8.425   2.596  0.00  0.00    +0.060 A 
ATOM     28  C   LIG    1       -3.597   9.434   1.866  0.00  0.00    -0.030 A 
ATOM     29  C   LIG    1       -4.948   9.344   1.590  0.00  0.00    +0.250 A 
ATOM     30  N   LIG    1       -5.654   8.311   2.007  0.00  0.00    -0.480 NA
ATOM     31  C   LIG    1       -5.107   7.331   2.698  0.00  0.00    +0.250 A 
ENDBRANCH  25  26
ENDBRANCH  24  25
ENDBRANCH  22  24
ENDBRANCH  19  21
ENDBRANCH   1  19
TORSDOF 7
