REMARK  Name = ZINCpk00000e9DLr.0
REMARK                            x       y       z     vdW  Elec       q    Type
REMARK                         _______ _______ _______ _____ _____    ______ ____
ROOT
ATOM      1  C   LIG    1        3.855   3.743  -2.368  0.00  0.00    +0.190 A 
ATOM      2  N   LIG    1        3.410   4.969  -2.273  0.00  0.00    -0.290 NA
ATOM      3  N   LIG    1        2.419   5.011  -1.450  0.00  0.00    -0.280 NA
ATOM      4  C   LIG    1        2.193   3.820  -0.987  0.00  0.00    +0.160 A 
ATOM      5  C   LIG    1        1.148   3.378   0.003  0.00  0.00    +0.420 C 
ATOM      6  N   LIG    1        1.143   1.903   0.001  0.00  0.00    -0.620 N 
ATOM      7  C   LIG    1        2.439   1.206  -0.015  0.00  0.00    +0.310 C 
ATOM      8  C   LIG    1        3.177   1.541  -1.316  0.00  0.00    +0.300 C 
ATOM      9  C   LIG    1       -0.014   1.213   0.009  0.00  0.00    +0.630 C 
ATOM     10  O   LIG    1        0.002  -0.004   0.002  0.00  0.00    -0.520 OA
ATOM     11  N   LIG    1        3.093   2.981  -1.559  0.00  0.00    -0.470 N 
ENDROOT
BRANCH   9  12
ATOM     12  C   LIG    1       -1.294   1.929   0.019  0.00  0.00    -0.300 A 
ATOM     13  C   LIG    1       -2.020   2.332   1.156  0.00  0.00    +0.320 A 
ATOM     14  N   LIG    1       -1.792   2.201   2.463  0.00  0.00    -0.480 NA
ATOM     15  C   LIG    1       -2.642   2.675   3.347  0.00  0.00    +0.220 A 
ATOM     16  C   LIG    1       -3.805   3.327   2.922  0.00  0.00    -0.060 A 
ATOM     17  C   LIG    1       -4.044   3.464   1.593  0.00  0.00    +0.210 A 
ATOM     18  C   LIG    1       -5.289   4.162   1.109  0.00  0.00    +0.160 C 
ATOM     19  C   LIG    1       -2.364   2.517   4.819  0.00  0.00    +0.160 C 
ATOM     20  N   LIG    1       -3.144   2.962   0.701  0.00  0.00    -0.310 N 
ATOM     21  N   LIG    1       -3.114   2.949  -0.697  0.00  0.00    -0.300 NA
ATOM     22  C   LIG    1       -2.027   2.349  -1.106  0.00  0.00    +0.160 A 
ATOM     23  C   LIG    1       -1.627   2.139  -2.543  0.00  0.00    +0.180 C 
ENDBRANCH   9  12
BRANCH   1  25
ATOM     24  C   LIG    1        4.480   2.865  -4.602  0.00  0.00    +0.040 C 
ATOM     25  C   LIG    1        5.004   3.271  -3.222  0.00  0.00    +0.140 C 
ENDBRANCH   1  25
TORSDOF 2
