REMARK  Name = ZINCrH000004q8de.0
REMARK                            x       y       z     vdW  Elec       q    Type
REMARK                         _______ _______ _______ _____ _____    ______ ____
ROOT
ATOM      1  C   LIG    1        3.967   2.950  -1.283  0.00  0.00    +0.120 C 
ATOM      2  C   LIG    1        3.783   1.461  -1.139  0.00  0.00    +0.040 A 
ATOM      3  C   LIG    1        2.675   0.835  -1.554  0.00  0.00    -0.270 A 
ATOM      4  S   LIG    1        2.786  -0.890  -1.245  0.00  0.00    +0.200 S 
ATOM      5  C   LIG    1        4.383  -0.709  -0.530  0.00  0.00    +0.140 A 
ATOM      6  N   LIG    1        5.223  -1.608  -0.006  0.00  0.00    -0.530 NA
ATOM      7  C   LIG    1        6.388  -1.245   0.480  0.00  0.00    +0.400 A 
ATOM      8  N   LIG    1        6.790   0.013   0.479  0.00  0.00    -0.580 NA
ATOM      9  C   LIG    1        6.030   0.977  -0.017  0.00  0.00    +0.510 A 
ATOM     10  C   LIG    1        4.757   0.642  -0.558  0.00  0.00    -0.250 A 
ENDROOT
BRANCH   3  11
ATOM     11  C   LIG    1        1.528   1.497  -2.186  0.00  0.00    +0.600 C 
ATOM     12  N   LIG    1        0.460   0.772  -2.574  0.00  0.00    -0.720 N 
ATOM     13  H   LIG    1        0.450  -0.188  -2.435  0.00  0.00    +0.400 HD
ATOM     14  O   LIG    1        1.541   2.701  -2.360  0.00  0.00    -0.520 OA
BRANCH  12  15
ATOM     15  C   LIG    1       -0.682   1.432  -3.210  0.00  0.00    +0.230 C 
ATOM     16  C   LIG    1       -1.606   1.989  -2.131  0.00  0.00    +0.030 C 
ATOM     17  C   LIG    1       -2.652   2.912  -2.763  0.00  0.00    +0.120 C 
ATOM     18  S   LIG    1       -3.684   1.937  -3.898  0.00  0.00    -0.260 S 
ATOM     19  C   LIG    1       -2.443   1.149  -4.966  0.00  0.00    +0.120 C 
ATOM     20  C   LIG    1       -1.421   0.425  -4.086  0.00  0.00    +0.040 C 
ENDBRANCH  12  15
ENDBRANCH   3  11
BRANCH   9  21
ATOM     21  N   LIG    1        6.466   2.287  -0.010  0.00  0.00    -0.830 N 
ATOM     22  H   LIG    1        5.825   3.012  -0.075  0.00  0.00    +0.420 HD
ATOM     23  H   LIG    1        7.413   2.482   0.061  0.00  0.00    +0.410 HD
ENDBRANCH   9  21
BRANCH   7  24
ATOM     24  C   LIG    1        7.296  -2.300   1.058  0.00  0.00    +0.210 C 
BRANCH  24  25
ATOM     25  C   LIG    1        8.192  -2.841  -0.026  0.00  0.00    -0.090 A 
ATOM     26  C   LIG    1        7.790  -3.933  -0.772  0.00  0.00    +0.030 A 
ATOM     27  C   LIG    1        8.609  -4.427  -1.770  0.00  0.00    +0.000 A 
ATOM     28  C   LIG    1        9.834  -3.835  -2.016  0.00  0.00    +0.000 A 
ATOM     29  C   LIG    1       10.238  -2.747  -1.266  0.00  0.00    +0.000 A 
ATOM     30  C   LIG    1        9.417  -2.249  -0.271  0.00  0.00    +0.030 A 
ENDBRANCH  24  25
ENDBRANCH   7  24
TORSDOF 5
