REMARK  Name = ZINCtV00000L6jX2.0
REMARK                            x       y       z     vdW  Elec       q    Type
REMARK                         _______ _______ _______ _____ _____    ______ ____
ROOT
ATOM      1  C   LIG    1        3.102   4.343  -1.688  0.00  0.00    -0.540 A 
ATOM      2  C   LIG    1        3.862   3.530  -2.461  0.00  0.00    +0.050 A 
ATOM      3  O   LIG    1        3.946   4.103  -3.680  0.00  0.00    -0.180 OA
ATOM      4  C   LIG    1        3.249   5.256  -3.639  0.00  0.00    +0.270 A 
ATOM      5  N   LIG    1        2.741   5.398  -2.435  0.00  0.00    -0.390 NA
ENDROOT
BRANCH   4   6
ATOM      6  C   LIG    1        3.086   6.199  -4.754  0.00  0.00    -0.150 A 
ATOM      7  C   LIG    1        3.616   6.045  -6.000  0.00  0.00    +0.060 A 
ATOM      8  C   LIG    1        3.320   7.069  -6.875  0.00  0.00    +0.010 A 
ATOM      9  C   LIG    1        2.564   8.048  -6.370  0.00  0.00    -0.030 A 
ATOM     10  S   LIG    1        2.169   7.699  -4.693  0.00  0.00    +0.220 S 
ENDBRANCH   4   6
BRANCH   1  11
ATOM     11  S   LIG    1        2.670   4.067  -0.003  0.00  0.00    +2.610 S 
ATOM     12  O   LIG    1        3.660   3.196   0.528  0.00  0.00    -0.910 OA
ATOM     13  O   LIG    1        2.381   5.343   0.551  0.00  0.00    -0.910 OA
BRANCH  11  18
ATOM     14  C   LIG    1       -2.514   0.980   0.019  0.00  0.00    +0.090 C 
ATOM     15  C   LIG    1       -1.219   1.751   0.017  0.00  0.00    -0.020 A 
ATOM     16  C   LIG    1       -0.013   1.076   0.008  0.00  0.00    +0.000 A 
ATOM     17  C   LIG    1        1.175   1.783   0.000  0.00  0.00    +0.130 A 
ATOM     18  C   LIG    1        1.156   3.165   0.008  0.00  0.00    -0.670 A 
ATOM     19  C   LIG    1       -0.050   3.840   0.022  0.00  0.00    +0.140 A 
ATOM     20  C   LIG    1       -1.238   3.133   0.030  0.00  0.00    +0.000 A 
ENDBRANCH  11  18
ENDBRANCH   1  11
BRANCH   2  21
ATOM     21  S   LIG    1        4.599   2.007  -1.968  0.00  0.00    +0.090 S 
BRANCH  21  22
ATOM     22  C   LIG    1        5.457   1.463  -3.472  0.00  0.00    +0.120 C 
BRANCH  22  23
ATOM     23  C   LIG    1        6.149   0.151  -3.208  0.00  0.00    -0.080 A 
ATOM     24  C   LIG    1        5.484  -1.039  -3.435  0.00  0.00    +0.050 A 
ATOM     25  C   LIG    1        6.120  -2.243  -3.193  0.00  0.00    +0.030 A 
ATOM     26  C   LIG    1        7.420  -2.257  -2.724  0.00  0.00    +0.050 A 
ATOM     27  C   LIG    1        8.086  -1.067  -2.497  0.00  0.00    +0.030 A 
ATOM     28  C   LIG    1        7.453   0.138  -2.745  0.00  0.00    -0.020 A 
ATOM     29 CL   LIG    1        8.291   1.632  -2.467  0.00  0.00    -0.050 Cl
ENDBRANCH  22  23
ENDBRANCH  21  22
ENDBRANCH   2  21
TORSDOF 6
