REMARK  Name = ZINCrH000004mWjS.0
REMARK                            x       y       z     vdW  Elec       q    Type
REMARK                         _______ _______ _______ _____ _____    ______ ____
ROOT
ATOM      1  S   LIG    1       -1.767  -3.072  -0.651  0.00  0.00    +2.690 S 
ATOM      2  O   LIG    1       -0.956  -3.924   0.146  0.00  0.00    -0.940 OA
ATOM      3  O   LIG    1       -2.940  -3.517  -1.319  0.00  0.00    -0.960 OA
ENDROOT
BRANCH   1   7
ATOM      4  C   LIG    1       -3.048   0.356   2.023  0.00  0.00    +0.160 A 
ATOM      5  C   LIG    1       -3.848  -0.035   0.962  0.00  0.00    -0.070 A 
ATOM      6  C   LIG    1       -3.454  -1.082   0.148  0.00  0.00    +0.160 A 
ATOM      7  C   LIG    1       -2.262  -1.740   0.390  0.00  0.00    -0.700 A 
ATOM      8  C   LIG    1       -1.461  -1.359   1.450  0.00  0.00    +0.180 A 
ATOM      9  C   LIG    1       -1.847  -0.306   2.267  0.00  0.00    +0.100 A 
BRANCH   9  10
ATOM     10  N   LIG    1       -1.034   0.086   3.339  0.00  0.00    -0.660 N 
ATOM     11  H   LIG    1       -1.071   0.997   3.668  0.00  0.00    +0.420 HD
ATOM     12  C   LIG    1       -0.201  -0.805   3.913  0.00  0.00    +0.510 C 
ATOM     13  O   LIG    1       -0.093  -1.921   3.450  0.00  0.00    -0.520 OA
ATOM     14  C   LIG    1        0.597  -0.414   5.131  0.00  0.00    +0.110 C 
ENDBRANCH   9  10
BRANCH   4  16
ATOM     15  C   LIG    1       -4.678   2.017   2.514  0.00  0.00    +0.250 C 
ATOM     16  O   LIG    1       -3.434   1.385   2.824  0.00  0.00    -0.310 OA
ENDBRANCH   4  16
ENDBRANCH   1   7
BRANCH   1  17
ATOM     17  N   LIG    1       -0.776  -2.441  -1.818  0.00  0.00    -1.110 NA
ATOM     18  H   LIG    1       -1.054  -2.449  -2.747  0.00  0.00    +0.420 HD
BRANCH  17  19
ATOM     19  C   LIG    1        0.521  -1.869  -1.446  0.00  0.00    +0.290 C 
BRANCH  19  20
ATOM     20  C   LIG    1        1.591  -2.921  -1.579  0.00  0.00    -0.100 A 
ATOM     21  C   LIG    1        1.564  -3.803  -2.643  0.00  0.00    +0.020 A 
ATOM     22  C   LIG    1        2.548  -4.766  -2.767  0.00  0.00    +0.000 A 
ATOM     23  C   LIG    1        3.554  -4.853  -1.823  0.00  0.00    +0.000 A 
ATOM     24  C   LIG    1        3.577  -3.974  -0.756  0.00  0.00    +0.000 A 
ATOM     25  C   LIG    1        2.596  -3.009  -0.634  0.00  0.00    +0.020 A 
ENDBRANCH  19  20
BRANCH  19  26
ATOM     26  C   LIG    1        0.844  -0.693  -2.371  0.00  0.00    +0.050 C 
BRANCH  26  27
ATOM     27  C   LIG    1       -0.188   0.417  -2.164  0.00  0.00    -0.030 C 
ATOM     28  C   LIG    1       -0.042   0.993  -0.754  0.00  0.00    +0.010 C 
ATOM     29  C   LIG    1        0.042   1.526  -3.193  0.00  0.00    +0.020 C 
ENDBRANCH  26  27
ENDBRANCH  19  26
ENDBRANCH  17  19
ENDBRANCH   1  17
TORSDOF 8
