REMARK  Name = ZINCrH000004q7SJ.0
REMARK                            x       y       z     vdW  Elec       q    Type
REMARK                         _______ _______ _______ _____ _____    ______ ____
ROOT
ATOM      1  C   LIG    1       -1.239   2.244   0.012  0.00  0.00    +0.190 C 
ATOM      2  C   LIG    1       -0.017   1.362   0.003  0.00  0.00    +0.140 A 
ATOM      3  C   LIG    1        0.002  -0.004  -0.001  0.00  0.00    -0.110 A 
ATOM      4  N   LIG    1        1.282  -0.412  -0.015  0.00  0.00    -0.200 NA
ATOM      5  N   LIG    1        2.061   0.614  -0.020  0.00  0.00    -0.060 NA
ATOM      6  N   LIG    1        1.268   1.770  -0.009  0.00  0.00    -0.360 N 
ENDROOT
BRANCH   3   7
ATOM      7  C   LIG    1       -1.183  -0.882   0.008  0.00  0.00    +0.620 C 
ATOM      8  N   LIG    1       -1.033  -2.217  -0.102  0.00  0.00    -0.540 N 
ATOM      9  C   LIG    1        0.254  -2.918  -0.135  0.00  0.00    +0.290 C 
ATOM     10  C   LIG    1       -0.102  -4.408  -0.267  0.00  0.00    +0.110 C 
ATOM     11  C   LIG    1       -1.613  -4.436  -0.308  0.00  0.00    -0.130 A 
ATOM     12  C   LIG    1       -2.496  -5.493  -0.421  0.00  0.00    +0.070 A 
ATOM     13  C   LIG    1       -3.859  -5.260  -0.436  0.00  0.00    +0.010 A 
ATOM     14  C   LIG    1       -4.337  -3.966  -0.337  0.00  0.00    -0.010 A 
ATOM     15  C   LIG    1       -3.458  -2.908  -0.223  0.00  0.00    +0.030 A 
ATOM     16 CL   LIG    1       -6.048  -3.671  -0.355  0.00  0.00    -0.060 Cl
ATOM     17  C   LIG    1       -2.081  -3.135  -0.208  0.00  0.00    +0.160 A 
ATOM     18  O   LIG    1       -2.295  -0.403   0.115  0.00  0.00    -0.510 OA
ENDBRANCH   3   7
BRANCH   6  19
ATOM     19  C   LIG    1        1.744   3.156  -0.010  0.00  0.00    +0.420 C 
BRANCH  19  20
ATOM     20  C   LIG    1        1.921   3.628   1.410  0.00  0.00    -0.170 A 
ATOM     21  C   LIG    1        3.180   3.646   1.980  0.00  0.00    +0.120 A 
ATOM     22  C   LIG    1        3.344   4.080   3.282  0.00  0.00    -0.010 A 
ATOM     23  C   LIG    1        2.247   4.495   4.017  0.00  0.00    +0.150 A 
ATOM     24  C   LIG    1        0.986   4.477   3.447  0.00  0.00    -0.030 A 
ATOM     25  F   LIG    1        2.408   4.919   5.290  0.00  0.00    -0.120 F 
ATOM     26  C   LIG    1        0.823   4.048   2.142  0.00  0.00    +0.150 A 
ATOM     27  F   LIG    1       -0.407   4.035   1.583  0.00  0.00    -0.120 F 
ENDBRANCH  19  20
ENDBRANCH   6  19
TORSDOF 3
