REMARK  Name = ZINCpe00000gME8J.0
REMARK                            x       y       z     vdW  Elec       q    Type
REMARK                         _______ _______ _______ _____ _____    ______ ____
ROOT
ATOM      1  C   LIG    1        1.185  -0.395  -5.157  0.00  0.00    +0.070 C 
ATOM      2  C   LIG    1        0.262   0.825  -5.189  0.00  0.00    +0.140 C 
ENDROOT
BRANCH   2   3
ATOM      3  N   LIG    1        0.891   1.894  -5.976  0.00  0.00    -0.520 NA
ATOM      4  C   LIG    1        0.003   3.061  -6.084  0.00  0.00    +0.180 C 
ATOM      5  C   LIG    1        0.724   4.179  -6.841  0.00  0.00    +0.210 C 
ATOM      6  N   LIG    1        1.115   3.693  -8.171  0.00  0.00    -0.490 N 
ATOM      7  C   LIG    1        2.003   2.526  -8.063  0.00  0.00    +0.200 C 
ATOM      8  C   LIG    1        1.282   1.409  -7.307  0.00  0.00    +0.190 C 
BRANCH   6   9
ATOM      9  C   LIG    1        1.713   4.709  -8.919  0.00  0.00    +0.110 A 
ATOM     10  C   LIG    1        2.989   4.532  -9.440  0.00  0.00    -0.040 A 
ATOM     11  C   LIG    1        3.576   5.537 -10.183  0.00  0.00    +0.030 A 
ATOM     12  C   LIG    1        2.899   6.724 -10.401  0.00  0.00    -0.030 A 
ATOM     13  C   LIG    1        1.631   6.905  -9.880  0.00  0.00    +0.020 A 
ATOM     14  C   LIG    1        1.036   5.902  -9.140  0.00  0.00    -0.020 A 
ENDBRANCH   6   9
ENDBRANCH   2   3
BRANCH   2  15
ATOM     15  C   LIG    1        0.021   1.311  -3.783  0.00  0.00    +0.520 C 
ATOM     16  N   LIG    1       -0.950   0.752  -3.034  0.00  0.00    -0.610 N 
ATOM     17  C   LIG    1       -1.709  -0.389  -3.551  0.00  0.00    +0.280 C 
ATOM     18  O   LIG    1        0.702   2.205  -3.326  0.00  0.00    -0.510 OA
BRANCH  16  19
ATOM     19  C   LIG    1       -1.246   1.287  -1.702  0.00  0.00    +0.270 C 
ATOM     20  C   LIG    1       -1.032   0.197  -0.637  0.00  0.00    +0.060 C 
ATOM     21  C   LIG    1       -1.668   0.669   0.685  0.00  0.00    -0.310 C 
ATOM     22  S   LIG    1       -3.023   1.790   0.192  0.00  0.00    +2.400 S 
ATOM     23  O   LIG    1       -4.272   1.186   0.500  0.00  0.00    -0.930 OA
ATOM     24  O   LIG    1       -2.740   3.104   0.653  0.00  0.00    -0.930 OA
ATOM     25  C   LIG    1       -2.737   1.704  -1.616  0.00  0.00    -0.330 C 
ENDBRANCH  16  19
ENDBRANCH   2  15
TORSDOF 4
