REMARK  Name = ZINCpk000004APeI.0
REMARK                            x       y       z     vdW  Elec       q    Type
REMARK                         _______ _______ _______ _____ _____    ______ ____
ROOT
ATOM      1  C   LIG    1        1.768   2.992   0.820  0.00  0.00    +0.550 C 
ATOM      2  N   LIG    1        1.419   1.869   0.161  0.00  0.00    -0.550 N 
ATOM      3  C   LIG    1        0.101   1.258   0.376  0.00  0.00    +0.280 C 
ATOM      4  C   LIG    1        0.306  -0.255   0.532  0.00  0.00    +0.020 C 
ATOM      5  C   LIG    1        0.875  -0.814  -0.771  0.00  0.00    +0.090 C 
ATOM      6  C   LIG    1        2.081  -0.020  -1.202  0.00  0.00    -0.130 A 
ATOM      7  C   LIG    1        2.976  -0.594  -2.082  0.00  0.00    +0.110 A 
ATOM      8  C   LIG    1        4.102   0.116  -2.503  0.00  0.00    -0.160 A 
ATOM      9  C   LIG    1        4.321   1.414  -2.032  0.00  0.00    +0.060 A 
ATOM     10  C   LIG    1        3.426   1.982  -1.155  0.00  0.00    +0.010 A 
ATOM     11  C   LIG    1        2.305   1.270  -0.736  0.00  0.00    +0.190 A 
ATOM     12  O   LIG    1        2.899   3.427   0.724  0.00  0.00    -0.520 OA
ENDROOT
BRANCH   8  13
ATOM     13  C   LIG    1        5.057  -0.501  -3.443  0.00  0.00    +0.570 C 
ATOM     14  N   LIG    1        6.143   0.187  -3.849  0.00  0.00    -0.700 N 
ATOM     15  H   LIG    1        6.296   1.088  -3.523  0.00  0.00    +0.410 HD
ATOM     16  O   LIG    1        4.865  -1.630  -3.852  0.00  0.00    -0.530 OA
BRANCH  14  17
ATOM     17  C   LIG    1        7.091  -0.426  -4.782  0.00  0.00    +0.320 C 
ATOM     18  C   LIG    1        8.388  -0.882  -4.109  0.00  0.00    -0.340 C 
ATOM     19  S   LIG    1        9.301  -0.527  -5.636  0.00  0.00    +2.410 S 
ATOM     20  O   LIG    1       10.536   0.135  -5.399  0.00  0.00    -0.910 OA
ATOM     21  O   LIG    1        9.163  -1.552  -6.610  0.00  0.00    -0.900 OA
ATOM     22  C   LIG    1        7.881   0.601  -5.598  0.00  0.00    -0.550 C 
ATOM     23  C   LIG    1        8.160   1.894  -4.830  0.00  0.00    +0.100 C 
ATOM     24  C   LIG    1        7.281   0.859  -6.982  0.00  0.00    +0.100 C 
ENDBRANCH  14  17
ENDBRANCH   8  13
BRANCH   1  26
ATOM     25  C   LIG    1        1.151   4.736   2.391  0.00  0.00    +0.160 C 
ATOM     26  C   LIG    1        0.780   3.691   1.656  0.00  0.00    -0.100 C 
ENDBRANCH   1  26
TORSDOF 3
