REMARK  Name = ZINCkj000005iH6r.0
REMARK                            x       y       z     vdW  Elec       q    Type
REMARK                         _______ _______ _______ _____ _____    ______ ____
ROOT
ATOM      1  N   LIG    1       -3.301   0.909   1.403  0.00  0.00    -0.510 N 
ATOM      2  H   LIG    1       -2.615   0.636   2.092  0.00  0.00    +0.420 HD
ATOM      3  H   LIG    1       -2.883   0.887   0.485  0.00  0.00    +0.430 HD
ENDROOT
BRANCH   1   4
ATOM      4  C   LIG    1       -3.773   2.269   1.694  0.00  0.00    +0.330 C 
BRANCH   4   8
ATOM      5  C   LIG    1       -0.558   4.991   1.327  0.00  0.00    +0.360 A 
ATOM      6  C   LIG    1       -1.335   4.732   0.205  0.00  0.00    -0.030 A 
ATOM      7  C   LIG    1       -2.390   3.841   0.307  0.00  0.00    +0.140 A 
ATOM      8  C   LIG    1       -2.633   3.241   1.535  0.00  0.00    -0.270 A 
ATOM      9  C   LIG    1       -1.816   3.541   2.607  0.00  0.00    +0.350 A 
ATOM     10  N   LIG    1       -0.819   4.395   2.479  0.00  0.00    -0.530 NA
BRANCH   5  12
ATOM     11  C   LIG    1        1.239   6.086   2.429  0.00  0.00    +0.280 C 
ATOM     12  O   LIG    1        0.478   5.862   1.240  0.00  0.00    -0.290 OA
ENDBRANCH   5  12
ENDBRANCH   4   8
ENDBRANCH   1   4
BRANCH   1  13
ATOM     13  C   LIG    1       -4.436  -0.024   1.447  0.00  0.00    +0.190 C 
BRANCH  13  14
ATOM     14  C   LIG    1       -4.989  -0.087   2.872  0.00  0.00    -0.010 C 
ATOM     15  C   LIG    1       -3.895  -0.577   3.825  0.00  0.00    -0.010 C 
ATOM     16  C   LIG    1       -4.481  -0.714   5.233  0.00  0.00    +0.230 C 
ATOM     17  O   LIG    1       -5.593  -1.610   5.202  0.00  0.00    -0.370 OA
ATOM     18  C   LIG    1       -6.667  -1.178   4.363  0.00  0.00    +0.230 C 
ATOM     19  C   LIG    1       -6.170  -1.062   2.920  0.00  0.00    +0.030 C 
ENDBRANCH  13  14
BRANCH  13  20
ATOM     20  C   LIG    1       -3.968  -1.416   1.019  0.00  0.00    +0.070 C 
BRANCH  20  21
ATOM     21  C   LIG    1       -3.527  -1.378  -0.446  0.00  0.00    +0.170 C 
BRANCH  21  22
ATOM     22  O   LIG    1       -3.204  -2.701  -0.880  0.00  0.00    -0.560 OA
ATOM     23  H   LIG    1       -2.916  -2.753  -1.802  0.00  0.00    +0.400 HD
ENDBRANCH  21  22
ENDBRANCH  20  21
ENDBRANCH  13  20
ENDBRANCH   1  13
TORSDOF 8
