REMARK  Name = ZINCpe00000VVH45.0
REMARK                            x       y       z     vdW  Elec       q    Type
REMARK                         _______ _______ _______ _____ _____    ______ ____
ROOT
ATOM      1  N   LIG    1       10.099  -4.272   4.524  0.00  0.00    -0.570 N 
ATOM      2  C   LIG    1        9.424  -4.922   3.566  0.00  0.00    +0.710 C 
ATOM      3  N   LIG    1        8.662  -4.093   2.822  0.00  0.00    -0.720 N 
ATOM      4  H   LIG    1        8.090  -4.337   2.077  0.00  0.00    +0.440 HD
ATOM      5  C   LIG    1        8.872  -2.755   3.367  0.00  0.00    +0.090 C 
ATOM      6  C   LIG    1        9.425  -1.788   2.305  0.00  0.00    +0.070 C 
ATOM      7  C   LIG    1        8.119  -1.265   1.651  0.00  0.00    +0.210 C 
ATOM      8  N   LIG    1        7.146  -1.175   2.762  0.00  0.00    -0.500 NA
ATOM      9  C   LIG    1        7.565  -2.106   3.830  0.00  0.00    +0.240 C 
ATOM     10  O   LIG    1        9.491  -6.122   3.387  0.00  0.00    -0.530 OA
ATOM     11  C   LIG    1        9.841  -2.945   4.500  0.00  0.00    +0.540 C 
ATOM     12  O   LIG    1       10.294  -2.092   5.234  0.00  0.00    -0.450 OA
ENDROOT
BRANCH   1  14
ATOM     13  C   LIG    1       10.226  -5.955   6.294  0.00  0.00    +0.050 C 
ATOM     14  C   LIG    1       11.003  -4.918   5.479  0.00  0.00    +0.250 C 
ATOM     15  C   LIG    1       12.136  -5.612   4.719  0.00  0.00    +0.050 C 
ENDBRANCH   1  14
BRANCH   8  16
ATOM     16  C   LIG    1        5.787  -1.484   2.298  0.00  0.00    +0.210 C 
BRANCH  16  17
ATOM     17  C   LIG    1        5.301  -0.380   1.395  0.00  0.00    +0.520 C 
ATOM     18  N   LIG    1        4.071  -0.449   0.848  0.00  0.00    -0.730 N 
ATOM     19  H   LIG    1        3.499  -1.210   1.034  0.00  0.00    +0.400 HD
ATOM     20  O   LIG    1        6.016   0.572   1.162  0.00  0.00    -0.510 OA
BRANCH  18  21
ATOM     21  C   LIG    1        3.599   0.625  -0.030  0.00  0.00    +0.350 C 
ATOM     22  C   LIG    1        4.089   0.370  -1.457  0.00  0.00    +0.040 C 
BRANCH  21  23
ATOM     23  C   LIG    1        2.092   0.660  -0.014  0.00  0.00    -0.030 A 
ATOM     24  C   LIG    1        1.331   1.769  -0.001  0.00  0.00    -0.040 A 
ATOM     25  C   LIG    1       -0.016   1.341   0.009  0.00  0.00    -0.060 A 
ATOM     26  C   LIG    1        0.002  -0.004   0.002  0.00  0.00    +0.180 A 
ATOM     27  O   LIG    1        1.282  -0.411  -0.012  0.00  0.00    -0.180 OA
ENDBRANCH  21  23
ENDBRANCH  18  21
ENDBRANCH  16  17
ENDBRANCH   8  16
TORSDOF 5
