REMARK  Name = ZINCpk00000kiaEo.0
REMARK                            x       y       z     vdW  Elec       q    Type
REMARK                         _______ _______ _______ _____ _____    ______ ____
ROOT
ATOM      1  N   LIG    1        2.401   1.377  -0.013  0.00  0.00    -0.480 N 
ATOM      2  C   LIG    1        2.560   0.607  -1.254  0.00  0.00    +0.180 C 
ATOM      3  C   LIG    1        3.977   0.027  -1.313  0.00  0.00    +0.290 C 
ATOM      4  N   LIG    1        4.224  -0.730  -0.077  0.00  0.00    -0.610 N 
ATOM      5  C   LIG    1        3.955  -0.069   1.209  0.00  0.00    +0.300 C 
ATOM      6  C   LIG    1        4.685  -1.996  -0.120  0.00  0.00    +0.510 C 
ATOM      7  O   LIG    1        4.883  -2.605   0.909  0.00  0.00    -0.520 OA
ATOM      8  C   LIG    1        2.539   0.515   1.169  0.00  0.00    +0.180 C 
ENDROOT
BRANCH   6   9
ATOM      9  C   LIG    1        4.954  -2.654  -1.449  0.00  0.00    +0.230 C 
ATOM     10  C   LIG    1        3.635  -3.143  -2.048  0.00  0.00    +0.040 C 
ATOM     11  C   LIG    1        3.943  -4.002  -3.280  0.00  0.00    +0.050 C 
ATOM     12  C   LIG    1        4.636  -5.284  -2.814  0.00  0.00    +0.070 C 
ATOM     13  C   LIG    1        5.758  -4.947  -1.875  0.00  0.00    +0.520 C 
ATOM     14  O   LIG    1        6.606  -5.788  -1.667  0.00  0.00    -0.550 OA
ATOM     15  N   LIG    1        5.868  -3.773  -1.256  0.00  0.00    -0.590 N 
ATOM     16  C   LIG    1        6.984  -3.596  -0.324  0.00  0.00    +0.290 C 
ENDBRANCH   6   9
BRANCH   1  23
ATOM     17  C   LIG    1        1.152   3.450   0.010  0.00  0.00    +0.180 A 
ATOM     18  C   LIG    1       -0.061   4.119   0.025  0.00  0.00    -0.080 A 
ATOM     19  C   LIG    1       -1.245   3.405   0.032  0.00  0.00    +0.090 A 
ATOM     20  C   LIG    1       -1.224   2.023   0.019  0.00  0.00    -0.050 A 
ATOM     21  C   LIG    1       -0.016   1.347   0.009  0.00  0.00    +0.110 A 
ATOM     22  F   LIG    1        0.002  -0.004   0.002  0.00  0.00    -0.130 F 
ATOM     23  C   LIG    1        1.176   2.058   0.002  0.00  0.00    +0.010 A 
BRANCH  17  25
ATOM     24  C   LIG    1        2.216   5.577   0.011  0.00  0.00    +0.240 C 
ATOM     25  O   LIG    1        2.317   4.152   0.003  0.00  0.00    -0.290 OA
ENDBRANCH  17  25
ENDBRANCH   1  23
TORSDOF 3
