REMARK  Name = ZINCpk000000nlI4.0
REMARK                            x       y       z     vdW  Elec       q    Type
REMARK                         _______ _______ _______ _____ _____    ______ ____
ROOT
ATOM      1  C   LIG    1       -6.006   4.653   1.708  0.00  0.00    +0.520 C 
ATOM      2  N   LIG    1       -4.920   4.541   0.917  0.00  0.00    -0.620 N 
ATOM      3  C   LIG    1       -4.844   3.497  -0.116  0.00  0.00    +0.300 C 
ATOM      4  C   LIG    1       -3.519   2.744   0.050  0.00  0.00    +0.220 C 
ATOM      5  N   LIG    1       -2.409   3.706   0.044  0.00  0.00    -0.460 N 
ATOM      6  C   LIG    1       -2.499   4.630   1.183  0.00  0.00    +0.210 C 
ATOM      7  C   LIG    1       -3.781   5.460   1.063  0.00  0.00    +0.300 C 
ATOM      8  O   LIG    1       -6.936   3.887   1.573  0.00  0.00    -0.530 OA
ENDROOT
BRANCH   5   9
ATOM      9  C   LIG    1       -1.188   3.054   0.029  0.00  0.00    +0.490 A 
ATOM     10  N   LIG    1       -1.162   1.730   0.017  0.00  0.00    -0.550 NA
ATOM     11  C   LIG    1       -0.013   1.076   0.008  0.00  0.00    +0.350 A 
ATOM     12  C   LIG    1        1.173   1.793   0.001  0.00  0.00    -0.110 A 
ATOM     13  C   LIG    1        1.110   3.178   0.008  0.00  0.00    +0.350 A 
ATOM     14  N   LIG    1       -0.073   3.770   0.022  0.00  0.00    -0.530 NA
ENDBRANCH   5   9
BRANCH   1  15
ATOM     15  C   LIG    1       -6.063   5.731   2.760  0.00  0.00    +0.070 C 
BRANCH  15  16
ATOM     16  C   LIG    1       -7.392   5.638   3.512  0.00  0.00    +0.220 C 
BRANCH  16  20
ATOM     17  C   LIG    1       -7.766   8.529   5.608  0.00  0.00    +0.180 A 
ATOM     18  N   LIG    1       -7.222   7.663   6.410  0.00  0.00    -0.380 NA
ATOM     19  O   LIG    1       -7.037   6.613   5.832  0.00  0.00    +0.080 OA
ATOM     20  C   LIG    1       -7.450   6.716   4.565  0.00  0.00    +0.180 A 
ATOM     21  N   LIG    1       -7.919   7.931   4.414  0.00  0.00    -0.470 NA
BRANCH  17  23
ATOM     22  C   LIG    1       -9.659  10.125   5.741  0.00  0.00    +0.060 C 
ATOM     23  C   LIG    1       -8.155   9.943   5.954  0.00  0.00    +0.020 C 
ATOM     24  C   LIG    1       -7.391  10.917   5.054  0.00  0.00    +0.060 C 
ATOM     25  C   LIG    1       -7.810  10.224   7.418  0.00  0.00    +0.050 C 
ENDBRANCH  17  23
ENDBRANCH  16  20
ENDBRANCH  15  16
ENDBRANCH   1  15
TORSDOF 5
