REMARK  Name = ZINCrD00000hQ50u.0
REMARK                            x       y       z     vdW  Elec       q    Type
REMARK                         _______ _______ _______ _____ _____    ______ ____
ROOT
ATOM      1  C   LIG    1       -0.718   1.328   1.469  0.00  0.00    +0.250 C 
ATOM      2  C   LIG    1       -1.425   0.026   1.825  0.00  0.00    +0.010 C 
ATOM      3  C   LIG    1       -2.724  -0.157   1.159  0.00  0.00    +0.010 C 
ATOM      4  C   LIG    1       -2.536  -0.228  -0.377  0.00  0.00    +0.270 C 
ATOM      5  N   LIG    1       -2.186   1.081  -0.883  0.00  0.00    -0.610 N 
ATOM      6  C   LIG    1       -0.789   1.537  -1.018  0.00  0.00    +0.270 C 
ATOM      7  C   LIG    1       -3.177   1.918  -1.248  0.00  0.00    +0.510 C 
ATOM      8  O   LIG    1       -2.912   3.022  -1.676  0.00  0.00    -0.540 OA
ATOM      9  C   LIG    1        0.070   1.141   0.196  0.00  0.00    +0.020 C 
ENDROOT
BRANCH   1  10
ATOM     10  N   LIG    1        0.191   1.698   2.557  0.00  0.00    -0.600 N 
ATOM     11  C   LIG    1        1.190   0.866   2.912  0.00  0.00    +0.590 C 
ATOM     12  O   LIG    1        1.304  -0.215   2.367  0.00  0.00    -0.540 OA
BRANCH  11  13
ATOM     13  C   LIG    1        2.144   1.267   3.962  0.00  0.00    -0.250 A 
ATOM     14  C   LIG    1        3.389   0.755   4.184  0.00  0.00    +0.270 A 
ATOM     15  O   LIG    1        3.927   1.391   5.229  0.00  0.00    -0.170 OA
ATOM     16  C   LIG    1        3.081   2.313   5.715  0.00  0.00    +0.180 A 
ATOM     17  C   LIG    1        1.956   2.306   4.985  0.00  0.00    -0.040 A 
ENDBRANCH  11  13
BRANCH  10  19
ATOM     18  C   LIG    1       -0.918   2.771   4.455  0.00  0.00    +0.010 C 
ATOM     19  C   LIG    1        0.014   2.972   3.258  0.00  0.00    +0.270 C 
ENDBRANCH  10  19
ENDBRANCH   1  10
BRANCH   7  20
ATOM     20  C   LIG    1       -4.615   1.484  -1.123  0.00  0.00    +0.050 C 
BRANCH  20  21
ATOM     21  C   LIG    1       -5.532   2.612  -1.601  0.00  0.00    +0.040 C 
BRANCH  21  22
ATOM     22  C   LIG    1       -6.992   2.171  -1.474  0.00  0.00    -0.020 C 
ATOM     23  C   LIG    1       -7.259   1.005  -2.431  0.00  0.00    -0.010 C 
ATOM     24  C   LIG    1       -8.740   0.624  -2.356  0.00  0.00    +0.200 C 
ATOM     25  O   LIG    1       -9.542   1.763  -2.675  0.00  0.00    -0.380 OA
ATOM     26  C   LIG    1       -9.368   2.867  -1.784  0.00  0.00    +0.200 C 
ATOM     27  C   LIG    1       -7.913   3.339  -1.837  0.00  0.00    -0.010 C 
ENDBRANCH  21  22
ENDBRANCH  20  21
ENDBRANCH   7  20
TORSDOF 6
