REMARK  Name = ZINCpk000000nwi9.0
REMARK                            x       y       z     vdW  Elec       q    Type
REMARK                         _______ _______ _______ _____ _____    ______ ____
ROOT
ATOM      1  C   LIG    1        3.158  -2.798   1.460  0.00  0.00    +0.480 C 
ENDROOT
BRANCH   1   6
ATOM      2  C   LIG    1        0.739  -0.012   1.032  0.00  0.00    +0.220 C 
ATOM      3  N   LIG    1        2.064   0.617   0.888  0.00  0.00    -0.720 N 
ATOM      4  H   LIG    1        2.245   1.554   0.718  0.00  0.00    +0.440 HD
ATOM      5  C   LIG    1        2.973  -0.364   1.036  0.00  0.00    +0.700 C 
ATOM      6  N   LIG    1        2.408  -1.556   1.260  0.00  0.00    -0.570 N 
ATOM      7  O   LIG    1        4.174  -0.186   0.974  0.00  0.00    -0.540 OA
ATOM      8  C   LIG    1        1.063  -1.472   1.280  0.00  0.00    +0.530 C 
ATOM      9  O   LIG    1        0.276  -2.376   1.460  0.00  0.00    -0.450 OA
BRANCH   2  10
ATOM     10  C   LIG    1       -0.076   0.148  -0.253  0.00  0.00    +0.050 C 
BRANCH  10  12
ATOM     11  C   LIG    1       -2.215   0.482   0.995  0.00  0.00    +0.020 C 
ATOM     12  C   LIG    1       -1.490  -0.392  -0.030  0.00  0.00    -0.020 C 
ATOM     13  C   LIG    1       -2.258  -0.370  -1.354  0.00  0.00    +0.020 C 
ENDBRANCH  10  12
ENDBRANCH   2  10
ENDBRANCH   1   6
BRANCH   1  14
ATOM     14  N   LIG    1        3.444  -2.973   2.890  0.00  0.00    -0.550 NA
ATOM     15  C   LIG    1        4.603  -2.168   3.298  0.00  0.00    +0.190 C 
ATOM     16  C   LIG    1        4.757  -2.235   4.821  0.00  0.00    +0.300 C 
ATOM     17  N   LIG    1        4.809  -3.649   5.223  0.00  0.00    -0.600 N 
ATOM     18  C   LIG    1        3.753  -4.550   4.738  0.00  0.00    +0.310 C 
ATOM     19  C   LIG    1        5.799  -4.106   6.016  0.00  0.00    +0.660 C 
ATOM     20  O   LIG    1        5.826  -5.277   6.339  0.00  0.00    -0.570 OA
ATOM     21  C   LIG    1        3.639  -4.392   3.218  0.00  0.00    +0.200 C 
BRANCH  19  22
ATOM     22  O   LIG    1        6.757  -3.266   6.450  0.00  0.00    -0.360 OA
BRANCH  22  23
ATOM     23  C   LIG    1        7.791  -3.828   7.301  0.00  0.00    +0.140 C 
ATOM     24  C   LIG    1        7.152  -4.410   8.563  0.00  0.00    +0.040 C 
ATOM     25  C   LIG    1        8.782  -2.730   7.691  0.00  0.00    +0.080 C 
ATOM     26  C   LIG    1        8.527  -4.935   6.544  0.00  0.00    +0.040 C 
ENDBRANCH  22  23
ENDBRANCH  19  22
ENDBRANCH   1  14
TORSDOF 6
