REMARK  Name = ZINCrD000006EwsA.0
REMARK                            x       y       z     vdW  Elec       q    Type
REMARK                         _______ _______ _______ _____ _____    ______ ____
ROOT
ATOM      1  C   LIG    1        3.295   2.126   0.827  0.00  0.00    -0.030 C 
ATOM      2  C   LIG    1        3.314   3.590   0.379  0.00  0.00    +0.040 C 
ATOM      3  C   LIG    1        1.893   4.154   0.415  0.00  0.00    +0.020 C 
ATOM      4  C   LIG    1        1.008   3.364  -0.554  0.00  0.00    +0.260 C 
ATOM      5  N   LIG    1        1.099   1.936  -0.220  0.00  0.00    -0.600 N 
ATOM      6  C   LIG    1       -0.014   1.212   0.009  0.00  0.00    +0.570 C 
ATOM      7  O   LIG    1        0.069   0.016   0.211  0.00  0.00    -0.520 OA
ATOM      8  C   LIG    1        2.428   1.314  -0.132  0.00  0.00    +0.290 C 
ENDROOT
BRANCH   6   9
ATOM      9  C   LIG    1       -1.334   1.869   0.008  0.00  0.00    -0.110 A 
ATOM     10  C   LIG    1       -1.747   2.629  -1.079  0.00  0.00    +0.090 A 
ATOM     11  C   LIG    1       -2.993   3.242  -1.080  0.00  0.00    -0.190 A 
ATOM     12  C   LIG    1       -3.846   3.136  -0.025  0.00  0.00    +0.130 A 
ATOM     13  C   LIG    1       -3.492   2.388   1.110  0.00  0.00    -0.060 A 
ATOM     14  C   LIG    1       -4.362   2.269   2.207  0.00  0.00    +0.050 A 
ATOM     15  C   LIG    1       -3.983   1.535   3.290  0.00  0.00    +0.020 A 
ATOM     16  C   LIG    1       -2.745   0.899   3.329  0.00  0.00    +0.040 A 
ATOM     17  C   LIG    1       -1.877   0.994   2.282  0.00  0.00    +0.030 A 
ATOM     18  C   LIG    1       -2.233   1.740   1.153  0.00  0.00    +0.000 A 
BRANCH  11  19
ATOM     19  C   LIG    1       -3.409   4.053  -2.280  0.00  0.00    +0.510 C 
ATOM     20  F   LIG    1       -3.427   3.234  -3.414  0.00  0.00    -0.170 F 
ATOM     21  F   LIG    1       -2.499   5.098  -2.474  0.00  0.00    -0.170 F 
ATOM     22  F   LIG    1       -4.686   4.582  -2.066  0.00  0.00    -0.170 F 
ENDBRANCH  11  19
ENDBRANCH   6   9
BRANCH   1  23
ATOM     23  C   LIG    1        4.722   1.572   0.823  0.00  0.00    +0.280 C 
BRANCH  23  28
ATOM     24  N   LIG    1        5.869  -1.732   1.956  0.00  0.00    -0.870 N 
ATOM     25  H   LIG    1        6.699  -2.229   2.023  0.00  0.00    +0.420 HD
ATOM     26  H   LIG    1        5.037  -2.136   2.248  0.00  0.00    +0.400 HD
ATOM     27  C   LIG    1        5.872  -0.480   1.458  0.00  0.00    +0.710 C 
ATOM     28  N   LIG    1        4.718   0.211   1.364  0.00  0.00    -0.750 N 
ATOM     29  H   LIG    1        3.886  -0.193   1.656  0.00  0.00    +0.400 HD
ATOM     30  O   LIG    1        6.915   0.027   1.092  0.00  0.00    -0.590 OA
ENDBRANCH  23  28
ENDBRANCH   1  23
TORSDOF 4
