REMARK  Name = ZINCvU0000000HOf.0
REMARK                            x       y       z     vdW  Elec       q    Type
REMARK                         _______ _______ _______ _____ _____    ______ ____
ROOT
ATOM      1  C   LIG    1        7.828   0.150  -0.008  0.00  0.00    +0.160 A 
ATOM      2  C   LIG    1        7.810   1.425   0.401  0.00  0.00    -0.040 A 
ATOM      3  S   LIG    1        6.155   1.995   0.120  0.00  0.00    -0.000 S 
ATOM      4  C   LIG    1        5.582   0.453  -0.542  0.00  0.00    +0.400 A 
ATOM      5  N   LIG    1        4.369   0.168  -0.976  0.00  0.00    -0.520 NA
ATOM      6  N   LIG    1        6.665  -0.377  -0.501  0.00  0.00    -0.490 N 
ENDROOT
BRANCH   5   7
ATOM      7  C   LIG    1        3.382   1.114  -0.918  0.00  0.00    +0.140 A 
ATOM      8  C   LIG    1        3.601   2.389  -1.444  0.00  0.00    -0.020 A 
ATOM      9  C   LIG    1        2.601   3.337  -1.384  0.00  0.00    +0.040 A 
ATOM     10  C   LIG    1        1.384   3.029  -0.803  0.00  0.00    +0.010 A 
ATOM     11  C   LIG    1        1.159   1.767  -0.280  0.00  0.00    +0.050 A 
ATOM     12  C   LIG    1        2.149   0.808  -0.333  0.00  0.00    -0.040 A 
ATOM     13 CL   LIG    1        1.866  -0.774   0.323  0.00  0.00    -0.060 Cl
ENDBRANCH   5   7
BRANCH   1  16
ATOM     14  C   LIG    1       11.387  -0.978  -0.457  0.00  0.00    +0.150 A 
ATOM     15  C   LIG    1       10.235  -0.216  -0.535  0.00  0.00    -0.050 A 
ATOM     16  C   LIG    1        9.062  -0.662   0.075  0.00  0.00    +0.040 A 
ATOM     17  C   LIG    1        9.055  -1.873   0.768  0.00  0.00    -0.080 A 
ATOM     18  C   LIG    1       10.209  -2.634   0.840  0.00  0.00    +0.150 A 
ATOM     19  C   LIG    1       11.377  -2.187   0.231  0.00  0.00    +0.040 A 
BRANCH  14  21
ATOM     20  C   LIG    1       12.470   0.707  -1.739  0.00  0.00    +0.250 C 
ATOM     21  O   LIG    1       12.531  -0.544  -1.051  0.00  0.00    -0.300 OA
ENDBRANCH  14  21
BRANCH  18  22
ATOM     22  O   LIG    1       10.203  -3.816   1.511  0.00  0.00    -0.300 OA
ATOM     23  C   LIG    1        8.999  -4.165   2.198  0.00  0.00    +0.250 C 
ENDBRANCH  18  22
BRANCH  19  24
ATOM     24  O   LIG    1       12.512  -2.934   0.307  0.00  0.00    -0.310 OA
ATOM     25  C   LIG    1       13.380  -2.685   1.415  0.00  0.00    +0.220 C 
ENDBRANCH  19  24
ENDBRANCH   1  16
BRANCH   6  26
ATOM     26  C   LIG    1        6.587  -1.764  -0.966  0.00  0.00    +0.300 C 
BRANCH  26  27
ATOM     27  C   LIG    1        6.802  -1.807  -2.480  0.00  0.00    +0.160 C 
ATOM     28  C   LIG    1        6.810  -3.272  -2.967  0.00  0.00    +0.020 C 
ATOM     29  C   LIG    1        7.935  -3.255  -4.040  0.00  0.00    +0.020 C 
ATOM     30  C   LIG    1        8.913  -2.221  -3.426  0.00  0.00    +0.190 C 
ATOM     31  O   LIG    1        8.074  -1.234  -2.807  0.00  0.00    -0.370 OA
ENDBRANCH  26  27
ENDBRANCH   6  26
TORSDOF 7
