REMARK  Name = ZINCrD000000BXSc.0
REMARK                            x       y       z     vdW  Elec       q    Type
REMARK                         _______ _______ _______ _____ _____    ______ ____
ROOT
ATOM      1  C   LIG    1        1.792   0.132  -0.746  0.00  0.00    -0.010 C 
ATOM      2  C   LIG    1        1.630  -1.224  -1.435  0.00  0.00    +0.060 C 
ATOM      3  C   LIG    1        2.997  -1.897  -1.570  0.00  0.00    +0.020 C 
ATOM      4  C   LIG    1        3.586  -2.131  -0.175  0.00  0.00    +0.270 C 
ATOM      5  N   LIG    1        3.611  -0.853   0.548  0.00  0.00    -0.600 N 
ATOM      6  C   LIG    1        4.754  -0.398   1.100  0.00  0.00    +0.570 C 
ATOM      7  O   LIG    1        4.755   0.647   1.721  0.00  0.00    -0.530 OA
ATOM      8  C   LIG    1        2.367  -0.079   0.658  0.00  0.00    +0.300 C 
ENDROOT
BRANCH   6   9
ATOM      9  C   LIG    1        6.005  -1.172   0.952  0.00  0.00    -0.130 A 
ATOM     10  C   LIG    1        5.964  -2.565   0.886  0.00  0.00    +0.050 A 
ATOM     11  C   LIG    1        7.135  -3.282   0.747  0.00  0.00    +0.040 A 
ATOM     12  C   LIG    1        8.346  -2.623   0.674  0.00  0.00    -0.110 A 
ATOM     13  C   LIG    1        9.768  -3.113   0.524  0.00  0.00    +0.270 C 
ATOM     14  O   LIG    1       10.609  -2.017   0.929  0.00  0.00    -0.360 OA
ATOM     15  C   LIG    1        9.846  -0.833   0.632  0.00  0.00    +0.270 C 
ATOM     16  C   LIG    1        8.394  -1.238   0.739  0.00  0.00    -0.140 A 
ATOM     17  C   LIG    1        7.233  -0.510   0.871  0.00  0.00    +0.100 A 
ENDBRANCH   6   9
BRANCH   1  19
ATOM     18  O   LIG    1       -0.541   0.260  -1.079  0.00  0.00    -0.460 OA
ATOM     19  C   LIG    1        0.450   0.809  -0.644  0.00  0.00    +0.510 C 
ATOM     20  N   LIG    1        0.349   2.023  -0.068  0.00  0.00    -0.660 N 
ATOM     21  H   LIG    1        1.127   2.430   0.344  0.00  0.00    +0.420 HD
BRANCH  20  22
ATOM     22  C   LIG    1       -0.872   2.697  -0.071  0.00  0.00    +0.370 A 
ATOM     23  C   LIG    1       -0.944   3.992   0.429  0.00  0.00    -0.050 A 
ATOM     24  C   LIG    1       -2.161   4.652   0.416  0.00  0.00    +0.130 A 
ATOM     25  C   LIG    1       -3.270   3.985  -0.088  0.00  0.00    -0.180 A 
ATOM     26  C   LIG    1       -3.126   2.696  -0.564  0.00  0.00    +0.340 A 
ATOM     27 BR   LIG    1       -4.960   4.834  -0.125  0.00  0.00    -0.030 Br
ATOM     28  N   LIG    1       -1.952   2.095  -0.544  0.00  0.00    -0.470 NA
ENDBRANCH  20  22
ENDBRANCH   1  19
TORSDOF 3
