REMARK  Name = ZINCtV00000L6kfD.0
REMARK                            x       y       z     vdW  Elec       q    Type
REMARK                         _______ _______ _______ _____ _____    ______ ____
ROOT
ATOM      1  N   LIG    1       -3.729   6.906   0.057  0.00  0.00    -0.390 N 
ATOM      2  C   LIG    1       -3.099   8.129   0.061  0.00  0.00    +0.170 A 
ATOM      3  C   LIG    1       -1.765   7.885   0.053  0.00  0.00    +0.050 A 
ATOM      4  N   LIG    1       -1.586   6.541   0.051  0.00  0.00    -0.470 NA
ATOM      5  C   LIG    1       -2.756   5.950   0.047  0.00  0.00    +0.190 A 
ENDROOT
BRANCH   1  12
ATOM      6  C   LIG    1       -4.879   5.634   2.329  0.00  0.00    +0.100 C 
ATOM      7  C   LIG    1       -5.714   6.067   1.152  0.00  0.00    -0.060 A 
ATOM      8  C   LIG    1       -7.078   5.850   1.155  0.00  0.00    +0.030 A 
ATOM      9  C   LIG    1       -7.845   6.247   0.075  0.00  0.00    +0.030 A 
ATOM     10  C   LIG    1       -7.250   6.862  -1.011  0.00  0.00    +0.020 A 
ATOM     11  C   LIG    1       -5.886   7.086  -1.017  0.00  0.00    +0.030 A 
ATOM     12  C   LIG    1       -5.113   6.684   0.063  0.00  0.00    +0.090 A 
ENDBRANCH   1  12
BRANCH   3  13
ATOM     13  C   LIG    1       -0.692   8.909   0.054  0.00  0.00    +0.010 A 
ATOM     14  C   LIG    1       -1.017  10.264   0.058  0.00  0.00    +0.030 A 
ATOM     15  C   LIG    1       -0.015  11.212   0.064  0.00  0.00    +0.030 A 
ATOM     16  C   LIG    1        1.313  10.819   0.056  0.00  0.00    -0.040 A 
ATOM     17  C   LIG    1        1.641   9.474   0.047  0.00  0.00    +0.030 A 
ATOM     18 CL   LIG    1        2.570  12.017   0.056  0.00  0.00    -0.070 Cl
ATOM     19  C   LIG    1        0.646   8.518   0.046  0.00  0.00    +0.060 A 
ENDBRANCH   3  13
BRANCH   5  20
ATOM     20  S   LIG    1       -3.028   4.209   0.039  0.00  0.00    +0.050 S 
BRANCH  20  21
ATOM     21  C   LIG    1       -1.315   3.623   0.028  0.00  0.00    +0.090 C 
BRANCH  21  22
ATOM     22  C   LIG    1       -1.299   2.117   0.020  0.00  0.00    +0.420 C 
ATOM     23  O   LIG    1       -2.343   1.499   0.021  0.00  0.00    -0.430 OA
BRANCH  22  24
ATOM     24  C   LIG    1       -0.017   1.394   0.010  0.00  0.00    -0.170 A 
ATOM     25  C   LIG    1        1.189   2.103   0.002  0.00  0.00    +0.060 A 
ATOM     26  C   LIG    1        2.386   1.419  -0.014  0.00  0.00    +0.000 A 
ATOM     27  C   LIG    1        2.397   0.035  -0.021  0.00  0.00    +0.050 A 
ATOM     28  C   LIG    1        1.208  -0.673  -0.013  0.00  0.00    +0.000 A 
ATOM     29  C   LIG    1        0.002  -0.004   0.002  0.00  0.00    +0.080 A 
ENDBRANCH  22  24
ENDBRANCH  21  22
ENDBRANCH  20  21
ENDBRANCH   5  20
TORSDOF 6
