REMARK  Name = ZINCrD00000eTr0A.0
REMARK                            x       y       z     vdW  Elec       q    Type
REMARK                         _______ _______ _______ _____ _____    ______ ____
ROOT
ATOM      1  N   LIG    1        1.767   6.671  -0.272  0.00  0.00    -0.440 N 
ATOM      2  C   LIG    1        0.833   7.128   0.767  0.00  0.00    +0.160 C 
ATOM      3  C   LIG    1        0.486   8.599   0.528  0.00  0.00    +0.240 C 
ATOM      4  O   LIG    1        1.691   9.371   0.517  0.00  0.00    -0.360 OA
ATOM      5  C   LIG    1        2.635   8.948  -0.464  0.00  0.00    +0.170 C 
ATOM      6  C   LIG    1        2.052   9.152  -1.875  0.00  0.00    +0.040 C 
ATOM      7  C   LIG    1        2.577  10.556  -2.248  0.00  0.00    +0.080 C 
ATOM      8  C   LIG    1        3.843  10.734  -1.437  0.00  0.00    -0.070 A 
ATOM      9  C   LIG    1        4.883  11.635  -1.585  0.00  0.00    +0.010 A 
ATOM     10  C   LIG    1        5.953  11.613  -0.711  0.00  0.00    +0.030 A 
ATOM     11  C   LIG    1        5.985  10.688   0.315  0.00  0.00    +0.010 A 
ATOM     12  C   LIG    1        4.948   9.788   0.465  0.00  0.00    +0.040 A 
ATOM     13  C   LIG    1        3.875   9.808  -0.409  0.00  0.00    -0.090 A 
ATOM     14  C   LIG    1        2.996   7.480  -0.258  0.00  0.00    +0.220 C 
ENDROOT
BRANCH   1  18
ATOM     15  C   LIG    1        1.898   3.155   0.077  0.00  0.00    +0.260 A 
ATOM     16  N   LIG    1        3.158   3.520   0.133  0.00  0.00    -0.270 NA
ATOM     17  N   LIG    1        3.251   4.795   0.010  0.00  0.00    -0.310 NA
ATOM     18  C   LIG    1        2.057   5.324  -0.121  0.00  0.00    +0.360 A 
ATOM     19  N   LIG    1        1.154   4.300  -0.083  0.00  0.00    -0.480 N 
ATOM     20  C   LIG    1       -0.304   4.401  -0.191  0.00  0.00    +0.340 C 
BRANCH  15  24
ATOM     21  C   LIG    1       -0.872  -0.930   1.389  0.00  0.00    +0.170 C 
ATOM     22  C   LIG    1        0.147  -0.011   0.765  0.00  0.00    +0.000 A 
ATOM     23  C   LIG    1        0.253   1.307   0.997  0.00  0.00    -0.050 A 
ATOM     24  C   LIG    1        1.377   1.774   0.176  0.00  0.00    -0.130 A 
ATOM     25  C   LIG    1        1.839   0.674  -0.477  0.00  0.00    +0.060 A 
ATOM     26  C   LIG    1        2.993   0.643  -1.445  0.00  0.00    +0.190 C 
ATOM     27  O   LIG    1        1.093  -0.379  -0.112  0.00  0.00    -0.170 OA
ENDBRANCH  15  24
ENDBRANCH   1  18
TORSDOF 2
