REMARK  Name = ZINCrD000000CVQf.0
REMARK                            x       y       z     vdW  Elec       q    Type
REMARK                         _______ _______ _______ _____ _____    ______ ____
ROOT
ATOM      1  O   LIG    1        3.072   1.085  -4.044  0.00  0.00    -0.520 OA
ATOM      2  C   LIG    1        3.290   0.208  -3.232  0.00  0.00    +0.700 C 
ATOM      3  N   LIG    1        4.184   0.321  -2.232  0.00  0.00    -0.710 N 
ATOM      4  H   LIG    1        4.745   1.088  -2.041  0.00  0.00    +0.440 HD
ATOM      5  C   LIG    1        4.142  -0.948  -1.486  0.00  0.00    +0.180 C 
ATOM      6  C   LIG    1        3.099  -1.762  -2.224  0.00  0.00    +0.540 C 
ATOM      7  O   LIG    1        2.727  -2.886  -1.963  0.00  0.00    -0.440 OA
ATOM      8  N   LIG    1        2.669  -0.977  -3.232  0.00  0.00    -0.570 N 
ENDROOT
BRANCH   5   9
ATOM      9  C   LIG    1        5.482  -1.637  -1.531  0.00  0.00    -0.100 A 
ATOM     10  C   LIG    1        5.858  -2.485  -0.505  0.00  0.00    +0.040 A 
ATOM     11  C   LIG    1        7.085  -3.120  -0.548  0.00  0.00    +0.010 A 
ATOM     12  C   LIG    1        7.939  -2.902  -1.613  0.00  0.00    +0.020 A 
ATOM     13  C   LIG    1        7.566  -2.050  -2.635  0.00  0.00    +0.010 A 
ATOM     14  C   LIG    1        6.337  -1.418  -2.595  0.00  0.00    +0.020 A 
ENDBRANCH   5   9
BRANCH   5  15
ATOM     15  C   LIG    1        3.711  -0.707  -0.038  0.00  0.00    +0.130 C 
BRANCH  15  16
ATOM     16  C   LIG    1        2.396   0.029  -0.021  0.00  0.00    -0.100 A 
ATOM     17  C   LIG    1        1.208  -0.679  -0.014  0.00  0.00    +0.010 A 
ATOM     18  C   LIG    1        0.002  -0.004   0.002  0.00  0.00    +0.000 A 
ATOM     19  C   LIG    1       -0.017   1.378   0.010  0.00  0.00    +0.000 A 
ATOM     20  C   LIG    1        1.171   2.086   0.002  0.00  0.00    +0.000 A 
ATOM     21  C   LIG    1        2.377   1.411  -0.014  0.00  0.00    +0.020 A 
ENDBRANCH  15  16
ENDBRANCH   5  15
BRANCH   8  22
ATOM     22  C   LIG    1        1.649  -1.372  -4.206  0.00  0.00    +0.450 C 
BRANCH  22  23
ATOM     23  C   LIG    1        0.287  -0.978  -3.696  0.00  0.00    +0.000 A 
ATOM     24  C   LIG    1       -0.295   0.219  -3.949  0.00  0.00    -0.210 A 
ATOM     25  S   LIG    1       -1.811   0.129  -3.139  0.00  0.00    +0.470 S 
ATOM     26  N   LIG    1       -1.608  -1.318  -2.579  0.00  0.00    -0.270 NA
ATOM     27 CL   LIG    1        0.342   1.541  -4.877  0.00  0.00    +0.060 Cl
ATOM     28  N   LIG    1       -0.473  -1.760  -2.958  0.00  0.00    -0.200 NA
ENDBRANCH  22  23
ENDBRANCH   8  22
TORSDOF 5
