REMARK  Name = ZINCpk00000y6vmt.0
REMARK                            x       y       z     vdW  Elec       q    Type
REMARK                         _______ _______ _______ _____ _____    ______ ____
ROOT
ATOM      1  N   LIG    1        2.577   2.467   9.421  0.00  0.00    -0.680 N 
ATOM      2  H   LIG    1        3.185   1.712   9.412  0.00  0.00    +0.410 HD
ATOM      3  C   LIG    1        1.726   2.659   8.394  0.00  0.00    +0.510 C 
ATOM      4  O   LIG    1        0.900   3.545   8.448  0.00  0.00    -0.510 OA
ENDROOT
BRANCH   1   8
ATOM      5  C   LIG    1        2.595   5.119  12.634  0.00  0.00    -0.160 A 
ATOM      6  C   LIG    1        2.868   3.764  12.842  0.00  0.00    +0.100 A 
ATOM      7  C   LIG    1        2.861   2.890  11.778  0.00  0.00    -0.030 A 
ATOM      8  C   LIG    1        2.583   3.355  10.497  0.00  0.00    +0.180 A 
ATOM      9  C   LIG    1        2.316   4.704  10.285  0.00  0.00    +0.010 A 
ATOM     10  C   LIG    1        2.316   5.582  11.345  0.00  0.00    +0.070 A 
BRANCH   5  14
ATOM     11  N   LIG    1        2.339   7.364  13.569  0.00  0.00    -0.850 N 
ATOM     12  H   LIG    1        2.343   7.982  14.318  0.00  0.00    +0.410 HD
ATOM     13  H   LIG    1        2.145   7.687  12.675  0.00  0.00    +0.400 HD
ATOM     14  C   LIG    1        2.602   6.058  13.772  0.00  0.00    +0.570 C 
ATOM     15  O   LIG    1        2.845   5.654  14.893  0.00  0.00    -0.540 OA
ENDBRANCH   5  14
ENDBRANCH   1   8
BRANCH   3  16
ATOM     16  C   LIG    1        1.799   1.771   7.178  0.00  0.00    +0.060 C 
BRANCH  16  17
ATOM     17  C   LIG    1        0.731   2.198   6.170  0.00  0.00    +0.040 C 
BRANCH  17  18
ATOM     18  C   LIG    1        0.806   1.297   4.935  0.00  0.00    +0.020 C 
BRANCH  18  19
ATOM     19  C   LIG    1       -0.262   1.724   3.926  0.00  0.00    +0.060 C 
BRANCH  19  20
ATOM     20  C   LIG    1       -0.186   0.823   2.692  0.00  0.00    +0.080 C 
ATOM     21  S   LIG    1        1.397   1.088   1.783  0.00  0.00    -0.240 S 
ATOM     22  C   LIG    1        0.649   1.478   0.138  0.00  0.00    +0.140 C 
ATOM     23  C   LIG    1       -0.694   0.774   0.275  0.00  0.00    +0.200 C 
ATOM     24  N   LIG    1       -1.849   1.135  -0.516  0.00  0.00    -0.730 N 
ATOM     25  H   LIG    1       -1.857   1.450  -1.433  0.00  0.00    +0.430 HD
ATOM     26  C   LIG    1       -2.926   0.939   0.284  0.00  0.00    +0.710 C 
ATOM     27  N   LIG    1       -2.582   0.792   1.600  0.00  0.00    -0.730 N 
ATOM     28  H   LIG    1       -3.140   0.467   2.324  0.00  0.00    +0.430 HD
ATOM     29  O   LIG    1       -4.072   0.899  -0.122  0.00  0.00    -0.550 OA
ATOM     30  C   LIG    1       -1.218   1.223   1.676  0.00  0.00    +0.180 C 
ENDBRANCH  19  20
ENDBRANCH  18  19
ENDBRANCH  17  18
ENDBRANCH  16  17
ENDBRANCH   3  16
TORSDOF 7
