REMARK  Name = ZINCpe000000SyYU.0
REMARK                            x       y       z     vdW  Elec       q    Type
REMARK                         _______ _______ _______ _____ _____    ______ ____
ROOT
ATOM      1  C   LIG    1        2.746  -0.589   2.206  0.00  0.00    +0.530 C 
ATOM      2  N   LIG    1        4.009  -0.122   2.255  0.00  0.00    -0.620 N 
ATOM      3  C   LIG    1        4.495   0.848   1.261  0.00  0.00    +0.310 C 
ATOM      4  C   LIG    1        5.130   2.030   2.011  0.00  0.00    +0.200 C 
ATOM      5  N   LIG    1        6.153   1.523   2.936  0.00  0.00    -0.470 N 
ATOM      6  C   LIG    1        5.560   0.660   3.966  0.00  0.00    +0.220 C 
ATOM      7  C   LIG    1        4.941  -0.573   3.300  0.00  0.00    +0.290 C 
ATOM      8  O   LIG    1        2.024  -0.287   1.280  0.00  0.00    -0.530 OA
ENDROOT
BRANCH   1  15
ATOM      9  C   LIG    1        4.490  -4.303   4.986  0.00  0.00    +0.100 C 
ATOM     10  C   LIG    1        2.995  -4.493   4.985  0.00  0.00    +0.510 C 
ATOM     11  N   LIG    1        2.226  -3.777   4.141  0.00  0.00    -0.610 N 
ATOM     12  C   LIG    1        0.761  -3.873   4.200  0.00  0.00    +0.280 C 
ATOM     13  C   LIG    1        0.179  -2.463   4.344  0.00  0.00    +0.020 C 
ATOM     14  C   LIG    1        0.706  -1.580   3.211  0.00  0.00    +0.050 C 
ATOM     15  C   LIG    1        2.231  -1.485   3.302  0.00  0.00    -0.020 C 
ATOM     16  C   LIG    1        2.836  -2.884   3.147  0.00  0.00    +0.280 C 
ATOM     17  O   LIG    1        2.485  -5.290   5.743  0.00  0.00    -0.540 OA
ENDBRANCH   1  15
BRANCH   5  18
ATOM     18  C   LIG    1        6.863   2.566   3.510  0.00  0.00    +0.340 A 
ATOM     19  C   LIG    1        7.505   3.492   2.692  0.00  0.00    -0.040 A 
ATOM     20  C   LIG    1        8.202   4.524   3.262  0.00  0.00    +0.150 A 
ATOM     21  C   LIG    1        8.252   4.604   4.662  0.00  0.00    -0.110 A 
ATOM     22  C   LIG    1        7.589   3.638   5.420  0.00  0.00    +0.360 A 
ATOM     23  N   LIG    1        6.926   2.664   4.831  0.00  0.00    -0.520 NA
BRANCH  21  24
ATOM     24  C   LIG    1        8.973   5.662   5.303  0.00  0.00    +0.250 C 
ATOM     25  N   LIG    1        9.545   6.501   5.812  0.00  0.00    -0.410 NA
ENDBRANCH  21  24
ENDBRANCH   5  18
TORSDOF 3
