REMARK  Name = ZINCrH00000tj1fN.0
REMARK                            x       y       z     vdW  Elec       q    Type
REMARK                         _______ _______ _______ _____ _____    ______ ____
ROOT
ATOM      1  C   LIG    1        4.923  -2.635  -0.047  0.00  0.00    +0.520 C 
ATOM      2  N   LIG    1        5.119  -3.968  -0.061  0.00  0.00    -0.660 N 
ATOM      3  H   LIG    1        4.362  -4.570   0.017  0.00  0.00    +0.420 HD
ATOM      4  O   LIG    1        5.874  -1.882  -0.061  0.00  0.00    -0.490 OA
ENDROOT
BRANCH   2   5
ATOM      5  C   LIG    1        6.414  -4.484  -0.187  0.00  0.00    +0.170 A 
ATOM      6  C   LIG    1        7.485  -3.824   0.397  0.00  0.00    +0.060 A 
ATOM      7  C   LIG    1        8.763  -4.340   0.276  0.00  0.00    -0.020 A 
ATOM      8  C   LIG    1        8.978  -5.507  -0.436  0.00  0.00    +0.050 A 
ATOM      9  C   LIG    1        7.916  -6.167  -1.026  0.00  0.00    +0.050 A 
ATOM     10 CL   LIG    1       10.101  -3.517   1.014  0.00  0.00    -0.050 Cl
ATOM     11  C   LIG    1        6.631  -5.660  -0.904  0.00  0.00    +0.120 A 
BRANCH  11  12
ATOM     12  N   LIG    1        5.552  -6.329  -1.501  0.00  0.00    -0.330 N 
ATOM     13  C   LIG    1        5.591  -7.514  -2.141  0.00  0.00    +0.500 A 
ATOM     14  N   LIG    1        4.380  -7.793  -2.550  0.00  0.00    -0.530 NA
ATOM     15  C   LIG    1        3.547  -6.813  -2.201  0.00  0.00    +0.450 A 
ATOM     16  N   LIG    1        4.218  -5.894  -1.557  0.00  0.00    -0.330 NA
ENDBRANCH  11  12
ENDBRANCH   2   5
BRANCH   1  17
ATOM     17  C   LIG    1        3.523  -2.079  -0.015  0.00  0.00    +0.250 C 
BRANCH  17  18
ATOM     18  O   LIG    1        3.577  -0.651  -0.005  0.00  0.00    -0.280 OA
BRANCH  18  24
ATOM     19  C   LIG    1        2.368   1.404   0.034  0.00  0.00    +0.110 A 
ATOM     20  C   LIG    1        1.156   2.074   0.063  0.00  0.00    -0.030 A 
ATOM     21  C   LIG    1       -0.028   1.361   0.082  0.00  0.00    +0.020 A 
ATOM     22  C   LIG    1       -0.007  -0.021   0.071  0.00  0.00    +0.010 A 
ATOM     23  C   LIG    1        1.200  -0.697   0.043  0.00  0.00    -0.040 A 
ATOM     24  C   LIG    1        2.390   0.012   0.024  0.00  0.00    +0.100 A 
BRANCH  19  25
ATOM     25  O   LIG    1        3.534   2.103   0.015  0.00  0.00    -0.300 OA
BRANCH  25  26
ATOM     26  C   LIG    1        3.435   3.529   0.027  0.00  0.00    +0.180 C 
BRANCH  26  28
ATOM     27  C   LIG    1        4.733   5.664   0.016  0.00  0.00    +0.040 C 
ATOM     28  C   LIG    1        4.839   4.138   0.003  0.00  0.00    +0.020 C 
ENDBRANCH  26  28
ENDBRANCH  25  26
ENDBRANCH  19  25
ENDBRANCH  18  24
ENDBRANCH  17  18
ENDBRANCH   1  17
TORSDOF 8
