REMARK  Name = ZINCrD0000073CSs.0
REMARK                            x       y       z     vdW  Elec       q    Type
REMARK                         _______ _______ _______ _____ _____    ______ ____
ROOT
ATOM      1  C   LIG    1        3.742  -0.969   0.178  0.00  0.00    +0.200 C 
ATOM      2  C   LIG    1        4.437  -0.591   1.488  0.00  0.00    +0.070 C 
ENDROOT
BRANCH   1   3
ATOM      3  C   LIG    1        2.425  -0.242   0.080  0.00  0.00    +0.520 C 
ATOM      4  N   LIG    1        2.403   1.102  -0.015  0.00  0.00    -0.660 N 
ATOM      5  H   LIG    1        3.234   1.596  -0.101  0.00  0.00    +0.420 HD
ATOM      6  O   LIG    1        1.386  -0.867   0.087  0.00  0.00    -0.490 OA
BRANCH   4   7
ATOM      7  C   LIG    1        1.180   1.787   0.012  0.00  0.00    +0.140 A 
ATOM      8  C   LIG    1        0.076   1.213   0.627  0.00  0.00    +0.080 A 
ATOM      9  C   LIG    1       -1.131   1.886   0.648  0.00  0.00    +0.050 A 
ATOM     10  C   LIG    1       -1.238   3.137   0.066  0.00  0.00    +0.080 A 
ATOM     11  C   LIG    1       -0.137   3.714  -0.550  0.00  0.00    +0.060 A 
ATOM     12  F   LIG    1       -0.245   4.933  -1.122  0.00  0.00    -0.110 F 
ATOM     13  F   LIG    1       -2.418   3.795   0.093  0.00  0.00    -0.120 F 
ATOM     14  C   LIG    1        1.072   3.041  -0.578  0.00  0.00    +0.060 A 
ATOM     15  F   LIG    1        2.145   3.602  -1.177  0.00  0.00    -0.120 F 
ENDBRANCH   4   7
ENDBRANCH   1   3
BRANCH   1  16
ATOM     16  O   LIG    1        3.507  -2.401   0.150  0.00  0.00    -0.320 OA
BRANCH  16  17
ATOM     17  C   LIG    1        4.478  -3.170  -0.382  0.00  0.00    +0.510 C 
ATOM     18  O   LIG    1        5.492  -2.657  -0.810  0.00  0.00    -0.480 OA
BRANCH  17  23
ATOM     19  C   LIG    1        5.143  -6.816  -1.049  0.00  0.00    +0.100 A 
ATOM     20  C   LIG    1        3.982  -7.388  -0.558  0.00  0.00    -0.020 A 
ATOM     21  C   LIG    1        2.987  -6.594  -0.011  0.00  0.00    +0.040 A 
ATOM     22  C   LIG    1        3.142  -5.227   0.049  0.00  0.00    +0.070 A 
ATOM     23  C   LIG    1        4.308  -4.633  -0.444  0.00  0.00    -0.120 A 
ATOM     24  C   LIG    1        5.312  -5.435  -1.001  0.00  0.00    +0.130 A 
BRANCH  19  26
ATOM     25  C   LIG    1        5.872  -9.010  -1.607  0.00  0.00    +0.250 C 
ATOM     26  O   LIG    1        6.115  -7.602  -1.584  0.00  0.00    -0.300 OA
ENDBRANCH  19  26
BRANCH  24  27
ATOM     27  O   LIG    1        6.446  -4.869  -1.487  0.00  0.00    -0.310 OA
ATOM     28  C   LIG    1        7.534  -4.710  -0.574  0.00  0.00    +0.240 C 
ENDBRANCH  24  27
ENDBRANCH  17  23
ENDBRANCH  16  17
ENDBRANCH   1  16
TORSDOF 7
