REMARK  Name = ZINCrH000004mM3Y.0
REMARK                            x       y       z     vdW  Elec       q    Type
REMARK                         _______ _______ _______ _____ _____    ______ ____
ROOT
ATOM      1  N   LIG    1       -3.071   0.913  -1.338  0.00  0.00    -0.530 NA
ATOM      2  C   LIG    1       -3.462   2.259  -1.783  0.00  0.00    +0.200 C 
ATOM      3  C   LIG    1       -3.954   2.192  -3.230  0.00  0.00    +0.200 C 
ATOM      4  N   LIG    1       -5.088   1.262  -3.317  0.00  0.00    -0.490 N 
ATOM      5  C   LIG    1       -4.697  -0.083  -2.873  0.00  0.00    +0.200 C 
ATOM      6  C   LIG    1       -4.205  -0.017  -1.425  0.00  0.00    +0.200 C 
ENDROOT
BRANCH   4   7
ATOM      7  C   LIG    1       -5.606   1.230  -4.600  0.00  0.00    +0.400 A 
ATOM      8  C   LIG    1       -6.964   1.562  -4.837  0.00  0.00    -0.150 A 
ATOM      9  C   LIG    1       -7.420   1.513  -6.157  0.00  0.00    +0.090 A 
ATOM     10  S   LIG    1       -9.117   1.968  -6.213  0.00  0.00    +0.170 S 
ATOM     11  C   LIG    1       -9.175   2.220  -4.478  0.00  0.00    -0.180 A 
ATOM     12  C   LIG    1      -10.405   2.657  -3.724  0.00  0.00    +0.150 C 
ATOM     13  N   LIG    1       -6.571   1.150  -7.127  0.00  0.00    -0.490 NA
ATOM     14  C   LIG    1       -5.323   0.847  -6.855  0.00  0.00    +0.520 A 
ATOM     15  C   LIG    1       -8.006   1.977  -3.917  0.00  0.00    -0.060 A 
ATOM     16  C   LIG    1       -7.773   2.114  -2.435  0.00  0.00    +0.130 C 
ATOM     17  N   LIG    1       -4.842   0.882  -5.625  0.00  0.00    -0.550 NA
ENDBRANCH   4   7
BRANCH   1  18
ATOM     18  C   LIG    1       -2.522   0.948   0.024  0.00  0.00    +0.240 C 
BRANCH  18  25
ATOM     19  C   LIG    1       -1.234   3.100   0.035  0.00  0.00    +0.120 A 
ATOM     20  C   LIG    1       -0.039   3.802   0.027  0.00  0.00    -0.040 A 
ATOM     21  C   LIG    1        1.163   3.119   0.014  0.00  0.00    +0.030 A 
ATOM     22  C   LIG    1        1.173   1.735   0.006  0.00  0.00    +0.060 A 
ATOM     23  C   LIG    1       -0.021   1.032   0.014  0.00  0.00    +0.040 A 
ATOM     24  F   LIG    1        2.348   1.068  -0.008  0.00  0.00    -0.140 F 
ATOM     25  C   LIG    1       -1.223   1.712   0.022  0.00  0.00    -0.080 A 
BRANCH  19  27
ATOM     26  C   LIG    1       -2.353   5.198   0.054  0.00  0.00    +0.240 C 
ATOM     27  O   LIG    1       -2.417   3.770   0.048  0.00  0.00    -0.310 OA
ENDBRANCH  19  27
ENDBRANCH  18  25
ENDBRANCH   1  18
TORSDOF 4
