REMARK  Name = ZINC9u0000000C55.0
REMARK                            x       y       z     vdW  Elec       q    Type
REMARK                         _______ _______ _______ _____ _____    ______ ____
ROOT
ATOM      1  C   LIG    1        1.180   1.800   0.001  0.00  0.00    -0.040 A 
ATOM      2  C   LIG    1        1.107   3.193   0.008  0.00  0.00    -0.050 A 
ATOM      3  C   LIG    1       -0.130   3.800   0.023  0.00  0.00    +0.310 A 
ATOM      4  N   LIG    1       -1.237   3.080   0.030  0.00  0.00    -0.480 NA
ATOM      5  C   LIG    1       -1.211   1.760   0.017  0.00  0.00    +0.190 A 
ATOM      6 CL   LIG    1       -2.704   0.873   0.019  0.00  0.00    -0.020 Cl
ATOM      7  C   LIG    1       -0.013   1.076   0.008  0.00  0.00    +0.010 A 
ENDROOT
BRANCH   1   9
ATOM      8  C   LIG    1        3.925   2.347  -0.023  0.00  0.00    +0.150 C 
ATOM      9  S   LIG    1        2.737   0.976  -0.019  0.00  0.00    -0.070 S 
ENDBRANCH   1   9
TORSDOF 1
