REMARK  Name = ZINCyk0000000lYA.0
REMARK                            x       y       z     vdW  Elec       q    Type
REMARK                         _______ _______ _______ _____ _____    ______ ____
ROOT
ATOM      1  N   LIG    1        1.281   1.654  -2.639  0.00  0.00    -0.670 N 
ATOM      2  H   LIG    1        1.666   2.277  -2.003  0.00  0.00    +0.420 HD
ATOM      3  C   LIG    1        0.020   1.210  -2.467  0.00  0.00    +0.510 C 
ATOM      4  O   LIG    1       -0.491   0.498  -3.305  0.00  0.00    -0.490 OA
ENDROOT
BRANCH   1   8
ATOM      5  C   LIG    1        3.526   0.350  -5.903  0.00  0.00    +0.070 A 
ATOM      6  C   LIG    1        2.157   0.545  -6.035  0.00  0.00    +0.020 A 
ATOM      7  C   LIG    1        1.414   0.976  -4.954  0.00  0.00    +0.060 A 
ATOM      8  C   LIG    1        2.035   1.215  -3.735  0.00  0.00    +0.140 A 
ATOM      9  C   LIG    1        3.405   1.026  -3.605  0.00  0.00    +0.030 A 
ATOM     10  C   LIG    1        4.147   0.589  -4.684  0.00  0.00    -0.010 A 
BRANCH   5  15
ATOM     11  C   LIG    1        6.749  -2.336  -9.560  0.00  0.00    +0.330 C 
ATOM     12  N   LIG    1        5.973  -1.923  -8.384  0.00  0.00    -0.390 N 
ATOM     13  C   LIG    1        6.494  -0.647  -7.876  0.00  0.00    +0.280 C 
ATOM     14  C   LIG    1        5.698  -0.226  -6.639  0.00  0.00    +0.220 C 
ATOM     15  N   LIG    1        4.279  -0.087  -6.998  0.00  0.00    -0.480 N 
ATOM     16  C   LIG    1        3.749  -1.350  -7.531  0.00  0.00    +0.220 C 
ATOM     17  C   LIG    1        4.562  -1.762  -8.760  0.00  0.00    +0.280 C 
ATOM     18  H   LIG    1        6.050  -2.627  -7.665  0.00  0.00    +0.420 HD
ENDBRANCH   5  15
ENDBRANCH   1   8
BRANCH   3  19
ATOM     19  C   LIG    1       -0.755   1.598  -1.234  0.00  0.00    +0.290 C 
BRANCH  19  20
ATOM     20  N   LIG    1       -2.088   0.993  -1.285  0.00  0.00    -0.570 N 
ATOM     21  C   LIG    1       -2.321  -0.330  -1.349  0.00  0.00    +0.580 C 
ATOM     22  C   LIG    1       -3.783  -0.550  -1.382  0.00  0.00    -0.140 A 
ATOM     23  C   LIG    1       -4.591  -1.673  -1.444  0.00  0.00    +0.100 A 
ATOM     24  C   LIG    1       -5.970  -1.527  -1.465  0.00  0.00    +0.060 A 
ATOM     25  C   LIG    1       -6.542  -0.270  -1.423  0.00  0.00    +0.060 A 
ATOM     26  C   LIG    1       -5.745   0.863  -1.361  0.00  0.00    +0.100 A 
ATOM     27  C   LIG    1       -4.367   0.733  -1.340  0.00  0.00    -0.150 A 
ATOM     28  O   LIG    1       -1.473  -1.199  -1.374  0.00  0.00    -0.440 OA
ATOM     29  C   LIG    1       -3.240   1.688  -1.278  0.00  0.00    +0.580 C 
ATOM     30  O   LIG    1       -3.338   2.897  -1.230  0.00  0.00    -0.460 OA
ENDBRANCH  19  20
BRANCH  19  31
ATOM     31  C   LIG    1       -0.016   1.101   0.010  0.00  0.00    +0.100 C 
BRANCH  31  32
ATOM     32  C   LIG    1       -0.735   1.602   1.264  0.00  0.00    -0.340 C 
BRANCH  32  33
ATOM     33  S   LIG    1        0.141   1.013   2.739  0.00  0.00    +2.420 S 
ATOM     34  O   LIG    1        1.425   1.620   2.775  0.00  0.00    -0.930 OA
ATOM     35  O   LIG    1        0.042  -0.404   2.789  0.00  0.00    -0.930 OA
ATOM     36  C   LIG    1       -0.866   1.711   4.077  0.00  0.00    -0.250 C 
ENDBRANCH  32  33
ENDBRANCH  31  32
ENDBRANCH  19  31
ENDBRANCH   3  19
TORSDOF 7
