REMARK  Name = ZINCpe00000JunmZ.0
REMARK                            x       y       z     vdW  Elec       q    Type
REMARK                         _______ _______ _______ _____ _____    ______ ____
ROOT
ATOM      1  O   LIG    1        6.603  -3.467  -4.669  0.00  0.00    -0.580 OA
ATOM      2  C   LIG    1        5.415  -3.263  -4.509  0.00  0.00    +0.710 C 
ATOM      3  N   LIG    1        5.006  -2.251  -3.718  0.00  0.00    -0.630 N 
ATOM      4  C   LIG    1        5.975  -1.451  -2.953  0.00  0.00    +0.320 C 
ATOM      5  C   LIG    1        5.521  -1.405  -1.490  0.00  0.00    +0.170 C 
ATOM      6  N   LIG    1        4.134  -0.927  -1.426  0.00  0.00    -0.530 NA
ATOM      7  C   LIG    1        3.219  -1.854  -2.107  0.00  0.00    +0.170 C 
ATOM      8  C   LIG    1        3.578  -1.919  -3.595  0.00  0.00    +0.280 C 
ATOM      9  N   LIG    1        4.507  -4.048  -5.122  0.00  0.00    -0.740 N 
ATOM     10  H   LIG    1        3.562  -3.841  -5.054  0.00  0.00    +0.400 HD
ENDROOT
BRANCH   6  11
ATOM     11  C   LIG    1        3.718  -0.705  -0.035  0.00  0.00    +0.230 C 
BRANCH  11  12
ATOM     12  C   LIG    1        2.391   0.010  -0.015  0.00  0.00    -0.040 A 
ATOM     13  C   LIG    1        1.201  -0.702  -0.007  0.00  0.00    -0.040 A 
ATOM     14  C   LIG    1        0.004  -0.012   0.010  0.00  0.00    +0.260 A 
ATOM     15  N   LIG    1       -0.015   1.306   0.018  0.00  0.00    -0.490 NA
ATOM     16  C   LIG    1        1.097   2.016   0.011  0.00  0.00    +0.260 A 
ATOM     17  C   LIG    1        2.331   1.395  -0.005  0.00  0.00    -0.010 A 
ENDBRANCH  11  12
ENDBRANCH   6  11
BRANCH   9  18
ATOM     18  C   LIG    1        4.949  -5.214  -5.891  0.00  0.00    +0.280 C 
BRANCH  18  19
ATOM     19  C   LIG    1        3.730  -5.928  -6.479  0.00  0.00    +0.270 C 
BRANCH  19  20
ATOM     20  N   LIG    1        4.171  -7.094  -7.249  0.00  0.00    -0.700 N 
ATOM     21  H   LIG    1        5.116  -7.301  -7.317  0.00  0.00    +0.420 HD
BRANCH  20  22
ATOM     22  C   LIG    1        3.239  -7.901  -7.878  0.00  0.00    +0.560 A 
ATOM     23  N   LIG    1        1.952  -7.607  -7.771  0.00  0.00    -0.570 NA
ATOM     24  C   LIG    1        1.036  -8.354  -8.365  0.00  0.00    +0.360 A 
ATOM     25  C   LIG    1        1.437  -9.461  -9.096  0.00  0.00    -0.140 A 
ATOM     26  C   LIG    1        2.791  -9.743  -9.184  0.00  0.00    +0.360 A 
ATOM     27  N   LIG    1        3.655  -8.951  -8.570  0.00  0.00    -0.570 NA
ENDBRANCH  20  22
ENDBRANCH  19  20
ENDBRANCH  18  19
ENDBRANCH   9  18
TORSDOF 6
