REMARK  Name = ZINCrg000000rvwZ.0
REMARK                            x       y       z     vdW  Elec       q    Type
REMARK                         _______ _______ _______ _____ _____    ______ ____
ROOT
ATOM      1  C   LIG    1       -4.766  -0.681   2.204  0.00  0.00    +0.510 C 
ATOM      2  N   LIG    1       -4.422   0.338   1.391  0.00  0.00    -0.610 N 
ATOM      3  C   LIG    1       -5.383   0.893   0.424  0.00  0.00    +0.260 C 
ATOM      4  C   LIG    1       -4.707   0.946  -0.951  0.00  0.00    +0.220 C 
ATOM      5  O   LIG    1       -3.456   1.628  -0.837  0.00  0.00    -0.370 OA
ATOM      6  C   LIG    1       -2.513   0.980   0.020  0.00  0.00    +0.190 C 
ATOM      7  C   LIG    1       -3.075   0.928   1.445  0.00  0.00    +0.270 C 
ATOM      8  O   LIG    1       -3.961  -1.124   2.995  0.00  0.00    -0.520 OA
ENDROOT
BRANCH   6   9
ATOM      9  C   LIG    1       -1.218   1.751   0.017  0.00  0.00    -0.070 A 
ATOM     10  C   LIG    1       -1.237   3.133   0.030  0.00  0.00    +0.030 A 
ATOM     11  C   LIG    1       -0.051   3.844   0.022  0.00  0.00    +0.030 A 
ATOM     12  C   LIG    1        1.157   3.174   0.008  0.00  0.00    -0.010 A 
ATOM     13  C   LIG    1        1.179   1.786   0.000  0.00  0.00    +0.110 A 
ATOM     14  C   LIG    1       -0.013   1.076   0.008  0.00  0.00    +0.000 A 
BRANCH  13  15
ATOM     15  O   LIG    1        2.366   1.125  -0.015  0.00  0.00    -0.500 OA
ATOM     16  H   LIG    1        2.701   0.938  -0.902  0.00  0.00    +0.390 HD
ENDBRANCH  13  15
ENDBRANCH   6   9
BRANCH   1  17
ATOM     17  C   LIG    1       -6.152  -1.269   2.130  0.00  0.00    +0.360 C 
BRANCH  17  23
ATOM     18  C   LIG    1       -8.060  -3.978   5.461  0.00  0.00    +0.090 C 
ATOM     19  C   LIG    1       -6.659  -3.563   5.006  0.00  0.00    +0.160 C 
ATOM     20  N   LIG    1       -6.188  -4.431   3.913  0.00  0.00    -0.720 N 
ATOM     21  H   LIG    1       -6.047  -5.390   3.954  0.00  0.00    +0.440 HD
ATOM     22  C   LIG    1       -5.995  -3.635   2.846  0.00  0.00    +0.710 C 
ATOM     23  N   LIG    1       -6.275  -2.353   3.107  0.00  0.00    -0.560 N 
ATOM     24  O   LIG    1       -5.608  -4.036   1.766  0.00  0.00    -0.540 OA
ATOM     25  C   LIG    1       -6.689  -2.184   4.378  0.00  0.00    +0.540 C 
ATOM     26  O   LIG    1       -7.016  -1.144   4.909  0.00  0.00    -0.460 OA
BRANCH  19  27
ATOM     27  C   LIG    1       -5.681  -3.599   6.182  0.00  0.00    -0.030 C 
ATOM     28  C   LIG    1       -4.405  -4.426   6.015  0.00  0.00    +0.040 C 
ATOM     29  C   LIG    1       -5.525  -4.923   6.932  0.00  0.00    +0.040 C 
ENDBRANCH  19  27
ENDBRANCH  17  23
ENDBRANCH   1  17
TORSDOF 5
