REMARK  Name = ZINCpe00000gMYCJ.0
REMARK                            x       y       z     vdW  Elec       q    Type
REMARK                         _______ _______ _______ _____ _____    ______ ____
ROOT
ATOM      1  C   LIG    1        0.468   1.337   2.584  0.00  0.00    +0.220 C 
ATOM      2  C   LIG    1       -0.213   1.907   1.338  0.00  0.00    +0.160 C 
ATOM      3  O   LIG    1       -1.394   1.143   1.071  0.00  0.00    -0.350 OA
ATOM      4  C   LIG    1       -2.413   1.328   2.057  0.00  0.00    +0.290 C 
ATOM      5  C   LIG    1       -1.830   1.153   3.431  0.00  0.00    +0.500 C 
ATOM      6  O   LIG    1       -2.581   0.983   4.368  0.00  0.00    -0.520 OA
ATOM      7  C   LIG    1        0.740   1.814   0.145  0.00  0.00    +0.090 C 
ATOM      8  N   LIG    1       -0.510   1.178   3.658  0.00  0.00    -0.580 N 
ENDROOT
BRANCH   1  11
ATOM      9  N   LIG    1        2.814   2.121   2.581  0.00  0.00    -0.630 N 
ATOM     10  H   LIG    1        3.020   1.402   1.963  0.00  0.00    +0.420 HD
ATOM     11  C   LIG    1        1.555   2.278   3.036  0.00  0.00    +0.510 C 
ATOM     12  O   LIG    1        1.297   3.177   3.808  0.00  0.00    -0.440 OA
BRANCH   9  17
ATOM     13  C   LIG    1        7.185   4.373   3.195  0.00  0.00    +0.200 C 
ATOM     14  C   LIG    1        5.730   3.989   3.277  0.00  0.00    +0.180 A 
ATOM     15  N   LIG    1        4.812   4.585   3.986  0.00  0.00    -0.280 NA
ATOM     16  N   LIG    1        3.679   4.001   3.820  0.00  0.00    -0.270 NA
ATOM     17  C   LIG    1        3.817   2.989   2.997  0.00  0.00    +0.390 A 
ATOM     18  N   LIG    1        5.128   2.952   2.623  0.00  0.00    -0.490 N 
ATOM     19  C   LIG    1        5.760   1.998   1.708  0.00  0.00    +0.350 C 
ENDBRANCH   9  17
ENDBRANCH   1  11
BRANCH   8  20
ATOM     20  C   LIG    1       -0.029   1.042   5.035  0.00  0.00    +0.340 C 
BRANCH  20  21
ATOM     21  C   LIG    1        0.072  -0.420   5.388  0.00  0.00    -0.110 A 
ATOM     22  C   LIG    1       -0.965  -1.043   6.058  0.00  0.00    +0.040 A 
ATOM     23  C   LIG    1       -0.873  -2.384   6.378  0.00  0.00    +0.000 A 
ATOM     24  C   LIG    1        0.259  -3.101   6.037  0.00  0.00    +0.010 A 
ATOM     25  C   LIG    1        1.298  -2.477   5.372  0.00  0.00    +0.000 A 
ATOM     26  C   LIG    1        1.204  -1.136   5.048  0.00  0.00    +0.000 A 
ENDBRANCH  20  21
ENDBRANCH   8  20
TORSDOF 4
