REMARK  Name = ZINCpe00000MJIJz.0
REMARK                            x       y       z     vdW  Elec       q    Type
REMARK                         _______ _______ _______ _____ _____    ______ ____
ROOT
ATOM      1  C   LIG    1       -0.821  -2.304   0.390  0.00  0.00    +0.110 C 
ENDROOT
BRANCH   1  11
ATOM      2  C   LIG    1        0.992   4.197   0.399  0.00  0.00    +0.190 C 
ATOM      3  N   LIG    1        1.648   3.236  -0.497  0.00  0.00    -0.530 NA
ATOM      4  C   LIG    1        1.212   3.430  -1.886  0.00  0.00    +0.150 C 
ATOM      5  C   LIG    1        2.000   2.457  -2.772  0.00  0.00    +0.230 C 
ATOM      6  O   LIG    1        1.710   1.128  -2.345  0.00  0.00    -0.380 OA
ATOM      7  C   LIG    1        2.058   0.826  -0.992  0.00  0.00    +0.190 C 
ATOM      8  C   LIG    1        1.270  -0.452  -0.601  0.00  0.00    +0.280 C 
ATOM      9  N   LIG    1       -0.007  -0.004  -0.017  0.00  0.00    -0.620 N 
ATOM     10  C   LIG    1       -0.034   1.474  -0.024  0.00  0.00    +0.230 C 
ATOM     11  C   LIG    1       -0.985  -0.807   0.446  0.00  0.00    +0.530 C 
ATOM     12  O   LIG    1       -1.997  -0.325   0.908  0.00  0.00    -0.530 OA
ATOM     13  C   LIG    1        1.456   1.875  -0.032  0.00  0.00    +0.160 C 
ENDBRANCH   1  11
BRANCH   1  14
ATOM     14  C   LIG    1       -2.046  -2.966   0.966  0.00  0.00    -0.090 A 
ATOM     15  C   LIG    1       -2.102  -3.260   2.316  0.00  0.00    +0.040 A 
ATOM     16  C   LIG    1       -3.225  -3.862   2.847  0.00  0.00    -0.030 A 
ATOM     17  C   LIG    1       -4.296  -4.182   2.022  0.00  0.00    +0.170 A 
ATOM     18  C   LIG    1       -4.235  -3.890   0.666  0.00  0.00    +0.000 A 
ATOM     19  C   LIG    1       -3.110  -3.283   0.141  0.00  0.00    +0.050 A 
BRANCH  17  20
ATOM     20  N   LIG    1       -5.434  -4.796   2.557  0.00  0.00    -0.560 N 
ATOM     21  C   LIG    1       -5.550  -5.259   3.944  0.00  0.00    +0.260 C 
ATOM     22  C   LIG    1       -7.066  -5.446   4.189  0.00  0.00    +0.060 C 
ATOM     23  C   LIG    1       -7.585  -5.705   2.756  0.00  0.00    +0.070 C 
ATOM     24  C   LIG    1       -6.559  -5.042   1.863  0.00  0.00    +0.510 C 
ATOM     25  O   LIG    1       -6.727  -4.772   0.693  0.00  0.00    -0.510 OA
ENDBRANCH  17  20
ENDBRANCH   1  14
TORSDOF 3
