REMARK  Name = ZINCrg00000fSITC.0
REMARK                            x       y       z     vdW  Elec       q    Type
REMARK                         _______ _______ _______ _____ _____    ______ ____
ROOT
ATOM      1  C   LIG    1       -0.753   1.593  -1.232  0.00  0.00    +0.060 C 
ENDROOT
BRANCH   1  12
ATOM      2  O   LIG    1       -3.789   1.843  -4.900  0.00  0.00    -0.510 OA
ATOM      3  C   LIG    1       -2.586   1.692  -4.938  0.00  0.00    +0.510 C 
ATOM      4  C   LIG    1       -1.730   2.261  -3.835  0.00  0.00    +0.340 C 
ATOM      5  N   LIG    1       -0.524   1.433  -3.689  0.00  0.00    -0.560 N 
ATOM      6  C   LIG    1        0.119   0.997  -4.859  0.00  0.00    +0.110 A 
ATOM      7  C   LIG    1        1.478   0.760  -4.884  0.00  0.00    +0.060 A 
ATOM      8  C   LIG    1        2.080   0.330  -6.053  0.00  0.00    +0.010 A 
ATOM      9  C   LIG    1        1.322   0.132  -7.193  0.00  0.00    +0.030 A 
ATOM     10  C   LIG    1       -0.042   0.360  -7.174  0.00  0.00    +0.010 A 
ATOM     11  C   LIG    1       -0.653   0.789  -6.007  0.00  0.00    +0.130 A 
ATOM     12  C   LIG    1       -0.047   1.107  -2.471  0.00  0.00    +0.530 C 
ATOM     13  O   LIG    1        0.949   0.422  -2.373  0.00  0.00    -0.510 OA
ATOM     14  N   LIG    1       -2.032   1.020  -5.965  0.00  0.00    -0.660 N 
ATOM     15  H   LIG    1       -2.595   0.692  -6.683  0.00  0.00    +0.420 HD
ENDBRANCH   1  12
BRANCH   1  16
ATOM     16  C   LIG    1       -0.013   1.086   0.008  0.00  0.00    +0.350 C 
BRANCH  16  17
ATOM     17  N   LIG    1       -0.698   1.558   1.213  0.00  0.00    -0.400 N 
ATOM     18  N   LIG    1       -0.324   2.783   1.769  0.00  0.00    -0.510 N 
ATOM     19  H   LIG    1        0.382   3.295   1.345  0.00  0.00    +0.430 HD
ATOM     20  C   LIG    1       -0.914   3.274   2.876  0.00  0.00    +0.570 A 
ATOM     21  C   LIG    1       -1.992   2.501   3.530  0.00  0.00    -0.110 A 
ATOM     22  C   LIG    1       -2.630   2.965   4.672  0.00  0.00    +0.090 A 
ATOM     23  C   LIG    1       -3.634   2.207   5.251  0.00  0.00    +0.040 A 
ATOM     24  C   LIG    1       -4.005   0.994   4.700  0.00  0.00    +0.040 A 
ATOM     25  C   LIG    1       -3.378   0.517   3.561  0.00  0.00    +0.090 A 
ATOM     26  C   LIG    1       -2.370   1.265   2.969  0.00  0.00    -0.110 A 
ATOM     27  O   LIG    1       -0.563   4.343   3.334  0.00  0.00    -0.510 OA
ATOM     28  C   LIG    1       -1.675   0.800   1.749  0.00  0.00    +0.560 A 
ATOM     29  O   LIG    1       -1.979  -0.259   1.236  0.00  0.00    -0.510 OA
ENDBRANCH  16  17
ENDBRANCH   1  16
TORSDOF 3
