REMARK  Name = ZINCqH0000008qKW.0
REMARK                            x       y       z     vdW  Elec       q    Type
REMARK                         _______ _______ _______ _____ _____    ______ ____
ROOT
ATOM      1  C   LIG    1        3.813   2.163   0.063  0.00  0.00    +0.510 C 
ATOM      2  N   LIG    1        4.748   1.617  -0.739  0.00  0.00    -0.660 N 
ATOM      3  H   LIG    1        4.777   0.655  -0.865  0.00  0.00    +0.410 HD
ATOM      4  O   LIG    1        3.834   3.353   0.297  0.00  0.00    -0.520 OA
ENDROOT
BRANCH   2   5
ATOM      5  C   LIG    1        5.677   2.438  -1.392  0.00  0.00    +0.080 A 
ATOM      6  C   LIG    1        5.307   3.708  -1.812  0.00  0.00    +0.060 A 
ATOM      7  C   LIG    1        6.225   4.519  -2.450  0.00  0.00    -0.060 A 
ATOM      8  C   LIG    1        7.515   4.060  -2.681  0.00  0.00    +0.210 A 
ATOM      9  C   LIG    1        7.883   2.787  -2.266  0.00  0.00    -0.060 A 
ATOM     10  C   LIG    1        6.967   1.978  -1.623  0.00  0.00    +0.040 A 
BRANCH   8  11
ATOM     11  N   LIG    1        8.443   4.879  -3.332  0.00  0.00    -0.740 N 
ATOM     12  H   LIG    1        9.344   4.558  -3.494  0.00  0.00    +0.400 HD
BRANCH  11  13
ATOM     13  C   LIG    1        8.054   6.222  -3.770  0.00  0.00    +0.230 C 
ATOM     14  C   LIG    1        7.386   6.137  -5.144  0.00  0.00    +0.000 C 
ATOM     15  C   LIG    1        6.980   7.539  -5.601  0.00  0.00    +0.000 C 
ATOM     16  C   LIG    1        8.223   8.426  -5.693  0.00  0.00    +0.000 C 
ATOM     17  C   LIG    1        8.892   8.511  -4.319  0.00  0.00    +0.010 C 
ATOM     18  C   LIG    1        9.298   7.109  -3.862  0.00  0.00    +0.010 C 
ENDBRANCH  11  13
ENDBRANCH   8  11
ENDBRANCH   2   5
BRANCH   1  20
ATOM     19  C   LIG    1        3.389   0.217   1.540  0.00  0.00    +0.060 C 
ATOM     20  C   LIG    1        2.741   1.296   0.671  0.00  0.00    +0.250 C 
BRANCH  20  21
ATOM     21  N   LIG    1        1.854   2.120   1.496  0.00  0.00    -0.710 N 
ATOM     22  H   LIG    1        2.180   2.950   1.877  0.00  0.00    +0.410 HD
ATOM     23  C   LIG    1        0.586   1.725   1.725  0.00  0.00    +0.590 C 
ATOM     24  O   LIG    1        0.178   0.684   1.247  0.00  0.00    -0.530 OA
BRANCH  23  25
ATOM     25  C   LIG    1       -0.307   2.557   2.550  0.00  0.00    -0.240 A 
ATOM     26  C   LIG    1       -0.004   3.740   3.159  0.00  0.00    +0.240 A 
ATOM     27  O   LIG    1       -1.090   4.172   3.807  0.00  0.00    -0.170 OA
ATOM     28  C   LIG    1       -2.109   3.312   3.659  0.00  0.00    +0.170 A 
ATOM     29  C   LIG    1       -1.710   2.284   2.894  0.00  0.00    +0.000 A 
ENDBRANCH  23  25
ENDBRANCH  20  21
ENDBRANCH   1  20
TORSDOF 6
