REMARK  Name = ZINCvU0000000Dw6.0
REMARK                            x       y       z     vdW  Elec       q    Type
REMARK                         _______ _______ _______ _____ _____    ______ ____
ROOT
ATOM      1  C   LIG    1        0.002  -0.004   0.002  0.00  0.00    +0.180 A 
ATOM      2  N   LIG    1       -0.016   1.298   0.009  0.00  0.00    -0.470 NA
ATOM      3  C   LIG    1        1.148   1.911   0.001  0.00  0.00    +0.080 A 
ATOM      4  C   LIG    1        2.223   1.119  -0.013  0.00  0.00    -0.090 A 
ATOM      5  S   LIG    1        1.675  -0.556  -0.017  0.00  0.00    +0.070 S 
ENDROOT
BRANCH   3   6
ATOM      6  C   LIG    1        1.261   3.413   0.008  0.00  0.00    +0.080 C 
ATOM      7  C   LIG    1        2.469   3.837  -0.831  0.00  0.00    +0.020 C 
ATOM      8  C   LIG    1        2.560   5.367  -0.851  0.00  0.00    +0.280 C 
ATOM      9  N   LIG    1        2.586   5.856   0.534  0.00  0.00    -0.600 N 
ATOM     10  C   LIG    1        1.519   5.435   1.452  0.00  0.00    +0.310 C 
ATOM     11  C   LIG    1        3.568   6.678   0.955  0.00  0.00    +0.650 C 
ATOM     12  O   LIG    1        3.578   7.076   2.102  0.00  0.00    -0.570 OA
ATOM     13  C   LIG    1        1.439   3.905   1.446  0.00  0.00    +0.030 C 
BRANCH  11  14
ATOM     14  O   LIG    1        4.540   7.056   0.102  0.00  0.00    -0.360 OA
BRANCH  14  15
ATOM     15  C   LIG    1        5.566   7.941   0.624  0.00  0.00    +0.140 C 
ATOM     16  C   LIG    1        4.919   9.239   1.113  0.00  0.00    +0.040 C 
ATOM     17  C   LIG    1        6.575   8.259  -0.481  0.00  0.00    +0.080 C 
ATOM     18  C   LIG    1        6.284   7.259   1.790  0.00  0.00    +0.040 C 
ENDBRANCH  14  15
ENDBRANCH  11  14
ENDBRANCH   3   6
BRANCH   1  25
ATOM     19  C   LIG    1       -3.014   0.974   0.050  0.00  0.00    +0.170 C 
ATOM     20  C   LIG    1       -2.536  -0.455   0.030  0.00  0.00    +0.130 A 
ATOM     21  N   LIG    1       -3.296  -1.518   0.025  0.00  0.00    -0.290 NA
ATOM     22  N   LIG    1       -2.476  -2.653   0.011  0.00  0.00    -0.350 N 
ATOM     23  C   LIG    1       -1.191  -2.246   0.001  0.00  0.00    +0.120 A 
ATOM     24  C   LIG    1        0.025  -3.136  -0.015  0.00  0.00    +0.150 C 
ATOM     25  C   LIG    1       -1.191  -0.879   0.009  0.00  0.00    -0.190 A 
BRANCH  22  26
ATOM     26  C   LIG    1       -2.935  -4.044   0.009  0.00  0.00    +0.260 C 
ATOM     27  C   LIG    1       -3.797  -4.296  -1.232  0.00  0.00    +0.010 C 
ATOM     28  C   LIG    1       -4.338  -5.728  -1.184  0.00  0.00    +0.220 C 
ATOM     29  O   LIG    1       -5.082  -5.916   0.021  0.00  0.00    -0.380 OA
ATOM     30  C   LIG    1       -4.314  -5.740   1.214  0.00  0.00    +0.220 C 
ATOM     31  C   LIG    1       -3.773  -4.309   1.264  0.00  0.00    +0.010 C 
ENDBRANCH  22  26
ENDBRANCH   1  25
TORSDOF 5
