REMARK  Name = ZINCqH0000038OTQ.0
REMARK                            x       y       z     vdW  Elec       q    Type
REMARK                         _______ _______ _______ _____ _____    ______ ____
ROOT
ATOM      1  C   LIG    1       -6.625   1.532   1.457  0.00  0.00    +0.520 C 
ATOM      2  N   LIG    1       -7.906   1.860   1.716  0.00  0.00    -0.600 N 
ATOM      3  C   LIG    1       -8.792   2.202   0.586  0.00  0.00    +0.270 C 
ATOM      4  C   LIG    1       -9.688   3.415   0.897  0.00  0.00    +0.020 C 
ATOM      5  C   LIG    1       -8.900   4.463   1.644  0.00  0.00    +0.020 C 
ATOM      6  C   LIG    1       -9.056   4.239   3.145  0.00  0.00    +0.010 C 
ATOM      7  C   LIG    1       -8.117   3.260   3.713  0.00  0.00    +0.040 C 
ATOM      8  C   LIG    1       -8.357   1.857   3.090  0.00  0.00    +0.350 C 
ATOM      9  O   LIG    1       -5.848   1.349   2.370  0.00  0.00    -0.510 OA
ENDROOT
BRANCH   8  10
ATOM     10  C   LIG    1       -7.591   0.817   3.867  0.00  0.00    +0.190 A 
ATOM     11  N   LIG    1       -7.488  -0.444   3.571  0.00  0.00    -0.380 NA
ATOM     12  O   LIG    1       -6.801  -1.013   4.392  0.00  0.00    +0.070 OA
ATOM     13  C   LIG    1       -6.396  -0.145   5.324  0.00  0.00    +0.420 A 
ATOM     14  N   LIG    1       -6.894   1.023   4.999  0.00  0.00    -0.470 NA
ENDBRANCH   8  10
BRANCH   1  15
ATOM     15  C   LIG    1       -6.157   1.393   0.031  0.00  0.00    +0.170 C 
BRANCH  15  18
ATOM     16  C   LIG    1       -4.989  -1.505   0.047  0.00  0.00    +0.190 C 
ATOM     17  C   LIG    1       -4.195  -0.224   0.023  0.00  0.00    -0.020 A 
ATOM     18  C   LIG    1       -4.696   1.024   0.016  0.00  0.00    +0.010 A 
ATOM     19  N   LIG    1       -3.664   1.882  -0.002  0.00  0.00    -0.460 NA
ATOM     20  C   LIG    1       -2.544   1.192  -0.013  0.00  0.00    +0.260 A 
ATOM     21  O   LIG    1       -2.850  -0.118   0.005  0.00  0.00    -0.190 OA
BRANCH  20  22
ATOM     22  C   LIG    1       -1.187   1.757  -0.036  0.00  0.00    -0.140 A 
ATOM     23  C   LIG    1       -0.033   1.035  -0.043  0.00  0.00    +0.050 A 
ATOM     24  C   LIG    1        1.115   1.795  -0.071  0.00  0.00    +0.010 A 
ATOM     25  C   LIG    1        0.922   3.118  -0.081  0.00  0.00    -0.040 A 
ATOM     26  S   LIG    1       -0.800   3.473  -0.055  0.00  0.00    +0.210 S 
ENDBRANCH  20  22
ENDBRANCH  15  18
ENDBRANCH   1  15
TORSDOF 4
