REMARK  Name = ZINCvU0000000BOF.0
REMARK                            x       y       z     vdW  Elec       q    Type
REMARK                         _______ _______ _______ _____ _____    ______ ____
ROOT
ATOM      1  C   LIG    1        6.600   1.095   3.039  0.00  0.00    -0.160 A 
ATOM      2  C   LIG    1        5.506   0.775   3.854  0.00  0.00    +0.200 A 
ATOM      3  C   LIG    1        4.266   0.642   3.288  0.00  0.00    -0.710 A 
ATOM      4  C   LIG    1        4.075   0.833   1.925  0.00  0.00    +0.240 A 
ATOM      5  N   LIG    1        2.780   0.763   1.374  0.00  0.00    -0.570 N 
ATOM      6  C   LIG    1        2.573   1.696   0.282  0.00  0.00    +0.300 C 
ATOM      7  C   LIG    1        1.252   2.263   0.002  0.00  0.00    +0.020 C 
ATOM      8  C   LIG    1       -0.018   1.497   0.010  0.00  0.00    +0.020 C 
ATOM      9  C   LIG    1        0.002  -0.004   0.002  0.00  0.00    +0.060 C 
ATOM     10  C   LIG    1        0.803  -0.667   1.033  0.00  0.00    +0.120 C 
ATOM     11  C   LIG    1        1.837  -0.061   1.875  0.00  0.00    +0.560 C 
ATOM     12  N   LIG    1        1.744  -0.336   3.152  0.00  0.00    -0.940 NA
ATOM     13  C   LIG    1        5.158   1.138   1.109  0.00  0.00    +0.010 A 
ATOM     14  S   LIG    1        2.848   0.221   4.250  0.00  0.00    +2.630 S 
ATOM     15  O   LIG    1        3.216  -0.887   5.060  0.00  0.00    -0.940 OA
ATOM     16  O   LIG    1        2.330   1.438   4.771  0.00  0.00    -0.950 OA
ATOM     17  C   LIG    1        6.414   1.269   1.663  0.00  0.00    +0.080 A 
ATOM     18 CL   LIG    1        7.771   1.652   0.650  0.00  0.00    +0.000 Cl
ENDROOT
BRANCH   1  21
ATOM     19  N   LIG    1        8.120   1.077   4.955  0.00  0.00    -0.720 N 
ATOM     20  H   LIG    1        7.363   0.856   5.521  0.00  0.00    +0.400 HD
ATOM     21  C   LIG    1        7.943   1.246   3.629  0.00  0.00    +0.560 C 
ATOM     22  O   LIG    1        8.891   1.524   2.920  0.00  0.00    -0.500 OA
BRANCH  19  23
ATOM     23  C   LIG    1        9.454   1.228   5.541  0.00  0.00    +0.290 C 
BRANCH  23  24
ATOM     24  C   LIG    1        9.534   0.432   6.818  0.00  0.00    -0.100 A 
ATOM     25  C   LIG    1        8.460   0.413   7.689  0.00  0.00    +0.000 A 
ATOM     26  C   LIG    1        8.533  -0.320   8.859  0.00  0.00    +0.020 A 
ATOM     27  C   LIG    1        9.681  -1.027   9.162  0.00  0.00    +0.000 A 
ATOM     28  C   LIG    1       10.756  -1.004   8.293  0.00  0.00    +0.020 A 
ATOM     29  C   LIG    1       10.683  -0.274   7.122  0.00  0.00    +0.020 A 
ENDBRANCH  23  24
BRANCH  23  30
ATOM     30  C   LIG    1        9.714   2.705   5.843  0.00  0.00    +0.020 C 
BRANCH  30  32
ATOM     31  C   LIG    1       10.017   4.971   4.835  0.00  0.00    +0.000 C 
ATOM     32  C   LIG    1        9.756   3.494   4.533  0.00  0.00    +0.010 C 
ENDBRANCH  30  32
ENDBRANCH  23  30
ENDBRANCH  19  23
ENDBRANCH   1  21
TORSDOF 5
