REMARK  Name = ZINCrD00000hQ6Al.0
REMARK                            x       y       z     vdW  Elec       q    Type
REMARK                         _______ _______ _______ _____ _____    ______ ____
ROOT
ATOM      1  C   LIG    1        1.712  -3.059  -3.755  0.00  0.00    +0.240 C 
ATOM      2  C   LIG    1        3.204  -3.472  -3.797  0.00  0.00    +0.030 C 
ATOM      3  C   LIG    1        3.174  -4.980  -3.404  0.00  0.00    +0.240 C 
ATOM      4  C   LIG    1        2.579  -5.711  -4.645  0.00  0.00    +0.030 C 
ATOM      5  C   LIG    1        1.069  -5.295  -4.595  0.00  0.00    +0.040 C 
ATOM      6  N   LIG    1        2.014  -5.005  -2.449  0.00  0.00    -0.630 N 
ATOM      7  C   LIG    1        1.925  -5.455  -1.182  0.00  0.00    +0.590 C 
ATOM      8  O   LIG    1        0.891  -5.317  -0.558  0.00  0.00    -0.530 OA
ATOM      9  C   LIG    1        0.984  -4.373  -3.341  0.00  0.00    +0.250 C 
ENDROOT
BRANCH   7  10
ATOM     10  C   LIG    1        3.086  -6.118  -0.550  0.00  0.00    -0.130 A 
ATOM     11  C   LIG    1        4.382  -5.698  -0.850  0.00  0.00    +0.060 A 
ATOM     12  C   LIG    1        5.461  -6.317  -0.253  0.00  0.00    +0.020 A 
ATOM     13  C   LIG    1        5.260  -7.360   0.633  0.00  0.00    +0.080 A 
ATOM     14  C   LIG    1        3.977  -7.786   0.931  0.00  0.00    -0.170 A 
ATOM     15  C   LIG    1        2.890  -7.172   0.345  0.00  0.00    +0.110 A 
BRANCH  14  16
ATOM     16  C   LIG    1        3.768  -8.923   1.897  0.00  0.00    +0.440 C 
ATOM     17  F   LIG    1        2.546  -8.755   2.558  0.00  0.00    -0.200 F 
ATOM     18  F   LIG    1        4.807  -8.937   2.834  0.00  0.00    -0.200 F 
ENDBRANCH  14  16
ENDBRANCH   7  10
BRANCH   1  20
ATOM     19  C   LIG    1        1.668  -0.717  -3.084  0.00  0.00    +0.520 C 
ATOM     20  N   LIG    1        1.495  -2.012  -2.753  0.00  0.00    -0.730 N 
ATOM     21  H   LIG    1        1.227  -2.250  -1.852  0.00  0.00    +0.400 HD
ATOM     22  O   LIG    1        2.004  -0.418  -4.211  0.00  0.00    -0.540 OA
BRANCH  19  23
ATOM     23  C   LIG    1        1.445   0.360  -2.054  0.00  0.00    +0.050 C 
BRANCH  23  24
ATOM     24  C   LIG    1        1.707   1.730  -2.684  0.00  0.00    +0.060 C 
BRANCH  24  25
ATOM     25  C   LIG    1        1.480   2.824  -1.638  0.00  0.00    +0.140 C 
ATOM     26  C   LIG    1        1.862   4.182  -2.230  0.00  0.00    +0.020 C 
BRANCH  25  28
ATOM     27  C   LIG    1       -0.123   3.271   0.087  0.00  0.00    +0.200 C 
ATOM     28  O   LIG    1        0.103   2.840  -1.257  0.00  0.00    -0.380 OA
ENDBRANCH  25  28
ENDBRANCH  24  25
ENDBRANCH  23  24
ENDBRANCH  19  23
ENDBRANCH   1  20
TORSDOF 7
