REMARK  Name = ZINCvU0000000Acv.0
REMARK                            x       y       z     vdW  Elec       q    Type
REMARK                         _______ _______ _______ _____ _____    ______ ____
ROOT
ATOM      1  N   LIG    1       -1.191   1.870   0.018  0.00  0.00    -0.660 N 
ATOM      2  H   LIG    1       -1.205   2.837   0.093  0.00  0.00    +0.410 HD
ATOM      3  C   LIG    1       -0.015   1.212   0.013  0.00  0.00    +0.560 C 
ATOM      4  O   LIG    1        0.002  -0.004   0.001  0.00  0.00    -0.490 OA
ENDROOT
BRANCH   1  17
ATOM      5  C   LIG    1       -3.467   1.710  -0.784  0.00  0.00    +0.090 A 
ATOM      6  C   LIG    1       -4.654   1.011  -0.889  0.00  0.00    +0.000 A 
ATOM      7  C   LIG    1       -4.772  -0.243  -0.296  0.00  0.00    -0.100 A 
ATOM      8  C   LIG    1       -3.694  -0.801   0.405  0.00  0.00    +0.070 A 
ATOM      9  O   LIG    1       -4.069  -2.012   0.876  0.00  0.00    -0.190 OA
ATOM     10  C   LIG    1       -5.341  -2.306   0.531  0.00  0.00    +0.090 A 
ATOM     11  C   LIG    1       -6.147  -3.411   0.780  0.00  0.00    +0.020 A 
ATOM     12  C   LIG    1       -7.438  -3.449   0.298  0.00  0.00    +0.060 A 
ATOM     13  C   LIG    1       -7.947  -2.390  -0.438  0.00  0.00    -0.010 A 
ATOM     14  C   LIG    1       -7.163  -1.285  -0.695  0.00  0.00    +0.070 A 
ATOM     15  C   LIG    1       -2.503  -0.091   0.499  0.00  0.00    +0.080 A 
ATOM     16  C   LIG    1       -5.859  -1.237  -0.213  0.00  0.00    -0.120 A 
ATOM     17  C   LIG    1       -2.392   1.158  -0.086  0.00  0.00    +0.160 A 
BRANCH   5  19
ATOM     18  C   LIG    1       -4.487   3.440  -2.059  0.00  0.00    +0.250 C 
ATOM     19  O   LIG    1       -3.347   2.937  -1.361  0.00  0.00    -0.310 OA
ENDBRANCH   5  19
ENDBRANCH   1  17
BRANCH   3  20
ATOM     20  C   LIG    1        1.253   1.966   0.015  0.00  0.00    -0.180 A 
ATOM     21  C   LIG    1        1.239   3.363   0.022  0.00  0.00    +0.090 A 
ATOM     22  C   LIG    1        2.427   4.062   0.029  0.00  0.00    -0.040 A 
ATOM     23  C   LIG    1        3.636   3.386   0.018  0.00  0.00    +0.080 A 
ATOM     24  C   LIG    1        3.664   2.005   0.006  0.00  0.00    -0.080 A 
ATOM     25  C   LIG    1        2.478   1.286   0.004  0.00  0.00    +0.190 A 
BRANCH  25  26
ATOM     26  O   LIG    1        2.505  -0.071  -0.008  0.00  0.00    -0.270 OA
BRANCH  26  27
ATOM     27  C   LIG    1        3.790  -0.695  -0.019  0.00  0.00    +0.200 C 
BRANCH  27  28
ATOM     28  C   LIG    1        3.619  -2.215  -0.031  0.00  0.00    +0.160 C 
ATOM     29  C   LIG    1        4.994  -2.896  -0.169  0.00  0.00    +0.010 C 
ATOM     30  C   LIG    1        5.103  -3.790   1.091  0.00  0.00    +0.000 C 
ATOM     31  C   LIG    1        3.619  -3.946   1.507  0.00  0.00    +0.190 C 
ATOM     32  O   LIG    1        3.048  -2.653   1.214  0.00  0.00    -0.360 OA
ENDBRANCH  27  28
ENDBRANCH  26  27
ENDBRANCH  25  26
ENDBRANCH   3  20
TORSDOF 6
