REMARK  Name = ZINCvU0000000JeI.0
REMARK                            x       y       z     vdW  Elec       q    Type
REMARK                         _______ _______ _______ _____ _____    ______ ____
ROOT
ATOM      1  C   LIG    1       -2.871   0.635  -1.405  0.00  0.00    -0.150 A 
ATOM      2  C   LIG    1       -2.337  -0.411  -2.053  0.00  0.00    +0.070 A 
ATOM      3  S   LIG    1       -3.042  -0.530  -3.660  0.00  0.00    +0.210 S 
ATOM      4  C   LIG    1       -4.047   0.881  -3.357  0.00  0.00    -0.230 A 
ATOM      5  C   LIG    1       -5.024   1.477  -4.338  0.00  0.00    +0.130 C 
ATOM      6  C   LIG    1       -3.818   1.341  -2.127  0.00  0.00    -0.080 A 
ATOM      7  C   LIG    1       -4.533   2.543  -1.566  0.00  0.00    +0.100 C 
ENDROOT
BRANCH   2   8
ATOM      8  N   LIG    1       -1.370  -1.273  -1.532  0.00  0.00    -0.620 N 
ATOM      9  H   LIG    1       -1.098  -1.193  -0.604  0.00  0.00    +0.430 HD
ATOM     10  C   LIG    1       -0.814  -2.217  -2.318  0.00  0.00    +0.550 C 
ATOM     11  O   LIG    1       -1.155  -2.317  -3.481  0.00  0.00    -0.510 OA
BRANCH  10  12
ATOM     12  C   LIG    1        0.209  -3.129  -1.766  0.00  0.00    -0.130 A 
ATOM     13  C   LIG    1        0.607  -3.013  -0.433  0.00  0.00    +0.030 A 
ATOM     14  C   LIG    1        1.560  -3.870   0.076  0.00  0.00    +0.010 A 
ATOM     15  C   LIG    1        2.128  -4.838  -0.734  0.00  0.00    +0.040 A 
ATOM     16  C   LIG    1        1.742  -4.955  -2.057  0.00  0.00    +0.000 A 
ATOM     17  C   LIG    1        0.787  -4.107  -2.578  0.00  0.00    +0.090 A 
ENDBRANCH  10  12
ENDBRANCH   2   8
BRANCH   1  18
ATOM     18  C   LIG    1       -2.475   1.008   0.000  0.00  0.00    +0.260 C 
BRANCH  18  23
ATOM     19  C   LIG    1        0.125   3.749  -0.078  0.00  0.00    +0.130 A 
ATOM     20  C   LIG    1        1.300   3.013  -0.075  0.00  0.00    -0.080 A 
ATOM     21  C   LIG    1        1.249   1.632  -0.043  0.00  0.00    +0.050 A 
ATOM     22  C   LIG    1        0.028   0.985  -0.015  0.00  0.00    -0.020 A 
ATOM     23  C   LIG    1       -1.146   1.717  -0.024  0.00  0.00    -0.030 A 
ATOM     24  C   LIG    1       -1.100   3.097  -0.049  0.00  0.00    -0.010 A 
BRANCH  19  26
ATOM     25  C   LIG    1        1.468   5.710  -0.139  0.00  0.00    +0.250 C 
ATOM     26  O   LIG    1        0.172   5.107  -0.110  0.00  0.00    -0.320 OA
ENDBRANCH  19  26
ENDBRANCH  18  23
BRANCH  18  27
ATOM     27  N   LIG    1       -2.368  -0.207   0.818  0.00  0.00    -0.540 NA
ATOM     28  C   LIG    1       -3.623  -0.971   0.794  0.00  0.00    +0.160 C 
ATOM     29  C   LIG    1       -3.448  -2.256   1.608  0.00  0.00    +0.220 C 
ATOM     30  O   LIG    1       -3.044  -1.920   2.938  0.00  0.00    -0.380 OA
ATOM     31  C   LIG    1       -1.824  -1.177   2.998  0.00  0.00    +0.220 C 
ATOM     32  C   LIG    1       -1.982   0.119   2.199  0.00  0.00    +0.150 C 
ENDBRANCH  18  27
ENDBRANCH   1  18
TORSDOF 6
