REMARK  Name = ZINCrH00000tj1d1.0
REMARK                            x       y       z     vdW  Elec       q    Type
REMARK                         _______ _______ _______ _____ _____    ______ ____
ROOT
ATOM      1  C   LIG    1        4.707   0.823   1.412  0.00  0.00    +0.200 A 
ATOM      2  C   LIG    1        5.871   1.537   1.661  0.00  0.00    +0.050 A 
ATOM      3  C   LIG    1        6.183   2.642   0.894  0.00  0.00    +0.050 A 
ATOM      4  C   LIG    1        5.338   3.046  -0.129  0.00  0.00    +0.080 A 
ATOM      5  C   LIG    1        4.179   2.344  -0.394  0.00  0.00    +0.040 A 
ATOM      6  F   LIG    1        5.654   4.128  -0.874  0.00  0.00    -0.130 F 
ATOM      7  C   LIG    1        3.850   1.228   0.378  0.00  0.00    -0.140 A 
ENDROOT
BRANCH   1   9
ATOM      8  C   LIG    1        5.351  -1.184   2.507  0.00  0.00    +0.550 C 
ATOM      9  N   LIG    1        4.392  -0.293   2.186  0.00  0.00    -0.660 N 
ATOM     10  H   LIG    1        3.482  -0.428   2.494  0.00  0.00    +0.420 HD
ATOM     11  O   LIG    1        6.505  -0.970   2.199  0.00  0.00    -0.520 OA
BRANCH   8  15
ATOM     12  C   LIG    1        7.538  -3.032   3.140  0.00  0.00    +0.070 C 
ATOM     13  C   LIG    1        6.125  -3.416   3.583  0.00  0.00    -0.010 C 
ATOM     14  C   LIG    1        5.113  -3.769   2.491  0.00  0.00    +0.060 C 
ATOM     15  C   LIG    1        4.991  -2.445   3.248  0.00  0.00    -0.060 C 
ENDBRANCH   8  15
ENDBRANCH   1   9
BRANCH   7  16
ATOM     16  C   LIG    1        2.611   0.476   0.104  0.00  0.00    +0.570 C 
ATOM     17  N   LIG    1        1.787   0.872  -0.886  0.00  0.00    -0.720 N 
ATOM     18  H   LIG    1        2.009   1.651  -1.419  0.00  0.00    +0.400 HD
ATOM     19  O   LIG    1        2.333  -0.501   0.772  0.00  0.00    -0.530 OA
BRANCH  17  20
ATOM     20  C   LIG    1        0.557   0.125  -1.158  0.00  0.00    +0.250 C 
ATOM     21  C   LIG    1        0.130   0.346  -2.614  0.00  0.00    +0.020 C 
ATOM     22  C   LIG    1       -1.006  -0.625  -2.934  0.00  0.00    +0.080 C 
ATOM     23  C   LIG    1       -2.091  -0.533  -1.893  0.00  0.00    -0.080 A 
ATOM     24  C   LIG    1       -3.339  -1.053  -2.212  0.00  0.00    +0.000 A 
ATOM     25  C   LIG    1       -4.371  -1.010  -1.297  0.00  0.00    +0.000 A 
ATOM     26  C   LIG    1       -4.162  -0.445  -0.053  0.00  0.00    +0.000 A 
ATOM     27  C   LIG    1       -2.924   0.075   0.264  0.00  0.00    +0.000 A 
ATOM     28  C   LIG    1       -1.885   0.035  -0.656  0.00  0.00    -0.070 A 
ATOM     29  C   LIG    1       -0.561   0.625  -0.246  0.00  0.00    +0.070 C 
ENDBRANCH  17  20
ENDBRANCH   7  16
TORSDOF 4
