REMARK  Name = ZINCpe000000VXk1.0
REMARK                            x       y       z     vdW  Elec       q    Type
REMARK                         _______ _______ _______ _____ _____    ______ ____
ROOT
ATOM      1  N   LIG    1        0.012   0.532   0.420  0.00  0.00    -1.120 NA
ATOM      2  H   LIG    1        0.100  -0.412   0.213  0.00  0.00    +0.420 HD
ENDROOT
BRANCH   1   3
ATOM      3  S   LIG    1       -1.483   1.176   0.725  0.00  0.00    +2.700 S 
ATOM      4  O   LIG    1       -1.356   1.936   1.919  0.00  0.00    -0.950 OA
ATOM      5  O   LIG    1       -2.416   0.115   0.574  0.00  0.00    -0.960 OA
BRANCH   3   6
ATOM      6  C   LIG    1       -1.827   2.328  -0.564  0.00  0.00    -0.680 A 
ATOM      7  C   LIG    1       -1.459   3.652  -0.421  0.00  0.00    +0.140 A 
ATOM      8  C   LIG    1       -1.722   4.559  -1.431  0.00  0.00    -0.050 A 
ATOM      9  C   LIG    1       -2.365   4.143  -2.585  0.00  0.00    +0.160 A 
ATOM     10  C   LIG    1       -2.741   2.810  -2.727  0.00  0.00    +0.080 A 
ATOM     11  C   LIG    1       -2.469   1.906  -1.713  0.00  0.00    +0.070 A 
BRANCH  10  12
ATOM     12  O   LIG    1       -3.372   2.397  -3.858  0.00  0.00    -0.300 OA
ATOM     13  C   LIG    1       -3.728   1.014  -3.934  0.00  0.00    +0.250 C 
ENDBRANCH  10  12
BRANCH   9  14
ATOM     14  O   LIG    1       -2.630   5.035  -3.577  0.00  0.00    -0.300 OA
ATOM     15  C   LIG    1       -2.216   6.385  -3.363  0.00  0.00    +0.250 C 
ENDBRANCH   9  14
ENDBRANCH   3   6
ENDBRANCH   1   3
BRANCH   1  16
ATOM     16  C   LIG    1        1.200   1.388   0.457  0.00  0.00    +0.300 C 
BRANCH  16  17
ATOM     17  C   LIG    1        2.456   0.515   0.510  0.00  0.00    +0.060 C 
BRANCH  17  19
ATOM     18  N   LIG    1        4.906   0.843   0.598  0.00  0.00    -0.610 N 
ATOM     19  C   LIG    1        3.678   1.396   0.548  0.00  0.00    +0.520 C 
ATOM     20  O   LIG    1        3.557   2.603   0.534  0.00  0.00    -0.540 OA
ATOM     21  C   LIG    1        5.053  -0.615   0.614  0.00  0.00    +0.290 C 
BRANCH  18  22
ATOM     22  C   LIG    1        6.094   1.699   0.635  0.00  0.00    +0.250 C 
ATOM     23  C   LIG    1        7.051   1.292  -0.488  0.00  0.00    +0.040 C 
BRANCH  22  24
ATOM     24  C   LIG    1        6.796   1.539   1.985  0.00  0.00    +0.160 C 
BRANCH  24  26
ATOM     25  C   LIG    1        7.980  -0.047   3.336  0.00  0.00    +0.200 C 
ATOM     26  O   LIG    1        7.303   0.209   2.104  0.00  0.00    -0.390 OA
ENDBRANCH  24  26
ENDBRANCH  22  24
ENDBRANCH  18  22
ENDBRANCH  17  19
ENDBRANCH  16  17
ENDBRANCH   1  16
TORSDOF 10
