REMARK  Name = ZINCvU0000000GSe.0
REMARK                            x       y       z     vdW  Elec       q    Type
REMARK                         _______ _______ _______ _____ _____    ______ ____
ROOT
ATOM      1  O   LIG    1       -0.007  -2.611  -0.012  0.00  0.00    -0.500 OA
ATOM      2  C   LIG    1        1.107  -2.132  -0.020  0.00  0.00    +0.520 C 
ATOM      3  N   LIG    1        2.187  -2.938  -0.035  0.00  0.00    -0.610 N 
ATOM      4  C   LIG    1        3.543  -2.373  -0.051  0.00  0.00    +0.270 C 
ATOM      5  C   LIG    1        4.317  -2.972  -1.224  0.00  0.00    +0.030 C 
ATOM      6  C   LIG    1        4.273  -4.499  -1.135  0.00  0.00    +0.030 C 
ATOM      7  C   LIG    1        2.821  -4.975  -1.220  0.00  0.00    +0.080 C 
ATOM      8  C   LIG    1        2.030  -4.399  -0.041  0.00  0.00    +0.300 C 
ENDROOT
BRANCH   7   9
ATOM      9  C   LIG    1        2.782  -6.480  -1.165  0.00  0.00    +0.100 A 
ATOM     10  N   LIG    1        2.297  -7.222  -2.088  0.00  0.00    -0.460 NA
ATOM     11  C   LIG    1        2.328  -8.555  -1.905  0.00  0.00    +0.080 A 
ATOM     12  C   LIG    1        1.871  -9.590  -2.746  0.00  0.00    +0.080 A 
ATOM     13  C   LIG    1        1.999 -10.893  -2.368  0.00  0.00    +0.030 A 
ATOM     14  C   LIG    1        2.579 -11.226  -1.153  0.00  0.00    +0.040 A 
ATOM     15  C   LIG    1        3.034 -10.236  -0.311  0.00  0.00    +0.060 A 
ATOM     16  C   LIG    1        2.912  -8.899  -0.680  0.00  0.00    -0.180 A 
ATOM     17  S   LIG    1        3.384  -7.410   0.134  0.00  0.00    +0.110 S 
ENDBRANCH   7   9
BRANCH   2  18
ATOM     18  C   LIG    1        1.284  -0.635  -0.014  0.00  0.00    +0.220 C 
BRANCH  18  19
ATOM     19  O   LIG    1        0.002  -0.004   0.002  0.00  0.00    -0.280 OA
BRANCH  19  20
ATOM     20  C   LIG    1       -0.016   1.354   0.009  0.00  0.00    +0.140 A 
ATOM     21  C   LIG    1        1.172   2.066   0.002  0.00  0.00    -0.080 A 
ATOM     22  C   LIG    1        1.152   3.448   0.009  0.00  0.00    +0.050 A 
ATOM     23  C   LIG    1       -0.052   4.128   0.023  0.00  0.00    -0.020 A 
ATOM     24  C   LIG    1       -1.244   3.432   0.031  0.00  0.00    +0.060 A 
ATOM     25  C   LIG    1       -1.235   2.039   0.019  0.00  0.00    -0.070 A 
BRANCH  25  26
ATOM     26  C   LIG    1       -2.513   1.286   0.021  0.00  0.00    -0.040 A 
ATOM     27  C   LIG    1       -2.729   0.272  -0.910  0.00  0.00    +0.040 A 
ATOM     28  C   LIG    1       -3.918  -0.429  -0.899  0.00  0.00    +0.000 A 
ATOM     29  C   LIG    1       -4.898  -0.119   0.026  0.00  0.00    +0.000 A 
ATOM     30  C   LIG    1       -4.692   0.890   0.949  0.00  0.00    +0.000 A 
ATOM     31  C   LIG    1       -3.505   1.594   0.951  0.00  0.00    +0.010 A 
ENDBRANCH  25  26
ENDBRANCH  19  20
ENDBRANCH  18  19
ENDBRANCH   2  18
TORSDOF 5
