REMARK  Name = ZINCrH000004mC9m.0
REMARK                            x       y       z     vdW  Elec       q    Type
REMARK                         _______ _______ _______ _____ _____    ______ ____
ROOT
ATOM      1  N   LIG    1        1.711   5.316  -1.279  0.00  0.00    -0.600 N 
ATOM      2  C   LIG    1        1.788   3.977  -1.139  0.00  0.00    +0.500 C 
ATOM      3  O   LIG    1        2.378   3.499  -0.194  0.00  0.00    -0.480 OA
ENDROOT
BRANCH   1   4
ATOM      4  C   LIG    1        2.427   6.191  -0.347  0.00  0.00    +0.280 C 
ATOM      5  C   LIG    1        1.844   6.027   1.058  0.00  0.00    +0.030 C 
BRANCH   4   6
ATOM      6  C   LIG    1        3.910   5.816  -0.331  0.00  0.00    -0.060 C 
ATOM      7  C   LIG    1        4.463   5.180   0.945  0.00  0.00    +0.040 C 
ATOM      8  C   LIG    1        4.832   6.620   0.586  0.00  0.00    +0.000 C 
ENDBRANCH   4   6
ENDBRANCH   1   4
BRANCH   1   9
ATOM      9  C   LIG    1        0.912   5.894  -2.361  0.00  0.00    +0.340 C 
BRANCH   9  13
ATOM     10  C   LIG    1       -2.968   6.907  -0.884  0.00  0.00    +0.140 A 
ATOM     11  C   LIG    1       -1.933   7.827  -0.806  0.00  0.00    -0.020 A 
ATOM     12  C   LIG    1       -0.680   7.497  -1.284  0.00  0.00    +0.070 A 
ATOM     13  C   LIG    1       -0.456   6.251  -1.840  0.00  0.00    -0.150 A 
ATOM     14  C   LIG    1       -1.488   5.334  -1.924  0.00  0.00    +0.050 A 
ATOM     15  C   LIG    1       -2.741   5.657  -1.442  0.00  0.00    -0.080 A 
BRANCH  10  17
ATOM     16  C   LIG    1       -5.220   6.232  -0.527  0.00  0.00    +0.250 C 
ATOM     17  O   LIG    1       -4.202   7.229  -0.415  0.00  0.00    -0.320 OA
ENDBRANCH  10  17
ENDBRANCH   9  13
ENDBRANCH   1   9
BRANCH   2  18
ATOM     18  C   LIG    1        1.141   3.075  -2.158  0.00  0.00    +0.360 C 
BRANCH  18  19
ATOM     19  N   LIG    1        1.303   1.678  -1.747  0.00  0.00    -0.340 N 
ATOM     20  C   LIG    1        0.311   0.778  -1.584  0.00  0.00    +0.250 A 
ATOM     21  C   LIG    1        0.874  -0.391  -1.200  0.00  0.00    -0.060 A 
ATOM     22  C   LIG    1        2.257  -0.199  -1.126  0.00  0.00    -0.020 A 
ATOM     23  N   LIG    1        2.516   1.041  -1.453  0.00  0.00    -0.200 NA
BRANCH  22  24
ATOM     24  C   LIG    1        3.274  -1.240  -0.735  0.00  0.00    +0.560 C 
ATOM     25  F   LIG    1        3.288  -2.260  -1.692  0.00  0.00    -0.170 F 
ATOM     26  F   LIG    1        2.938  -1.775   0.513  0.00  0.00    -0.170 F 
ATOM     27  F   LIG    1        4.541  -0.650  -0.664  0.00  0.00    -0.170 F 
ENDBRANCH  22  24
ENDBRANCH  18  19
ENDBRANCH   2  18
TORSDOF 8
