REMARK  Name = ZINCvU0000000HZp.0
REMARK                            x       y       z     vdW  Elec       q    Type
REMARK                         _______ _______ _______ _____ _____    ______ ____
ROOT
ATOM      1  C   LIG    1       -1.980   2.069  -5.685  0.00  0.00    +0.550 C 
ATOM      2  O   LIG    1       -0.805   1.917  -5.957  0.00  0.00    -0.510 OA
ENDROOT
BRANCH   1   6
ATOM      3  C   LIG    1       -6.472   1.741  -8.080  0.00  0.00    +0.140 C 
ATOM      4  C   LIG    1       -5.000   1.725  -7.760  0.00  0.00    +0.010 A 
ATOM      5  C   LIG    1       -4.459   1.999  -6.560  0.00  0.00    +0.030 A 
ATOM      6  C   LIG    1       -3.006   1.865  -6.719  0.00  0.00    -0.220 A 
ATOM      7  C   LIG    1       -2.800   1.503  -8.033  0.00  0.00    +0.130 A 
ATOM      8  C   LIG    1       -1.463   1.243  -8.678  0.00  0.00    +0.150 C 
ATOM      9  N   LIG    1       -4.000   1.424  -8.642  0.00  0.00    -0.390 N 
BRANCH   9  10
ATOM     10  C   LIG    1       -4.195   1.082  -9.988  0.00  0.00    +0.090 A 
ATOM     11  C   LIG    1       -3.724   1.916 -10.992  0.00  0.00    +0.060 A 
ATOM     12  C   LIG    1       -3.913   1.575 -12.317  0.00  0.00    +0.010 A 
ATOM     13  C   LIG    1       -4.581   0.407 -12.644  0.00  0.00    +0.110 A 
ATOM     14  C   LIG    1       -5.056  -0.424 -11.643  0.00  0.00    +0.010 A 
ATOM     15  F   LIG    1       -4.769   0.078 -13.941  0.00  0.00    -0.130 F 
ATOM     16  C   LIG    1       -4.865  -0.089 -10.317  0.00  0.00    +0.070 A 
ENDBRANCH   9  10
ENDBRANCH   1   6
BRANCH   1  17
ATOM     17  O   LIG    1       -2.343   2.424  -4.436  0.00  0.00    -0.330 OA
BRANCH  17  18
ATOM     18  C   LIG    1       -1.278   2.607  -3.467  0.00  0.00    +0.310 C 
BRANCH  18  19
ATOM     19  C   LIG    1       -1.869   2.999  -2.138  0.00  0.00    +0.460 C 
ATOM     20  O   LIG    1       -3.066   3.112  -2.019  0.00  0.00    -0.480 OA
BRANCH  19  21
ATOM     21  O   LIG    1       -1.067   3.223  -1.086  0.00  0.00    -0.350 OA
BRANCH  21  22
ATOM     22  C   LIG    1       -1.706   3.597   0.163  0.00  0.00    +0.190 C 
ATOM     23  C   LIG    1       -1.835   5.120   0.234  0.00  0.00    +0.010 C 
ATOM     24  C   LIG    1       -2.509   5.513   1.550  0.00  0.00    -0.020 C 
ATOM     25  C   LIG    1       -1.662   5.019   2.724  0.00  0.00    +0.020 C 
ATOM     26  C   LIG    1       -1.532   3.496   2.654  0.00  0.00    +0.030 C 
ATOM     27  C   LIG    1       -2.639   7.036   1.621  0.00  0.00    +0.030 C 
ATOM     28  C   LIG    1       -0.859   3.102   1.337  0.00  0.00    +0.000 C 
BRANCH  28  29
ATOM     29  C   LIG    1       -0.729   1.579   1.267  0.00  0.00    -0.010 C 
ATOM     30  C   LIG    1       -2.107   0.941   1.454  0.00  0.00    +0.010 C 
ATOM     31  C   LIG    1        0.212   1.096   2.372  0.00  0.00    +0.020 C 
ENDBRANCH  28  29
ENDBRANCH  21  22
ENDBRANCH  19  21
ENDBRANCH  18  19
ENDBRANCH  17  18
ENDBRANCH   1  17
TORSDOF 8
