REMARK  Name = ZINCnE000001IVXI.0
REMARK                            x       y       z     vdW  Elec       q    Type
REMARK                         _______ _______ _______ _____ _____    ______ ____
ROOT
ATOM      1  S   LIG    1       -2.001   2.372   1.453  0.00  0.00    +2.720 S 
ATOM      2  O   LIG    1       -1.537   1.388   2.367  0.00  0.00    -0.930 OA
ATOM      3  O   LIG    1       -3.375   2.553   1.137  0.00  0.00    -0.950 OA
ENDROOT
BRANCH   1   4
ATOM      4  C   LIG    1       -1.422   3.924   2.055  0.00  0.00    -0.680 A 
ATOM      5  C   LIG    1       -2.206   4.977   2.173  0.00  0.00    +0.120 A 
ATOM      6  S   LIG    1       -1.330   6.359   2.802  0.00  0.00    +0.110 S 
ATOM      7  C   LIG    1        0.173   5.450   2.896  0.00  0.00    -0.150 A 
ATOM      8  C   LIG    1        1.446   5.841   3.320  0.00  0.00    +0.040 A 
ATOM      9  C   LIG    1        2.486   4.941   3.304  0.00  0.00    +0.030 A 
ATOM     10  C   LIG    1        2.277   3.640   2.867  0.00  0.00    +0.020 A 
ATOM     11  C   LIG    1        1.045   3.239   2.450  0.00  0.00    +0.070 A 
ATOM     12  C   LIG    1       -0.041   4.141   2.455  0.00  0.00    -0.020 A 
ENDBRANCH   1   4
BRANCH   1  14
ATOM     13  C   LIG    1       -1.815   2.545  -1.239  0.00  0.00    +0.300 C 
ATOM     14  N   LIG    1       -1.225   2.083   0.019  0.00  0.00    -0.920 N 
BRANCH  14  15
ATOM     15  C   LIG    1       -0.017   1.401   0.010  0.00  0.00    +0.150 A 
ATOM     16  C   LIG    1        1.181   2.104   0.002  0.00  0.00    -0.010 A 
ATOM     17  C   LIG    1        2.382   1.425  -0.013  0.00  0.00    -0.010 A 
ATOM     18  C   LIG    1        2.405   0.039  -0.021  0.00  0.00    -0.010 A 
ATOM     19  C   LIG    1        1.228  -0.677  -0.013  0.00  0.00    +0.050 A 
ATOM     20  C   LIG    1        0.002  -0.004   0.002  0.00  0.00    -0.110 A 
BRANCH  20  21
ATOM     21  C   LIG    1       -1.258  -0.761   0.011  0.00  0.00    +0.520 C 
ATOM     22  O   LIG    1       -2.328  -0.169   0.024  0.00  0.00    -0.680 OA
ATOM     23  O   LIG    1       -1.237  -1.985   0.004  0.00  0.00    -0.680 OA
ENDBRANCH  20  21
ENDBRANCH  14  15
ENDBRANCH   1  14
TORSDOF 4
