REMARK  Name = ZINCzw00000005PQ.0
REMARK                            x       y       z     vdW  Elec       q    Type
REMARK                         _______ _______ _______ _____ _____    ______ ____
ROOT
ATOM      1  C   LIG    1       -7.003  -0.194   4.005  0.00  0.00    +0.240 C 
ATOM      2  C   LIG    1       -8.386  -0.845   3.893  0.00  0.00    +0.330 C 
ATOM      3  N   LIG    1       -8.210  -2.258   3.524  0.00  0.00    -0.600 N 
ATOM      4  C   LIG    1       -7.359  -2.573   2.367  0.00  0.00    +0.310 C 
ATOM      5  C   LIG    1       -6.017  -1.855   2.538  0.00  0.00    +0.180 C 
ATOM      6  C   LIG    1       -8.810  -3.237   4.229  0.00  0.00    +0.660 C 
ATOM      7  O   LIG    1       -9.510  -2.958   5.183  0.00  0.00    -0.560 OA
ATOM      8  N   LIG    1       -6.257  -0.422   2.761  0.00  0.00    -0.510 NA
ENDROOT
BRANCH   1  14
ATOM      9  C   LIG    1       -6.581   1.316   6.677  0.00  0.00    +0.330 C 
ATOM     10  N   LIG    1       -6.973   1.928   5.405  0.00  0.00    -0.450 N 
ATOM     11  C   LIG    1       -7.213   3.258   5.184  0.00  0.00    +0.140 A 
ATOM     12  C   LIG    1       -7.548   3.382   3.885  0.00  0.00    +0.150 A 
ATOM     13  N   LIG    1       -7.509   2.162   3.328  0.00  0.00    -0.460 NA
ATOM     14  C   LIG    1       -7.162   1.287   4.232  0.00  0.00    +0.180 A 
ENDBRANCH   1  14
BRANCH   6  15
ATOM     15  O   LIG    1       -8.636  -4.524   3.876  0.00  0.00    -0.360 OA
BRANCH  15  16
ATOM     16  C   LIG    1       -9.313  -5.526   4.680  0.00  0.00    +0.140 C 
ATOM     17  C   LIG    1       -8.832  -5.428   6.129  0.00  0.00    +0.030 C 
ATOM     18  C   LIG    1       -8.999  -6.919   4.130  0.00  0.00    +0.080 C 
ATOM     19  C   LIG    1      -10.824  -5.286   4.627  0.00  0.00    +0.030 C 
ENDBRANCH  15  16
ENDBRANCH   6  15
BRANCH   8  20
ATOM     20  C   LIG    1       -4.995   0.329   2.759  0.00  0.00    +0.180 C 
BRANCH  20  21
ATOM     21  C   LIG    1       -4.372   0.277   1.362  0.00  0.00    +0.270 C 
BRANCH  21  22
ATOM     22  N   LIG    1       -3.110   1.029   1.360  0.00  0.00    -0.510 N 
ATOM     23  H   LIG    1       -3.290   1.989   1.613  0.00  0.00    +0.430 HD
ATOM     24  H   LIG    1       -2.473   0.619   2.028  0.00  0.00    +0.430 HD
BRANCH  22  25
ATOM     25  C   LIG    1       -2.512   0.979   0.019  0.00  0.00    +0.340 C 
BRANCH  25  26
ATOM     26  C   LIG    1       -1.217   1.750   0.017  0.00  0.00    -0.160 A 
ATOM     27  C   LIG    1       -0.013   1.076   0.008  0.00  0.00    +0.070 A 
ATOM     28  C   LIG    1        1.180   1.786   0.000  0.00  0.00    +0.170 A 
ATOM     29  C   LIG    1        1.161   3.175   0.007  0.00  0.00    +0.050 A 
ATOM     30  C   LIG    1       -0.045   3.848   0.022  0.00  0.00    +0.050 A 
ATOM     31  C   LIG    1       -1.236   3.137   0.030  0.00  0.00    +0.110 A 
BRANCH  28  32
ATOM     32  N   LIG    1        2.405   1.102  -0.014  0.00  0.00    -0.340 N 
ATOM     33  C   LIG    1        3.632   1.668  -0.028  0.00  0.00    +0.230 A 
ATOM     34  C   LIG    1        4.546   0.669  -0.036  0.00  0.00    -0.090 A 
ATOM     35  C   LIG    1        3.855  -0.547  -0.036  0.00  0.00    +0.270 A 
ATOM     36  N   LIG    1        2.572  -0.289  -0.023  0.00  0.00    -0.300 NA
ENDBRANCH  28  32
BRANCH  31  37
ATOM     37  O   LIG    1       -2.423   3.801   0.045  0.00  0.00    -0.500 OA
ATOM     38  H   LIG    1       -2.774   3.997  -0.835  0.00  0.00    +0.410 HD
ENDBRANCH  31  37
ENDBRANCH  25  26
ENDBRANCH  22  25
ENDBRANCH  21  22
ENDBRANCH  20  21
ENDBRANCH   8  20
TORSDOF 10
