REMARK  Name = ZINCrg00000SjSAC.0
REMARK                            x       y       z     vdW  Elec       q    Type
REMARK                         _______ _______ _______ _____ _____    ______ ____
ROOT
ATOM      1  O   LIG    1        4.264   4.750   0.886  0.00  0.00    -0.480 OA
ATOM      2  C   LIG    1        3.043   4.745   0.891  0.00  0.00    +0.560 A 
ATOM      3  N   LIG    1        2.323   5.877   0.784  0.00  0.00    -0.600 NA
ATOM      4  C   LIG    1        1.010   5.897   0.788  0.00  0.00    +0.410 A 
ATOM      5  N   LIG    1        0.231   4.781   0.902  0.00  0.00    -0.580 N 
ATOM      6  H   LIG    1       -0.737   4.840   0.901  0.00  0.00    +0.430 HD
ATOM      7  C   LIG    1        0.876   3.563   1.017  0.00  0.00    +0.050 A 
ATOM      8  S   LIG    1        0.200   1.964   1.182  0.00  0.00    +0.180 S 
ATOM      9  C   LIG    1        1.793   1.221   1.239  0.00  0.00    -0.200 A 
ATOM     10  C   LIG    1        2.038  -0.270   1.382  0.00  0.00    +0.120 C 
ATOM     11  C   LIG    1        3.486  -0.574   0.988  0.00  0.00    +0.030 C 
ATOM     12  C   LIG    1        4.415   0.385   1.739  0.00  0.00    +0.020 C 
ATOM     13  C   LIG    1        4.245   1.795   1.171  0.00  0.00    +0.110 C 
ATOM     14  C   LIG    1        2.762   2.142   1.146  0.00  0.00    -0.030 A 
ATOM     15  C   LIG    1        2.262   3.492   1.017  0.00  0.00    -0.220 A 
ENDROOT
BRANCH   4  16
ATOM     16  S   LIG    1        0.205   7.457   0.638  0.00  0.00    +0.080 S 
BRANCH  16  17
ATOM     17  C   LIG    1        1.647   8.545   0.525  0.00  0.00    +0.130 C 
BRANCH  17  18
ATOM     18  C   LIG    1        1.188   9.974   0.386  0.00  0.00    +0.530 C 
ATOM     19  N   LIG    1        2.095  10.966   0.285  0.00  0.00    -0.600 N 
ATOM     20  C   LIG    1        3.537  10.677   0.312  0.00  0.00    +0.290 C 
ATOM     21  C   LIG    1        4.188  11.358  -0.901  0.00  0.00    +0.170 C 
ATOM     22  N   LIG    1        3.842  12.785  -0.900  0.00  0.00    -0.530 NA
ATOM     23  C   LIG    1        2.394  12.982  -1.052  0.00  0.00    +0.170 C 
ATOM     24  C   LIG    1        1.669  12.367   0.149  0.00  0.00    +0.300 C 
ATOM     25  O   LIG    1        0.003  10.231   0.367  0.00  0.00    -0.530 OA
BRANCH  22  26
ATOM     26  C   LIG    1        4.584  13.508  -1.941  0.00  0.00    +0.180 C 
BRANCH  26  27
ATOM     27  C   LIG    1        4.601  15.002  -1.611  0.00  0.00    +0.170 C 
BRANCH  27  28
ATOM     28  O   LIG    1        5.328  15.214  -0.399  0.00  0.00    -0.560 OA
ATOM     29  H   LIG    1        5.380  16.141  -0.129  0.00  0.00    +0.380 HD
ENDBRANCH  27  28
ENDBRANCH  26  27
ENDBRANCH  22  26
ENDBRANCH  17  18
ENDBRANCH  16  17
ENDBRANCH   4  16
TORSDOF 6
