REMARK  Name = ZINCpe00000MJLXU.0
REMARK                            x       y       z     vdW  Elec       q    Type
REMARK                         _______ _______ _______ _____ _____    ______ ____
ROOT
ATOM      1  N   LIG    1        1.362   2.030   0.000  0.00  0.00    -0.520 NA
ATOM      2  C   LIG    1        2.086   1.543  -1.183  0.00  0.00    +0.160 C 
ATOM      3  C   LIG    1        2.086   0.012  -1.180  0.00  0.00    +0.240 C 
ATOM      4  O   LIG    1        0.736  -0.460  -1.138  0.00  0.00    -0.380 OA
ATOM      5  C   LIG    1        0.002  -0.004   0.002  0.00  0.00    +0.160 C 
ATOM      6  C   LIG    1       -0.019   1.527   0.010  0.00  0.00    +0.170 C 
ENDROOT
BRANCH   1   7
ATOM      7  C   LIG    1        1.388   3.498   0.065  0.00  0.00    +0.220 C 
BRANCH   7  10
ATOM      8  C   LIG    1        1.984   6.261   0.270  0.00  0.00    +0.280 C 
ATOM      9  N   LIG    1        3.068   5.283   0.394  0.00  0.00    -0.620 N 
ATOM     10  C   LIG    1        2.801   3.966   0.299  0.00  0.00    +0.520 C 
ATOM     11  O   LIG    1        3.699   3.156   0.402  0.00  0.00    -0.510 OA
BRANCH   9  12
ATOM     12  C   LIG    1        4.442   5.738   0.622  0.00  0.00    +0.400 C 
BRANCH  12  13
ATOM     13  C   LIG    1        5.126   5.952  -0.704  0.00  0.00    -0.040 A 
ATOM     14  C   LIG    1        5.138   7.099  -1.407  0.00  0.00    -0.050 A 
ATOM     15  C   LIG    1        5.893   6.854  -2.577  0.00  0.00    -0.070 A 
ATOM     16  C   LIG    1        6.291   5.571  -2.523  0.00  0.00    +0.170 A 
ATOM     17  O   LIG    1        5.824   5.029  -1.386  0.00  0.00    -0.160 OA
ENDBRANCH  12  13
ENDBRANCH   9  12
ENDBRANCH   7  10
ENDBRANCH   1   7
BRANCH   5  18
ATOM     18  C   LIG    1       -1.431  -0.534  -0.067  0.00  0.00    +0.290 C 
BRANCH  18  19
ATOM     19  N   LIG    1       -1.418  -1.995   0.045  0.00  0.00    -0.710 N 
ATOM     20  H   LIG    1       -0.576  -2.466   0.145  0.00  0.00    +0.410 HD
BRANCH  19  21
ATOM     21  C   LIG    1       -2.612  -2.706   0.008  0.00  0.00    +0.340 A 
ATOM     22  C   LIG    1       -3.825  -2.032  -0.136  0.00  0.00    -0.040 A 
ATOM     23  C   LIG    1       -4.987  -2.787  -0.167  0.00  0.00    +0.070 A 
ATOM     24  C   LIG    1       -4.872  -4.165  -0.053  0.00  0.00    +0.150 A 
ATOM     25  N   LIG    1       -3.684  -4.720   0.080  0.00  0.00    -0.200 NA
ATOM     26  N   LIG    1       -2.603  -4.028   0.104  0.00  0.00    -0.310 NA
ENDBRANCH  19  21
ENDBRANCH  18  19
ENDBRANCH   5  18
TORSDOF 7
