REMARK  Name = ZINCpk00000KfKFM.0
REMARK                            x       y       z     vdW  Elec       q    Type
REMARK                         _______ _______ _______ _____ _____    ______ ____
ROOT
ATOM      1  C   LIG    1       -0.385  -4.116   0.783  0.00  0.00    +0.520 C 
ATOM      2  N   LIG    1       -1.383  -4.992   1.014  0.00  0.00    -0.730 N 
ATOM      3  H   LIG    1       -2.084  -4.772   1.647  0.00  0.00    +0.400 HD
ATOM      4  O   LIG    1        0.492  -4.391  -0.008  0.00  0.00    -0.480 OA
ENDROOT
BRANCH   1   5
ATOM      5  C   LIG    1       -0.359  -2.795   1.508  0.00  0.00    +0.110 C 
BRANCH   5   6
ATOM      6  C   LIG    1        0.850  -2.007   1.073  0.00  0.00    +0.340 C 
ATOM      7  O   LIG    1        1.823  -2.581   0.645  0.00  0.00    -0.360 OA
BRANCH   6   8
ATOM      8  C   LIG    1        0.846  -0.504   1.174  0.00  0.00    +0.140 C 
BRANCH   8  10
ATOM      9  C   LIG    1       -0.133   1.595   0.235  0.00  0.00    +0.040 C 
ATOM     10  C   LIG    1       -0.021   0.079   0.056  0.00  0.00    +0.040 C 
ENDBRANCH   8  10
BRANCH   8  11
ATOM     11  O   LIG    1        2.182  -0.014   1.045  0.00  0.00    -0.350 OA
ATOM     12  C   LIG    1        2.890   0.075   2.284  0.00  0.00    +0.210 C 
ENDBRANCH   8  11
ENDBRANCH   6   8
ENDBRANCH   5   6
BRANCH   5  13
ATOM     13  C   LIG    1       -0.295  -3.032   2.959  0.00  0.00    +0.200 C 
ATOM     14  N   LIG    1       -0.245  -3.216   4.079  0.00  0.00    -0.370 NA
ENDBRANCH   5  13
ENDBRANCH   1   5
BRANCH   2  15
ATOM     15  C   LIG    1       -1.407  -6.277   0.310  0.00  0.00    +0.270 C 
BRANCH  15  16
ATOM     16  C   LIG    1       -2.635  -7.076   0.751  0.00  0.00    +0.070 C 
BRANCH  16  17
ATOM     17  C   LIG    1       -2.661  -8.398   0.026  0.00  0.00    -0.080 A 
ATOM     18  C   LIG    1       -3.317  -8.507  -1.185  0.00  0.00    +0.020 A 
ATOM     19  C   LIG    1       -3.340  -9.716  -1.856  0.00  0.00    -0.030 A 
ATOM     20  C   LIG    1       -2.712 -10.823  -1.309  0.00  0.00    +0.100 A 
ATOM     21  C   LIG    1       -2.055 -10.714  -0.087  0.00  0.00    +0.100 A 
ATOM     22  C   LIG    1       -2.032  -9.499   0.578  0.00  0.00    -0.030 A 
BRANCH  21  23
ATOM     23  O   LIG    1       -1.437 -11.798   0.454  0.00  0.00    -0.310 OA
ATOM     24  C   LIG    1       -0.782 -11.612   1.711  0.00  0.00    +0.240 C 
ENDBRANCH  21  23
BRANCH  20  25
ATOM     25  O   LIG    1       -2.738 -12.014  -1.965  0.00  0.00    -0.310 OA
ATOM     26  C   LIG    1       -3.430 -12.052  -3.214  0.00  0.00    +0.250 C 
ENDBRANCH  20  25
ENDBRANCH  16  17
ENDBRANCH  15  16
ENDBRANCH   2  15
TORSDOF 11
