REMARK  Name = ZINCnE000004Rb7N.2
REMARK                            x       y       z     vdW  Elec       q    Type
REMARK                         _______ _______ _______ _____ _____    ______ ____
ROOT
ATOM      1  C   LIG    1        2.793   3.747  -1.775  0.00  0.00    +0.180 C 
ATOM      2  N   LIG    1        1.642   4.364  -1.103  0.00  0.00    -0.500 NA
ENDROOT
BRANCH   2   3
ATOM      3  C   LIG    1        1.931   5.756  -0.735  0.00  0.00    +0.270 C 
BRANCH   3   4
ATOM      4  C   LIG    1        2.053   6.590  -1.985  0.00  0.00    +0.160 A 
ATOM      5  N   LIG    1        3.242   6.830  -2.496  0.00  0.00    -0.500 NA
ATOM      6  C   LIG    1        3.398   7.554  -3.588  0.00  0.00    +0.220 A 
ATOM      7  C   LIG    1        2.310   8.097  -4.248  0.00  0.00    -0.070 A 
ATOM      8  C   LIG    1        1.037   7.875  -3.752  0.00  0.00    +0.070 A 
ATOM      9  C   LIG    1        0.902   7.098  -2.593  0.00  0.00    -0.160 A 
BRANCH   9  10
ATOM     10  C   LIG    1       -0.431   6.826  -2.024  0.00  0.00    +0.530 C 
ATOM     11  O   LIG    1       -0.531   6.236  -0.957  0.00  0.00    -0.650 OA
ATOM     12  O   LIG    1       -1.436   7.189  -2.618  0.00  0.00    -0.690 OA
ENDBRANCH   9  10
ENDBRANCH   3   4
ENDBRANCH   2   3
BRANCH   2  13
ATOM     13  C   LIG    1        1.238   3.582   0.074  0.00  0.00    +0.230 C 
BRANCH  13  14
ATOM     14  C   LIG    1        0.863   2.187  -0.355  0.00  0.00    -0.020 A 
ATOM     15  C   LIG    1        1.726   1.134  -0.117  0.00  0.00    +0.010 A 
ATOM     16  C   LIG    1        1.382  -0.145  -0.510  0.00  0.00    +0.030 A 
ATOM     17  C   LIG    1        0.173  -0.372  -1.141  0.00  0.00    +0.000 A 
ATOM     18  C   LIG    1       -0.691   0.680  -1.379  0.00  0.00    +0.050 A 
ATOM     19  C   LIG    1       -0.347   1.960  -0.985  0.00  0.00    -0.150 A 
BRANCH  19  20
ATOM     20  C   LIG    1       -1.289   3.107  -1.244  0.00  0.00    +0.510 C 
ATOM     21  F   LIG    1       -0.708   3.988  -2.163  0.00  0.00    -0.130 F 
ATOM     22  F   LIG    1       -1.542   3.783  -0.045  0.00  0.00    -0.170 F 
ATOM     23  F   LIG    1       -2.490   2.615  -1.765  0.00  0.00    -0.200 F 
ENDBRANCH  19  20
ENDBRANCH  13  14
ENDBRANCH   2  13
TORSDOF 6
