REMARK  Name = ZINCrH000004tJTF.1
REMARK                            x       y       z     vdW  Elec       q    Type
REMARK                         _______ _______ _______ _____ _____    ______ ____
ROOT
ATOM      1  O   LIG    1        2.995   5.777  -0.134  0.00  0.00    -0.530 OA
ATOM      2  C   LIG    1        2.583   5.337  -1.187  0.00  0.00    +0.530 C 
ATOM      3  N   LIG    1        2.669   6.081  -2.308  0.00  0.00    -0.560 N 
ATOM      4  C   LIG    1        3.258   7.432  -2.284  0.00  0.00    +0.290 C 
ATOM      5  C   LIG    1        4.693   7.377  -2.759  0.00  0.00    +0.030 C 
ATOM      6  C   LIG    1        4.827   6.913  -4.204  0.00  0.00    +0.190 C 
ATOM      7  N   LIG    1        4.483   5.498  -4.345  0.00  0.00    -0.480 N 
ATOM      8  C   LIG    1        3.100   5.332  -4.565  0.00  0.00    +0.100 A 
ATOM      9  C   LIG    1        2.642   4.897  -5.797  0.00  0.00    -0.030 A 
ATOM     10  C   LIG    1        1.286   4.704  -5.994  0.00  0.00    +0.040 A 
ATOM     11  C   LIG    1        0.393   4.943  -4.966  0.00  0.00    +0.010 A 
ATOM     12  C   LIG    1        0.846   5.391  -3.737  0.00  0.00    +0.030 A 
ATOM     13  C   LIG    1        2.207   5.595  -3.538  0.00  0.00    +0.120 A 
ENDROOT
BRANCH   7  14
ATOM     14  C   LIG    1        5.266   4.870  -5.417  0.00  0.00    +0.240 C 
BRANCH  14  15
ATOM     15  C   LIG    1        6.678   4.642  -4.941  0.00  0.00    -0.080 A 
ATOM     16  C   LIG    1        7.664   5.566  -5.232  0.00  0.00    +0.010 A 
ATOM     17  C   LIG    1        8.957   5.359  -4.791  0.00  0.00    +0.000 A 
ATOM     18  C   LIG    1        9.267   4.222  -4.068  0.00  0.00    +0.000 A 
ATOM     19  C   LIG    1        8.282   3.295  -3.782  0.00  0.00    +0.000 A 
ATOM     20  C   LIG    1        6.987   3.505  -4.218  0.00  0.00    +0.020 A 
ENDBRANCH  14  15
ENDBRANCH   7  14
BRANCH   2  21
ATOM     21  C   LIG    1        1.976   3.959  -1.242  0.00  0.00    +0.060 C 
BRANCH  21  22
ATOM     22  C   LIG    1        2.000   3.335   0.154  0.00  0.00    +0.150 C 
BRANCH  22  23
ATOM     23  C   LIG    1        1.393   1.957   0.100  0.00  0.00    -0.020 A 
ATOM     24  C   LIG    1        0.083   1.653   0.181  0.00  0.00    +0.150 A 
ATOM     25  N   LIG    1       -0.040   0.321   0.085  0.00  0.00    -0.490 NA
ATOM     26  C   LIG    1        1.143  -0.213  -0.045  0.00  0.00    +0.390 A 
ATOM     27  N   LIG    1        2.066   0.774  -0.044  0.00  0.00    -0.570 N 
ATOM     28  H   LIG    1        3.026   0.664  -0.129  0.00  0.00    +0.420 HD
ENDBRANCH  22  23
ENDBRANCH  21  22
ENDBRANCH   2  21
TORSDOF 5
