REMARK  Name = ZINCrH000004tJTF.0
REMARK                            x       y       z     vdW  Elec       q    Type
REMARK                         _______ _______ _______ _____ _____    ______ ____
ROOT
ATOM      1  O   LIG    1       -1.906   1.770   0.452  0.00  0.00    -0.530 OA
ATOM      2  C   LIG    1       -0.917   1.078   0.565  0.00  0.00    +0.530 C 
ATOM      3  N   LIG    1       -0.316   0.953   1.765  0.00  0.00    -0.560 N 
ATOM      4  C   LIG    1       -0.839   1.644   2.956  0.00  0.00    +0.290 C 
ATOM      5  C   LIG    1       -1.668   0.689   3.784  0.00  0.00    +0.030 C 
ATOM      6  C   LIG    1       -0.864  -0.484   4.330  0.00  0.00    +0.190 C 
ATOM      7  N   LIG    1       -0.458  -1.396   3.262  0.00  0.00    -0.480 N 
ATOM      8  C   LIG    1        0.769  -0.998   2.692  0.00  0.00    +0.100 A 
ATOM      9  C   LIG    1        1.907  -1.762   2.892  0.00  0.00    -0.030 A 
ATOM     10  C   LIG    1        3.090  -1.395   2.305  0.00  0.00    +0.030 A 
ATOM     11  C   LIG    1        3.150  -0.261   1.516  0.00  0.00    +0.010 A 
ATOM     12  C   LIG    1        2.022   0.517   1.324  0.00  0.00    +0.030 A 
ATOM     13  C   LIG    1        0.826   0.155   1.925  0.00  0.00    +0.130 A 
ENDROOT
BRANCH   7  14
ATOM     14  C   LIG    1       -0.387  -2.780   3.750  0.00  0.00    +0.230 C 
BRANCH  14  15
ATOM     15  C   LIG    1       -1.781  -3.330   3.905  0.00  0.00    -0.080 A 
ATOM     16  C   LIG    1       -2.407  -3.291   5.137  0.00  0.00    +0.010 A 
ATOM     17  C   LIG    1       -3.688  -3.792   5.278  0.00  0.00    +0.000 A 
ATOM     18  C   LIG    1       -4.339  -4.340   4.189  0.00  0.00    +0.000 A 
ATOM     19  C   LIG    1       -3.712  -4.384   2.959  0.00  0.00    +0.000 A 
ATOM     20  C   LIG    1       -2.433  -3.879   2.816  0.00  0.00    +0.030 A 
ENDBRANCH  14  15
ENDBRANCH   7  14
BRANCH   2  21
ATOM     21  C   LIG    1       -0.359   0.358  -0.636  0.00  0.00    +0.060 C 
BRANCH  21  22
ATOM     22  C   LIG    1       -1.221   0.668  -1.861  0.00  0.00    +0.140 C 
BRANCH  22  23
ATOM     23  C   LIG    1       -0.664  -0.052  -3.062  0.00  0.00    +0.000 A 
ATOM     24  C   LIG    1       -1.339  -0.900  -3.861  0.00  0.00    +0.130 A 
ATOM     25  N   LIG    1       -0.462  -1.321  -4.824  0.00  0.00    -0.570 N 
ATOM     26  H   LIG    1       -0.655  -1.937  -5.548  0.00  0.00    +0.420 HD
ATOM     27  C   LIG    1        0.722  -0.722  -4.575  0.00  0.00    +0.390 A 
ATOM     28  N   LIG    1        0.594   0.036  -3.520  0.00  0.00    -0.490 NA
ENDBRANCH  22  23
ENDBRANCH  21  22
ENDBRANCH   2  21
TORSDOF 5
