REMARK  Name = ZINCrD000000AeRn.0
REMARK                            x       y       z     vdW  Elec       q    Type
REMARK                         _______ _______ _______ _____ _____    ______ ____
ROOT
ATOM      1  O   LIG    1       -3.410   5.833   2.401  0.00  0.00    -0.530 OA
ATOM      2  C   LIG    1       -2.432   5.423   2.991  0.00  0.00    +0.520 C 
ATOM      3  N   LIG    1       -2.453   5.311   4.334  0.00  0.00    -0.730 N 
ATOM      4  H   LIG    1       -1.671   4.983   4.805  0.00  0.00    +0.400 HD
ENDROOT
BRANCH   3   5
ATOM      5  C   LIG    1       -3.656   5.684   5.082  0.00  0.00    +0.230 C 
BRANCH   5   6
ATOM      6  C   LIG    1       -3.416   5.463   6.577  0.00  0.00    +0.220 C 
BRANCH   6   7
ATOM      7  N   LIG    1       -4.628   5.822   7.325  0.00  0.00    -0.480 N 
ATOM      8  C   LIG    1       -5.735   4.924   6.993  0.00  0.00    +0.190 C 
ATOM      9  C   LIG    1       -6.976   5.363   7.780  0.00  0.00    +0.040 C 
ATOM     10  C   LIG    1       -7.431   6.715   7.226  0.00  0.00    +0.070 C 
ATOM     11  C   LIG    1       -6.244   7.637   7.102  0.00  0.00    -0.120 A 
ATOM     12  C   LIG    1       -6.484   8.992   6.933  0.00  0.00    +0.030 A 
ATOM     13  C   LIG    1       -5.433   9.879   6.809  0.00  0.00    -0.030 A 
ATOM     14  C   LIG    1       -4.131   9.415   6.852  0.00  0.00    +0.020 A 
ATOM     15  C   LIG    1       -3.885   8.070   7.021  0.00  0.00    -0.040 A 
ATOM     16  C   LIG    1       -4.942   7.168   7.150  0.00  0.00    +0.120 A 
ENDBRANCH   6   7
ENDBRANCH   5   6
ENDBRANCH   3   5
BRANCH   2  17
ATOM     17  C   LIG    1       -1.195   5.039   2.221  0.00  0.00    +0.060 C 
BRANCH  17  18
ATOM     18  C   LIG    1       -1.435   5.260   0.726  0.00  0.00    +0.220 C 
BRANCH  18  19
ATOM     19  N   LIG    1       -0.229   4.886  -0.024  0.00  0.00    -0.490 N 
ATOM     20  C   LIG    1        0.262   3.571   0.392  0.00  0.00    +0.190 C 
ATOM     21  C   LIG    1        1.502   3.223  -0.440  0.00  0.00    +0.040 C 
ATOM     22  C   LIG    1        1.054   3.002  -1.886  0.00  0.00    +0.070 C 
ATOM     23  C   LIG    1        0.145   4.126  -2.313  0.00  0.00    -0.120 A 
ATOM     24  C   LIG    1       -0.101   4.289  -3.667  0.00  0.00    +0.030 A 
ATOM     25  C   LIG    1       -0.936   5.295  -4.111  0.00  0.00    -0.030 A 
ATOM     26  C   LIG    1       -1.529   6.151  -3.201  0.00  0.00    +0.020 A 
ATOM     27  C   LIG    1       -1.291   5.993  -1.853  0.00  0.00    -0.030 A 
ATOM     28  C   LIG    1       -0.445   4.981  -1.398  0.00  0.00    +0.130 A 
ENDBRANCH  18  19
ENDBRANCH  17  18
ENDBRANCH   2  17
TORSDOF 6
