REMARK  Name = ZINCvU0000000GhV.0
REMARK                            x       y       z     vdW  Elec       q    Type
REMARK                         _______ _______ _______ _____ _____    ______ ____
ROOT
ATOM      1  C   LIG    1       -6.298  -0.628  -1.228  0.00  0.00    +0.320 C 
ENDROOT
BRANCH   1   3
ATOM      2  C   LIG    1       -8.365  -1.796  -0.681  0.00  0.00    +0.590 C 
ATOM      3  N   LIG    1       -7.200  -1.775  -1.359  0.00  0.00    -0.610 N 
ATOM      4  C   LIG    1       -6.836  -2.899  -2.225  0.00  0.00    +0.310 C 
ATOM      5  O   LIG    1       -8.663  -0.868   0.047  0.00  0.00    -0.510 OA
BRANCH   2   9
ATOM      6  C   LIG    1      -10.485  -5.084  -1.290  0.00  0.00    -0.130 A 
ATOM      7  C   LIG    1      -11.202  -4.167  -0.576  0.00  0.00    +0.040 A 
ATOM      8  C   LIG    1      -10.541  -2.999  -0.316  0.00  0.00    +0.120 A 
ATOM      9  C   LIG    1       -9.272  -2.936  -0.821  0.00  0.00    -0.260 A 
ATOM     10  S   LIG    1       -8.893  -4.435  -1.658  0.00  0.00    +0.200 S 
BRANCH   6  14
ATOM     11  C   LIG    1      -13.818  -8.723  -1.555  0.00  0.00    +0.180 C 
ATOM     12  C   LIG    1      -12.492  -8.048  -1.799  0.00  0.00    +0.060 A 
ATOM     13  N   LIG    1      -12.185  -6.867  -1.391  0.00  0.00    -0.460 NA
ATOM     14  C   LIG    1      -10.973  -6.419  -1.692  0.00  0.00    +0.140 A 
ATOM     15  C   LIG    1      -10.226  -7.292  -2.405  0.00  0.00    -0.080 A 
ATOM     16  S   LIG    1      -11.190  -8.745  -2.658  0.00  0.00    +0.150 S 
ENDBRANCH   6  14
ENDBRANCH   2   9
ENDBRANCH   1   3
BRANCH   1  17
ATOM     17  C   LIG    1       -5.326  -0.873  -0.072  0.00  0.00    +0.100 C 
ATOM     18  C   LIG    1       -6.103  -0.928   1.245  0.00  0.00    +0.060 C 
BRANCH  17  19
ATOM     19  C   LIG    1       -4.321   0.248  -0.015  0.00  0.00    +0.190 A 
ATOM     20  N   LIG    1       -4.586   1.510   0.158  0.00  0.00    -0.370 NA
ATOM     21  O   LIG    1       -3.564   2.162   0.162  0.00  0.00    +0.090 OA
ATOM     22  C   LIG    1       -2.510   1.353  -0.024  0.00  0.00    +0.260 A 
ATOM     23  N   LIG    1       -2.990   0.126  -0.135  0.00  0.00    -0.470 NA
BRANCH  22  24
ATOM     24  C   LIG    1       -1.091   1.754  -0.087  0.00  0.00    -0.160 A 
ATOM     25  C   LIG    1        0.009   0.956  -0.270  0.00  0.00    +0.260 A 
ATOM     26  O   LIG    1        1.068   1.773  -0.260  0.00  0.00    +0.110 OA
ATOM     27  N   LIG    1        0.749   2.926  -0.093  0.00  0.00    -0.350 NA
ATOM     28  C   LIG    1       -0.537   3.063   0.032  0.00  0.00    +0.070 A 
BRANCH  28  29
ATOM     29  C   LIG    1       -1.293   4.348   0.251  0.00  0.00    +0.080 C 
ATOM     30  C   LIG    1       -1.031   5.300  -0.918  0.00  0.00    +0.040 C 
ATOM     31  C   LIG    1       -0.825   5.000   1.554  0.00  0.00    +0.040 C 
ENDBRANCH  28  29
ENDBRANCH  22  24
ENDBRANCH  17  19
ENDBRANCH   1  17
TORSDOF 7
