REMARK  Name = ZINCrg00000BzT3R.0
REMARK                            x       y       z     vdW  Elec       q    Type
REMARK                         _______ _______ _______ _____ _____    ______ ____
ROOT
ATOM      1  O   LIG    1        3.594  -1.365  -0.218  0.00  0.00    -0.520 OA
ATOM      2  C   LIG    1        3.653  -0.154  -0.300  0.00  0.00    +0.570 C 
ATOM      3  N   LIG    1        4.851   0.462  -0.326  0.00  0.00    -0.600 N 
ATOM      4  C   LIG    1        4.938   1.929  -0.322  0.00  0.00    +0.270 C 
ATOM      5  C   LIG    1        5.766   2.375  -1.534  0.00  0.00    +0.280 C 
ATOM      6  N   LIG    1        7.009   1.592  -1.567  0.00  0.00    -0.590 N 
ATOM      7  C   LIG    1        6.922   0.125  -1.572  0.00  0.00    +0.230 C 
ATOM      8  C   LIG    1        8.207   2.208  -1.594  0.00  0.00    +0.600 C 
ATOM      9  O   LIG    1        9.223   1.556  -1.739  0.00  0.00    -0.480 OA
ATOM     10  C   LIG    1        6.095  -0.321  -0.354  0.00  0.00    +0.300 C 
ENDROOT
BRANCH   2  11
ATOM     11  C   LIG    1        2.410   0.644  -0.370  0.00  0.00    -0.060 A 
ATOM     12  C   LIG    1        2.088   1.559   0.623  0.00  0.00    +0.000 A 
ATOM     13  C   LIG    1        0.908   2.294   0.525  0.00  0.00    +0.300 A 
ATOM     14  N   LIG    1        0.084   2.148  -0.482  0.00  0.00    -0.460 NA
ATOM     15  C   LIG    1        0.328   1.287  -1.473  0.00  0.00    +0.130 A 
ATOM     16  C   LIG    1       -0.570   1.145  -2.547  0.00  0.00    +0.050 A 
ATOM     17  C   LIG    1       -0.295   0.260  -3.544  0.00  0.00    +0.030 A 
ATOM     18  C   LIG    1        0.864  -0.512  -3.520  0.00  0.00    +0.020 A 
ATOM     19  C   LIG    1        1.756  -0.402  -2.496  0.00  0.00    +0.030 A 
ATOM     20  C   LIG    1        1.506   0.499  -1.453  0.00  0.00    -0.070 A 
ENDBRANCH   2  11
BRANCH   8  21
ATOM     21  C   LIG    1        8.287   3.673  -1.447  0.00  0.00    -0.020 A 
ATOM     22  C   LIG    1        9.441   4.408  -1.624  0.00  0.00    -0.030 A 
ATOM     23  S   LIG    1        8.950   6.032  -1.331  0.00  0.00    +0.490 S 
ATOM     24  N   LIG    1        7.451   5.703  -1.031  0.00  0.00    -0.290 NA
ATOM     25  N   LIG    1        7.254   4.448  -1.133  0.00  0.00    -0.220 NA
ENDBRANCH   8  21
BRANCH   7  26
ATOM     26  C   LIG    1        8.328  -0.473  -1.486  0.00  0.00    +0.200 C 
BRANCH  26  27
ATOM     27  O   LIG    1        9.014  -0.256  -2.721  0.00  0.00    -0.550 OA
ATOM     28  H   LIG    1        9.914  -0.610  -2.738  0.00  0.00    +0.380 HD
ENDBRANCH  26  27
ENDBRANCH   7  26
TORSDOF 4
