REMARK  Name = ZINCpk00000eaQCA.0
REMARK                            x       y       z     vdW  Elec       q    Type
REMARK                         _______ _______ _______ _____ _____    ______ ____
ROOT
ATOM      1  C   LIG    1       -1.472   3.400   2.530  0.00  0.00    +0.090 C 
ATOM      2  C   LIG    1       -0.950   2.952   1.164  0.00  0.00    +0.160 C 
ATOM      3  O   LIG    1       -0.679   1.546   1.186  0.00  0.00    -0.360 OA
ATOM      4  C   LIG    1       -0.013   1.086   0.008  0.00  0.00    +0.290 C 
ATOM      5  C   LIG    1       -0.737   1.583  -1.212  0.00  0.00    +0.490 C 
ATOM      6  N   LIG    1       -1.633   2.576  -1.158  0.00  0.00    -0.580 N 
ATOM      7  O   LIG    1       -0.501   1.065  -2.284  0.00  0.00    -0.530 OA
ATOM      8  C   LIG    1       -2.008   3.229   0.094  0.00  0.00    +0.210 C 
ENDROOT
BRANCH   8   9
ATOM      9  C   LIG    1       -2.114   4.715  -0.129  0.00  0.00    +0.510 C 
ATOM     10  N   LIG    1       -2.819   5.477   0.731  0.00  0.00    -0.720 N 
ATOM     11  H   LIG    1       -3.258   5.068   1.494  0.00  0.00    +0.410 HD
ATOM     12  O   LIG    1       -1.566   5.226  -1.083  0.00  0.00    -0.510 OA
BRANCH  10  13
ATOM     13  C   LIG    1       -2.922   6.922   0.514  0.00  0.00    +0.260 C 
BRANCH  13  14
ATOM     14  C   LIG    1       -3.771   7.545   1.625  0.00  0.00    +0.300 C 
BRANCH  14  15
ATOM     15  N   LIG    1       -3.874   8.990   1.408  0.00  0.00    -0.450 N 
ATOM     16  C   LIG    1       -3.021   9.931   1.904  0.00  0.00    +0.140 A 
ATOM     17  C   LIG    1       -3.441  11.143   1.487  0.00  0.00    -0.060 A 
ATOM     18  C   LIG    1       -4.601  10.944   0.713  0.00  0.00    -0.060 A 
ATOM     19  C   LIG    1       -4.843   9.617   0.682  0.00  0.00    +0.140 A 
ENDBRANCH  14  15
ENDBRANCH  13  14
ENDBRANCH  10  13
ENDBRANCH   8   9
BRANCH   6  20
ATOM     20  C   LIG    1       -2.262   3.026  -2.403  0.00  0.00    +0.350 C 
BRANCH  20  21
ATOM     21  C   LIG    1       -3.519   2.231  -2.646  0.00  0.00    -0.110 A 
ATOM     22  C   LIG    1       -3.464   1.057  -3.375  0.00  0.00    +0.040 A 
ATOM     23  C   LIG    1       -4.617   0.326  -3.594  0.00  0.00    +0.000 A 
ATOM     24  C   LIG    1       -5.825   0.773  -3.093  0.00  0.00    +0.010 A 
ATOM     25  C   LIG    1       -5.880   1.949  -2.369  0.00  0.00    +0.000 A 
ATOM     26  C   LIG    1       -4.727   2.678  -2.145  0.00  0.00    +0.000 A 
ENDBRANCH  20  21
ENDBRANCH   6  20
TORSDOF 6
