REMARK  Name = ZINCqH000000398X.0
REMARK                            x       y       z     vdW  Elec       q    Type
REMARK                         _______ _______ _______ _____ _____    ______ ____
ROOT
ATOM      1  C   LIG    1        2.064   4.384   0.987  0.00  0.00    -0.770 A 
ATOM      2  C   LIG    1        1.532   3.159   1.367  0.00  0.00    +0.200 A 
ATOM      3  C   LIG    1        0.386   3.149   2.141  0.00  0.00    -0.060 A 
ATOM      4  C   LIG    1       -0.194   4.359   2.507  0.00  0.00    +0.370 A 
ATOM      5  N   LIG    1        0.347   5.507   2.128  0.00  0.00    -0.530 NA
ATOM      6  C   LIG    1        1.439   5.547   1.390  0.00  0.00    +0.400 A 
ENDROOT
BRANCH   4   7
ATOM      7  N   LIG    1       -1.349   4.363   3.281  0.00  0.00    -0.470 N 
ATOM      8  C   LIG    1       -2.412   3.576   2.644  0.00  0.00    +0.200 C 
ATOM      9  C   LIG    1       -3.614   3.482   3.587  0.00  0.00    +0.000 C 
ATOM     10  C   LIG    1       -4.118   4.892   3.905  0.00  0.00    +0.010 C 
ATOM     11  C   LIG    1       -2.977   5.706   4.523  0.00  0.00    -0.010 C 
ATOM     12  C   LIG    1       -2.542   5.059   5.840  0.00  0.00    +0.030 C 
ATOM     13  C   LIG    1       -4.730   2.680   2.915  0.00  0.00    +0.030 C 
ATOM     14  C   LIG    1       -1.794   5.736   3.553  0.00  0.00    +0.210 C 
ENDBRANCH   4   7
BRANCH   1  15
ATOM     15  S   LIG    1        3.522   4.453  -0.001  0.00  0.00    +2.690 S 
ATOM     16  O   LIG    1        4.272   3.286   0.309  0.00  0.00    -0.950 OA
ATOM     17  O   LIG    1        4.040   5.769   0.139  0.00  0.00    -0.940 OA
BRANCH  15  18
ATOM     18  N   LIG    1        3.052   4.301  -1.581  0.00  0.00    -0.950 N 
BRANCH  18  19
ATOM     19  C   LIG    1        2.678   5.432  -2.310  0.00  0.00    +0.150 A 
ATOM     20  C   LIG    1        1.599   6.203  -1.895  0.00  0.00    -0.020 A 
ATOM     21  C   LIG    1        1.235   7.323  -2.615  0.00  0.00    +0.030 A 
ATOM     22  C   LIG    1        1.936   7.672  -3.755  0.00  0.00    +0.010 A 
ATOM     23  C   LIG    1        3.007   6.904  -4.175  0.00  0.00    +0.030 A 
ATOM     24  C   LIG    1        3.380   5.785  -3.456  0.00  0.00    +0.010 A 
ENDBRANCH  18  19
BRANCH  18  26
ATOM     25  C   LIG    1        1.618   2.394  -2.119  0.00  0.00    +0.010 C 
ATOM     26  C   LIG    1        3.028   2.980  -2.214  0.00  0.00    +0.300 C 
ENDBRANCH  18  26
ENDBRANCH  15  18
ENDBRANCH   1  15
TORSDOF 5
