REMARK  Name = ZINCqH0000034x2T.0
REMARK                            x       y       z     vdW  Elec       q    Type
REMARK                         _______ _______ _______ _____ _____    ______ ____
ROOT
ATOM      1  N   LIG    1       -0.655   5.526  -0.359  0.00  0.00    -0.520 NA
ATOM      2  C   LIG    1        0.582   5.548   0.433  0.00  0.00    +0.190 C 
ATOM      3  C   LIG    1        1.484   4.379   0.016  0.00  0.00    +0.130 C 
ATOM      4  C   LIG    1        0.645   3.125   0.013  0.00  0.00    +0.020 A 
ATOM      5  C   LIG    1       -0.708   3.143   0.025  0.00  0.00    -0.030 A 
ATOM      6  N   LIG    1       -1.124   1.849   0.017  0.00  0.00    -0.550 N 
ATOM      7  H   LIG    1       -2.043   1.538   0.020  0.00  0.00    +0.420 HD
ATOM      8  C   LIG    1       -0.013   1.076   0.008  0.00  0.00    +0.390 A 
ATOM      9  N   LIG    1        1.041   1.852   0.002  0.00  0.00    -0.480 NA
ATOM     10  C   LIG    1       -1.527   4.406   0.036  0.00  0.00    +0.280 C 
ENDROOT
BRANCH  10  11
ATOM     11  C   LIG    1       -2.668   4.281  -0.941  0.00  0.00    -0.070 A 
ATOM     12  C   LIG    1       -2.448   4.487  -2.290  0.00  0.00    +0.060 A 
ATOM     13  C   LIG    1       -3.493   4.366  -3.187  0.00  0.00    +0.040 A 
ATOM     14  C   LIG    1       -4.761   4.051  -2.733  0.00  0.00    -0.090 A 
ATOM     15  C   LIG    1       -4.982   3.851  -1.382  0.00  0.00    +0.040 A 
ATOM     16 BR   LIG    1       -6.192   3.894  -3.959  0.00  0.00    -0.050 Br
ATOM     17  C   LIG    1       -3.935   3.966  -0.487  0.00  0.00    +0.020 A 
ENDBRANCH  10  11
BRANCH   1  18
ATOM     18  C   LIG    1       -1.367   6.808  -0.261  0.00  0.00    +0.230 C 
BRANCH  18  21
ATOM     19  C   LIG    1        0.105   9.197  -2.798  0.00  0.00    +0.400 A 
ATOM     20  C   LIG    1       -0.676   8.189  -2.244  0.00  0.00    -0.090 A 
ATOM     21  C   LIG    1       -0.538   7.892  -0.900  0.00  0.00    +0.010 A 
ATOM     22  C   LIG    1        0.376   8.620  -0.151  0.00  0.00    -0.100 A 
ATOM     23  C   LIG    1        1.123   9.605  -0.767  0.00  0.00    +0.300 A 
ATOM     24  N   LIG    1        0.971   9.867  -2.051  0.00  0.00    -0.540 NA
BRANCH  19  26
ATOM     25  C   LIG    1       -1.053   8.848  -4.954  0.00  0.00    +0.280 C 
ATOM     26  N   LIG    1       -0.023   9.506  -4.147  0.00  0.00    -0.620 N 
ATOM     27  C   LIG    1        0.872  10.489  -4.762  0.00  0.00    +0.290 C 
ENDBRANCH  19  26
ENDBRANCH  18  21
ENDBRANCH   1  18
TORSDOF 4
