REMARK  Name = ZINCpk00000y6xQY.0
REMARK                            x       y       z     vdW  Elec       q    Type
REMARK                         _______ _______ _______ _____ _____    ______ ____
ROOT
ATOM      1  C   LIG    1        2.169  -0.297  -0.964  0.00  0.00    +0.580 C 
ATOM      2  N   LIG    1        3.228  -1.045  -1.331  0.00  0.00    -0.610 N 
ATOM      3  C   LIG    1        4.601  -0.549  -1.150  0.00  0.00    +0.280 C 
ATOM      4  C   LIG    1        5.354  -0.694  -2.471  0.00  0.00    +0.190 C 
ATOM      5  N   LIG    1        5.251  -2.082  -2.942  0.00  0.00    -0.530 NA
ATOM      6  C   LIG    1        3.856  -2.447  -3.224  0.00  0.00    +0.270 C 
ATOM      7  C   LIG    1        6.101  -2.302  -4.120  0.00  0.00    +0.210 C 
ATOM      8  C   LIG    1        3.042  -2.376  -1.927  0.00  0.00    +0.330 C 
ATOM      9  O   LIG    1        1.045  -0.750  -1.052  0.00  0.00    -0.520 OA
ENDROOT
BRANCH   1  14
ATOM     10  C   LIG    1        2.956   4.963   0.983  0.00  0.00    +0.180 C 
ATOM     11  C   LIG    1        2.747   3.564   0.465  0.00  0.00    +0.340 A 
ATOM     12  N   LIG    1        3.381   2.566   1.048  0.00  0.00    -0.520 NA
ATOM     13  C   LIG    1        3.226   1.323   0.626  0.00  0.00    +0.370 A 
ATOM     14  C   LIG    1        2.374   1.076  -0.456  0.00  0.00    -0.250 A 
ATOM     15  C   LIG    1        1.722   2.166  -1.044  0.00  0.00    +0.270 A 
ATOM     16  N   LIG    1        1.938   3.377  -0.560  0.00  0.00    -0.520 NA
BRANCH  15  17
ATOM     17  C   LIG    1        0.792   1.963  -2.212  0.00  0.00    +0.000 C 
ATOM     18  C   LIG    1       -0.124   3.127  -2.597  0.00  0.00    +0.060 C 
ATOM     19  C   LIG    1        1.071   2.767  -3.484  0.00  0.00    +0.050 C 
ENDBRANCH  15  17
ENDBRANCH   1  14
BRANCH   6  20
ATOM     20  C   LIG    1        3.804  -3.848  -3.775  0.00  0.00    +0.190 A 
ATOM     21  N   LIG    1        3.099  -4.258  -4.802  0.00  0.00    -0.470 NA
ATOM     22  C   LIG    1        3.366  -5.570  -4.924  0.00  0.00    +0.170 A 
ATOM     23  N   LIG    1        4.199  -5.888  -3.978  0.00  0.00    -0.380 NA
ATOM     24  C   LIG    1        2.800  -6.503  -5.964  0.00  0.00    +0.200 C 
ATOM     25  O   LIG    1        4.463  -4.913  -3.307  0.00  0.00    +0.100 OA
ENDBRANCH   6  20
TORSDOF 3
