REMARK  Name = ZINCrD000000BIVK.0
REMARK                            x       y       z     vdW  Elec       q    Type
REMARK                         _______ _______ _______ _____ _____    ______ ____
ROOT
ATOM      1  O   LIG    1        2.568   5.497  -0.923  0.00  0.00    -0.520 OA
ATOM      2  C   LIG    1        2.421   5.803   0.244  0.00  0.00    +0.560 C 
ATOM      3  N   LIG    1        1.193   5.768   0.800  0.00  0.00    -0.720 N 
ATOM      4  H   LIG    1        1.075   6.012   1.731  0.00  0.00    +0.400 HD
ENDROOT
BRANCH   3   5
ATOM      5  C   LIG    1        0.037   5.361  -0.003  0.00  0.00    +0.290 C 
ATOM      6  C   LIG    1       -1.200   6.054   0.541  0.00  0.00    +0.050 C 
ATOM      7  C   LIG    1       -2.410   5.663  -0.319  0.00  0.00    +0.120 C 
ATOM      8  S   LIG    1       -2.818   3.938   0.076  0.00  0.00    -0.120 S 
ATOM      9  C   LIG    1       -1.240   3.149   0.033  0.00  0.00    -0.070 A 
ATOM     10  C   LIG    1       -1.212   1.754   0.017  0.00  0.00    +0.030 A 
ATOM     11  C   LIG    1       -0.013   1.076   0.008  0.00  0.00    +0.030 A 
ATOM     12  C   LIG    1        1.173   1.789   0.001  0.00  0.00    +0.000 A 
ATOM     13  C   LIG    1        1.148   3.167   0.001  0.00  0.00    +0.040 A 
ATOM     14  C   LIG    1       -0.057   3.864   0.016  0.00  0.00    -0.100 A 
ENDBRANCH   3   5
BRANCH   2  15
ATOM     15  C   LIG    1        3.587   6.214   1.054  0.00  0.00    -0.130 A 
ATOM     16  C   LIG    1        3.421   6.571   2.393  0.00  0.00    +0.040 A 
ATOM     17  C   LIG    1        4.514   6.949   3.144  0.00  0.00    +0.040 A 
ATOM     18  C   LIG    1        5.773   6.984   2.571  0.00  0.00    -0.090 A 
ATOM     19  C   LIG    1        5.944   6.636   1.243  0.00  0.00    +0.040 A 
ATOM     20  C   LIG    1        4.860   6.251   0.481  0.00  0.00    +0.080 A 
BRANCH  18  21
ATOM     21  C   LIG    1        6.962   7.403   3.396  0.00  0.00    +0.360 C 
BRANCH  21  22
ATOM     22  N   LIG    1        7.142   8.853   3.292  0.00  0.00    -0.570 N 
ATOM     23  C   LIG    1        7.906   9.423   2.352  0.00  0.00    +0.530 C 
ATOM     24  C   LIG    1        7.871  10.925   2.526  0.00  0.00    +0.080 C 
ATOM     25  C   LIG    1        6.952  11.127   3.748  0.00  0.00    +0.080 C 
ATOM     26  O   LIG    1        8.526   8.829   1.496  0.00  0.00    -0.480 OA
ATOM     27  C   LIG    1        6.560   9.717   4.133  0.00  0.00    +0.530 C 
ATOM     28  O   LIG    1        5.834   9.418   5.057  0.00  0.00    -0.480 OA
ENDBRANCH  21  22
ENDBRANCH  18  21
ENDBRANCH   2  15
TORSDOF 4
