REMARK  Name = ZINCpe00000MJLvW.0
REMARK                            x       y       z     vdW  Elec       q    Type
REMARK                         _______ _______ _______ _____ _____    ______ ____
ROOT
ATOM      1  C   LIG    1       -2.194   1.879  -0.660  0.00  0.00    +0.170 C 
ATOM      2  C   LIG    1       -0.769   1.621  -1.226  0.00  0.00    +0.080 C 
ATOM      3  C   LIG    1       -0.002   1.101   0.008  0.00  0.00    +0.240 C 
ATOM      4  N   LIG    1       -0.718   1.572   1.202  0.00  0.00    -0.600 N 
ATOM      5  C   LIG    1       -0.373   1.313   2.479  0.00  0.00    +0.590 C 
ATOM      6  O   LIG    1        0.543   0.551   2.718  0.00  0.00    -0.520 OA
ATOM      7  C   LIG    1       -1.876   2.377   0.772  0.00  0.00    +0.250 C 
ENDROOT
BRANCH   5   8
ATOM      8  C   LIG    1       -1.109   1.954   3.588  0.00  0.00    -0.100 A 
ATOM      9  C   LIG    1       -1.761   3.153   3.366  0.00  0.00    +0.120 A 
ATOM     10  C   LIG    1       -2.459   3.760   4.420  0.00  0.00    +0.010 A 
ATOM     11  N   LIG    1       -3.175   4.863   4.586  0.00  0.00    -0.260 NA
ATOM     12  N   LIG    1       -3.588   4.910   5.804  0.00  0.00    -0.190 N 
ATOM     13  H   LIG    1       -4.133   5.630   6.159  0.00  0.00    +0.480 HD
ATOM     14  N   LIG    1       -3.201   3.899   6.502  0.00  0.00    -0.270 NA
ATOM     15  C   LIG    1       -2.478   3.100   5.735  0.00  0.00    +0.040 A 
ATOM     16  C   LIG    1       -1.796   1.880   5.898  0.00  0.00    +0.090 A 
ATOM     17  C   LIG    1       -1.140   1.329   4.849  0.00  0.00    +0.090 A 
ENDBRANCH   5   8
BRANCH   3  18
ATOM     18  C   LIG    1        1.403   1.646   0.005  0.00  0.00    +0.530 C 
ATOM     19  N   LIG    1        2.347   1.072  -0.767  0.00  0.00    -0.620 N 
ATOM     20  C   LIG    1        2.145  -0.089  -1.646  0.00  0.00    +0.230 C 
ATOM     21  C   LIG    1        3.503  -0.404  -2.309  0.00  0.00    +0.030 C 
ATOM     22  C   LIG    1        4.522   0.238  -1.330  0.00  0.00    +0.040 C 
ATOM     23  C   LIG    1        3.754   1.501  -0.866  0.00  0.00    +0.260 C 
ATOM     24  O   LIG    1        1.685   2.600   0.698  0.00  0.00    -0.520 OA
ENDBRANCH   3  18
BRANCH   1  26
ATOM     25  C   LIG    1       -4.294   2.820  -1.333  0.00  0.00    +0.220 C 
ATOM     26  O   LIG    1       -2.869   2.888  -1.415  0.00  0.00    -0.370 OA
ENDBRANCH   1  26
TORSDOF 3
