REMARK  Name = ZINCnE000005t7ju.1
REMARK                            x       y       z     vdW  Elec       q    Type
REMARK                         _______ _______ _______ _____ _____    ______ ____
ROOT
ATOM      1  C   LIG    1        3.739   4.112  -2.589  0.00  0.00    +0.130 C 
ATOM      2  C   LIG    1        4.163   4.075  -1.143  0.00  0.00    -0.160 A 
ATOM      3  C   LIG    1        5.394   4.359  -0.618  0.00  0.00    -0.040 A 
ATOM      4  O   LIG    1        5.283   4.186   0.712  0.00  0.00    +0.090 OA
ATOM      5  N   LIG    1        4.164   3.849   1.021  0.00  0.00    -0.370 NA
ATOM      6  C   LIG    1        3.384   3.739  -0.017  0.00  0.00    +0.090 A 
ENDROOT
BRANCH   3   7
ATOM      7  C   LIG    1        6.603   4.774  -1.361  0.00  0.00    +0.000 A 
ATOM      8  C   LIG    1        7.833   4.173  -1.090  0.00  0.00    +0.030 A 
ATOM      9  C   LIG    1        8.957   4.561  -1.790  0.00  0.00    +0.000 A 
ATOM     10  C   LIG    1        8.867   5.552  -2.752  0.00  0.00    +0.000 A 
ATOM     11  C   LIG    1        7.652   6.155  -3.022  0.00  0.00    +0.010 A 
ATOM     12  C   LIG    1        6.520   5.773  -2.332  0.00  0.00    +0.040 A 
ENDBRANCH   3   7
BRANCH   6  13
ATOM     13  C   LIG    1        1.932   3.336  -0.014  0.00  0.00    +0.250 C 
BRANCH  13  14
ATOM     14  N   LIG    1        1.828   1.882  -0.155  0.00  0.00    -1.150 NA
BRANCH  14  15
ATOM     15  S   LIG    1        0.339   1.157  -0.183  0.00  0.00    +2.600 S 
ATOM     16  O   LIG    1       -0.223   1.345   1.109  0.00  0.00    -1.060 OA
ATOM     17  O   LIG    1       -0.296   1.591  -1.378  0.00  0.00    -1.040 OA
BRANCH  15  18
ATOM     18  C   LIG    1        0.606  -0.575  -0.362  0.00  0.00    -0.660 A 
ATOM     19  C   LIG    1        0.310  -1.529   0.539  0.00  0.00    +0.290 A 
ATOM     20  O   LIG    1        0.662  -2.720   0.028  0.00  0.00    -0.170 OA
ATOM     21  C   LIG    1        1.192  -2.544  -1.194  0.00  0.00    +0.180 A 
ATOM     22  C   LIG    1        1.177  -1.229  -1.478  0.00  0.00    -0.100 A 
ATOM     23 BR   LIG    1        1.802  -0.412  -3.065  0.00  0.00    +0.000 Br
ENDBRANCH  15  18
ENDBRANCH  14  15
ENDBRANCH  13  14
ENDBRANCH   6  13
TORSDOF 5
