REMARK  Name = ZINCkj00000kKasW.0
REMARK                            x       y       z     vdW  Elec       q    Type
REMARK                         _______ _______ _______ _____ _____    ______ ____
ROOT
ATOM      1  C   LIG    1       -2.165   3.999   1.306  0.00  0.00    +0.150 C 
ATOM      2  C   LIG    1       -3.540   3.360   1.103  0.00  0.00    +0.040 C 
ATOM      3  C   LIG    1       -3.399   1.836   1.081  0.00  0.00    +0.050 C 
ATOM      4  C   LIG    1       -2.498   1.428  -0.095  0.00  0.00    +0.290 C 
ATOM      5  N   LIG    1       -1.224   2.151   0.019  0.00  0.00    -0.580 N 
ATOM      6  C   LIG    1       -1.251   3.615   0.138  0.00  0.00    +0.310 C 
ENDROOT
BRANCH   5   7
ATOM      7  C   LIG    1       -0.018   1.463   0.010  0.00  0.00    +0.330 A 
ATOM      8  N   LIG    1        1.111   2.095   0.250  0.00  0.00    -0.490 NA
ATOM      9  C   LIG    1        2.273   1.442   0.237  0.00  0.00    +0.180 A 
ATOM     10  C   LIG    1        2.341   0.118  -0.020  0.00  0.00    +0.200 A 
ATOM     11  N   LIG    1        1.213  -0.603  -0.278  0.00  0.00    -0.480 N 
ATOM     12  C   LIG    1        1.298  -2.039  -0.556  0.00  0.00    +0.340 C 
ATOM     13  C   LIG    1        0.016   0.024  -0.274  0.00  0.00    +0.480 A 
ATOM     14  O   LIG    1       -1.012  -0.592  -0.500  0.00  0.00    -0.520 OA
ENDBRANCH   5   7
BRANCH   1  15
ATOM     15  N   LIG    1       -2.306   5.460   1.358  0.00  0.00    -0.500 N 
ATOM     16  H   LIG    1       -2.783   5.782   0.529  0.00  0.00    +0.430 HD
ATOM     17  H   LIG    1       -1.392   5.885   1.406  0.00  0.00    +0.430 HD
BRANCH  15  18
ATOM     18  C   LIG    1       -3.083   5.835   2.547  0.00  0.00    +0.250 C 
BRANCH  18  19
ATOM     19  C   LIG    1       -3.230   7.357   2.601  0.00  0.00    -0.030 C 
ATOM     20  C   LIG    1       -1.854   7.995   2.800  0.00  0.00    +0.040 C 
BRANCH  19  22
ATOM     21  C   LIG    1       -4.390   9.249   3.748  0.00  0.00    +0.030 C 
ATOM     22  C   LIG    1       -4.143   7.740   3.768  0.00  0.00    +0.020 C 
ENDBRANCH  19  22
ENDBRANCH  18  19
ENDBRANCH  15  18
ENDBRANCH   1  15
TORSDOF 5
