REMARK  Name = ZINCrH000004tkN7.0
REMARK                            x       y       z     vdW  Elec       q    Type
REMARK                         _______ _______ _______ _____ _____    ______ ____
ROOT
ATOM      1  S   LIG    1        0.082   1.430  -0.056  0.00  0.00    +2.690 S 
ATOM      2  O   LIG    1        1.082   2.421  -0.241  0.00  0.00    -0.930 OA
ATOM      3  O   LIG    1        0.370   0.041   0.027  0.00  0.00    -0.940 OA
ENDROOT
BRANCH   1   6
ATOM      4  C   LIG    1       -1.346   3.462   3.115  0.00  0.00    +0.010 A 
ATOM      5  C   LIG    1       -0.667   3.128   1.941  0.00  0.00    +0.200 A 
ATOM      6  C   LIG    1       -0.769   1.851   1.429  0.00  0.00    -0.650 A 
ATOM      7  C   LIG    1       -1.532   0.899   2.081  0.00  0.00    +0.170 A 
ATOM      8  C   LIG    1       -2.203   1.222   3.247  0.00  0.00    +0.070 A 
ATOM      9  C   LIG    1       -2.115   2.496   3.768  0.00  0.00    -0.090 A 
BRANCH   9  10
ATOM     10  C   LIG    1       -2.846   2.845   5.038  0.00  0.00    +0.500 C 
ATOM     11  F   LIG    1       -3.751   3.882   4.786  0.00  0.00    -0.170 F 
ATOM     12  F   LIG    1       -1.925   3.256   6.008  0.00  0.00    -0.170 F 
ATOM     13  F   LIG    1       -3.540   1.722   5.500  0.00  0.00    -0.170 F 
ENDBRANCH   9  10
BRANCH   4  15
ATOM     14  N   LIG    1       -1.173   5.838   4.074  0.00  0.00    -0.360 NA
ATOM     15  C   LIG    1       -1.249   4.787   3.650  0.00  0.00    +0.230 C 
ENDBRANCH   4  15
ENDBRANCH   1   6
BRANCH   1  16
ATOM     16  N   LIG    1       -0.992   1.611  -1.304  0.00  0.00    -1.060 N 
ATOM     17  H   LIG    1       -1.259   0.841  -1.830  0.00  0.00    +0.430 HD
BRANCH  16  18
ATOM     18  C   LIG    1       -1.513   2.873  -1.599  0.00  0.00    +0.120 A 
ATOM     19  C   LIG    1       -2.821   3.184  -1.249  0.00  0.00    +0.010 A 
ATOM     20  C   LIG    1       -3.338   4.434  -1.534  0.00  0.00    +0.030 A 
ATOM     21  C   LIG    1       -2.562   5.375  -2.180  0.00  0.00    +0.020 A 
ATOM     22  C   LIG    1       -1.250   5.070  -2.540  0.00  0.00    +0.020 A 
ATOM     23  C   LIG    1       -0.727   3.814  -2.248  0.00  0.00    +0.040 A 
BRANCH  22  24
ATOM     24  C   LIG    1       -0.414   6.082  -3.234  0.00  0.00    -0.210 A 
ATOM     25  C   LIG    1       -0.798   7.344  -3.580  0.00  0.00    +0.260 A 
ATOM     26  N   LIG    1        0.249   7.936  -4.189  0.00  0.00    -0.470 N 
ATOM     27  H   LIG    1        0.266   8.840  -4.542  0.00  0.00    +0.440 HD
ATOM     28  N   LIG    1        1.309   7.022  -4.223  0.00  0.00    -0.290 NA
ATOM     29  C   LIG    1        0.921   5.914  -3.650  0.00  0.00    +0.260 A 
ENDBRANCH  22  24
ENDBRANCH  16  18
ENDBRANCH   1  16
TORSDOF 6
