REMARK  Name = ZINCpk00000xI3x4.0
REMARK                            x       y       z     vdW  Elec       q    Type
REMARK                         _______ _______ _______ _____ _____    ______ ____
ROOT
ATOM      1  N   LIG    1        1.343   3.296  -0.858  0.00  0.00    -0.500 NA
ATOM      2  C   LIG    1        0.427   2.918  -1.964  0.00  0.00    +0.210 C 
ATOM      3  C   LIG    1       -0.684   2.090  -1.283  0.00  0.00    +0.010 C 
ATOM      4  C   LIG    1       -0.040   1.540   0.007  0.00  0.00    +0.020 C 
ATOM      5  C   LIG    1        1.405   2.083  -0.004  0.00  0.00    +0.210 C 
ENDROOT
BRANCH   3   6
ATOM      6  C   LIG    1       -1.861   2.969  -0.947  0.00  0.00    +0.540 C 
ATOM      7  N   LIG    1       -2.569   3.553  -1.933  0.00  0.00    -0.610 N 
ATOM      8  C   LIG    1       -2.202   3.348  -3.341  0.00  0.00    +0.280 C 
ATOM      9  C   LIG    1       -3.441   2.850  -4.101  0.00  0.00    -0.010 C 
ATOM     10  C   LIG    1       -4.592   3.837  -3.890  0.00  0.00    +0.170 C 
ATOM     11  C   LIG    1       -4.937   3.909  -2.401  0.00  0.00    +0.040 C 
ATOM     12  C   LIG    1       -3.719   4.413  -1.622  0.00  0.00    +0.290 C 
ATOM     13  O   LIG    1       -2.171   3.151   0.212  0.00  0.00    -0.520 OA
BRANCH  10  14
ATOM     14  O   LIG    1       -5.736   3.397  -4.624  0.00  0.00    -0.570 OA
ATOM     15  H   LIG    1       -5.590   3.328  -5.577  0.00  0.00    +0.380 HD
ENDBRANCH  10  14
ENDBRANCH   3   6
BRANCH   4  16
ATOM     16  C   LIG    1       -0.034   0.011  -0.012  0.00  0.00    +0.460 C 
ATOM     17  F   LIG    1        0.643  -0.439  -1.151  0.00  0.00    -0.180 F 
ATOM     18  F   LIG    1       -1.351  -0.461  -0.035  0.00  0.00    -0.180 F 
ATOM     19  F   LIG    1        0.612  -0.468   1.133  0.00  0.00    -0.180 F 
ENDBRANCH   4  16
BRANCH   1  20
ATOM     20  C   LIG    1        2.674   3.646  -1.373  0.00  0.00    +0.310 C 
BRANCH  20  23
ATOM     21  C   LIG    1        2.658   6.647  -0.530  0.00  0.00    +0.180 C 
ATOM     22  C   LIG    1        3.501   5.575   0.112  0.00  0.00    +0.050 A 
ATOM     23  C   LIG    1        3.489   4.278  -0.274  0.00  0.00    -0.260 A 
ATOM     24  S   LIG    1        4.622   3.516   0.774  0.00  0.00    +0.420 S 
ATOM     25  N   LIG    1        4.996   4.809   1.572  0.00  0.00    -0.280 NA
ATOM     26  N   LIG    1        4.329   5.795   1.113  0.00  0.00    -0.240 NA
ENDBRANCH  20  23
ENDBRANCH   1  20
TORSDOF 5
