REMARK  Name = ZINCrH000004klSS.0
REMARK                            x       y       z     vdW  Elec       q    Type
REMARK                         _______ _______ _______ _____ _____    ______ ____
ROOT
ATOM      1  N   LIG    1        1.359   1.658  -2.445  0.00  0.00    -0.750 N 
ATOM      2  H   LIG    1        0.557   2.195  -2.343  0.00  0.00    +0.400 HD
ENDROOT
BRANCH   1   6
ATOM      3  C   LIG    1        2.869   0.864  -6.248  0.00  0.00    +0.070 A 
ATOM      4  C   LIG    1        1.723   1.631  -6.103  0.00  0.00    +0.030 A 
ATOM      5  C   LIG    1        1.222   1.895  -4.844  0.00  0.00    -0.020 A 
ATOM      6  C   LIG    1        1.866   1.392  -3.721  0.00  0.00    +0.180 A 
ATOM      7  C   LIG    1        3.018   0.629  -3.866  0.00  0.00    -0.040 A 
ATOM      8  C   LIG    1        3.514   0.361  -5.127  0.00  0.00    -0.030 A 
BRANCH   3   9
ATOM      9  O   LIG    1        3.362   0.605  -7.489  0.00  0.00    -0.320 OA
BRANCH   9  10
ATOM     10  C   LIG    1        4.546  -0.192  -7.563  0.00  0.00    +0.210 C 
BRANCH  10  11
ATOM     11  C   LIG    1        4.946  -0.375  -9.028  0.00  0.00    +0.130 C 
BRANCH  11  12
ATOM     12  C   LIG    1        6.195  -1.215  -9.107  0.00  0.00    +0.470 C 
ATOM     13  O   LIG    1        6.712  -1.625  -8.095  0.00  0.00    -0.510 OA
BRANCH  12  15
ATOM     14  C   LIG    1        7.936  -2.321 -10.301  0.00  0.00    +0.280 C 
ATOM     15  O   LIG    1        6.733  -1.507 -10.302  0.00  0.00    -0.360 OA
ENDBRANCH  12  15
ENDBRANCH  11  12
ENDBRANCH  10  11
ENDBRANCH   9  10
ENDBRANCH   3   9
ENDBRANCH   1   6
BRANCH   1  16
ATOM     16  C   LIG    1        2.040   1.127  -1.261  0.00  0.00    +0.230 C 
BRANCH  16  17
ATOM     17  C   LIG    1        1.286   1.562  -0.002  0.00  0.00    +0.260 C 
BRANCH  17  18
ATOM     18  C   LIG    1        2.052   1.121   1.219  0.00  0.00    -0.090 A 
ATOM     19  C   LIG    1        1.956  -0.186   1.661  0.00  0.00    +0.020 A 
ATOM     20  C   LIG    1        2.662  -0.592   2.778  0.00  0.00    +0.080 A 
ATOM     21  C   LIG    1        3.456   0.312   3.459  0.00  0.00    -0.180 A 
ATOM     22  C   LIG    1        3.548   1.619   3.021  0.00  0.00    +0.070 A 
ATOM     23  C   LIG    1        2.846   2.024   1.901  0.00  0.00    +0.030 A 
BRANCH  21  24
ATOM     24  C   LIG    1        4.220  -0.129   4.681  0.00  0.00    +0.510 C 
ATOM     25  F   LIG    1        5.393   0.626   4.794  0.00  0.00    -0.180 F 
ATOM     26  F   LIG    1        4.548  -1.484   4.562  0.00  0.00    -0.180 F 
ATOM     27  F   LIG    1        3.431   0.062   5.819  0.00  0.00    -0.170 F 
ENDBRANCH  21  24
ENDBRANCH  17  18
BRANCH  17  28
ATOM     28  O   LIG    1       -0.011   0.963   0.007  0.00  0.00    -0.550 OA
ATOM     29  H   LIG    1        0.002  -0.004   0.002  0.00  0.00    +0.380 HD
ENDBRANCH  17  28
ENDBRANCH  16  17
ENDBRANCH   1  16
TORSDOF 11
