REMARK  Name = ZINCrH00000No4yZ.0
REMARK                            x       y       z     vdW  Elec       q    Type
REMARK                         _______ _______ _______ _____ _____    ______ ____
ROOT
ATOM      1  N   LIG    1        5.937   2.059  -0.446  0.00  0.00    -0.710 N 
ATOM      2  H   LIG    1        6.003   2.957  -0.087  0.00  0.00    +0.410 HD
ATOM      3  C   LIG    1        4.752   1.595  -0.890  0.00  0.00    +0.540 C 
ATOM      4  O   LIG    1        4.670   0.468  -1.341  0.00  0.00    -0.540 OA
ENDROOT
BRANCH   3   5
ATOM      5  C   LIG    1        3.561   2.450  -0.829  0.00  0.00    -0.010 C 
ATOM      6  C   LIG    1        2.376   1.987  -1.272  0.00  0.00    +0.110 C 
BRANCH   6   7
ATOM      7  C   LIG    1        1.180   2.845  -1.211  0.00  0.00    +0.120 A 
ATOM      8  N   LIG    1        1.274   4.071  -0.720  0.00  0.00    -0.420 NA
ATOM      9  C   LIG    1        0.190   4.846  -0.666  0.00  0.00    +0.080 A 
ATOM     10  C   LIG    1        0.258   6.154  -0.150  0.00  0.00    +0.060 A 
ATOM     11  C   LIG    1       -0.864   6.922  -0.107  0.00  0.00    +0.040 A 
ATOM     12  C   LIG    1       -2.085   6.433  -0.569  0.00  0.00    +0.040 A 
ATOM     13  C   LIG    1       -2.190   5.173  -1.075  0.00  0.00    +0.060 A 
ATOM     14  C   LIG    1       -1.055   4.349  -1.136  0.00  0.00    +0.080 A 
ATOM     15  N   LIG    1       -1.130   3.109  -1.634  0.00  0.00    -0.420 NA
ATOM     16  C   LIG    1       -0.057   2.356  -1.676  0.00  0.00    +0.280 A 
ENDBRANCH   6   7
ENDBRANCH   3   5
BRANCH   1  17
ATOM     17  C   LIG    1        7.127   1.205  -0.507  0.00  0.00    +0.280 C 
BRANCH  17  18
ATOM     18  C   LIG    1        8.329   1.966   0.054  0.00  0.00    +0.210 C 
BRANCH  18  19
ATOM     19  C   LIG    1        9.575   1.136  -0.120  0.00  0.00    -0.110 A 
ATOM     20  C   LIG    1        9.663   0.234  -1.163  0.00  0.00    +0.040 A 
ATOM     21  C   LIG    1       10.806  -0.528  -1.323  0.00  0.00    +0.020 A 
ATOM     22  C   LIG    1       11.861  -0.387  -0.441  0.00  0.00    +0.030 A 
ATOM     23  C   LIG    1       11.773   0.515   0.603  0.00  0.00    +0.030 A 
ATOM     24  C   LIG    1       10.633   1.282   0.760  0.00  0.00    -0.030 A 
ATOM     25 CL   LIG    1       10.525   2.421   2.065  0.00  0.00    -0.060 Cl
ENDBRANCH  18  19
BRANCH  18  27
ATOM     26  C   LIG    1        9.478   4.097  -0.007  0.00  0.00    +0.200 C 
ATOM     27  N   LIG    1        8.483   3.238  -0.664  0.00  0.00    -0.520 NA
ATOM     28  C   LIG    1        8.835   3.008  -2.072  0.00  0.00    +0.180 C 
ENDBRANCH  18  27
ENDBRANCH  17  18
ENDBRANCH   1  17
TORSDOF 6
