REMARK  Name = ZINCvU0000000DKe.0
REMARK                            x       y       z     vdW  Elec       q    Type
REMARK                         _______ _______ _______ _____ _____    ______ ____
ROOT
ATOM      1  O   LIG    1       -1.515  -1.002  -0.180  0.00  0.00    -0.430 OA
ATOM      2  C   LIG    1       -2.272  -0.089  -0.446  0.00  0.00    +0.550 C 
ATOM      3  C   LIG    1       -1.828   1.320  -0.523  0.00  0.00    -0.190 C 
ATOM      4  S   LIG    1       -3.306   2.214  -0.930  0.00  0.00    +0.180 S 
ATOM      5  C   LIG    1       -4.336   0.773  -0.978  0.00  0.00    +0.240 C 
ATOM      6  S   LIG    1       -6.013   0.733  -1.321  0.00  0.00    -0.330 S 
ATOM      7  C   LIG    1       -0.558   1.824  -0.319  0.00  0.00    +0.040 C 
ATOM      8  C   LIG    1       -0.160   3.242  -0.211  0.00  0.00    +0.550 C 
ATOM      9  N   LIG    1        1.170   3.285  -0.020  0.00  0.00    -0.540 N 
ATOM     10  C   LIG    1        1.718   2.007   0.016  0.00  0.00    +0.180 A 
ATOM     11  C   LIG    1        3.025   1.567   0.187  0.00  0.00    -0.020 A 
ATOM     12  C   LIG    1        3.308   0.215   0.183  0.00  0.00    +0.090 A 
ATOM     13  C   LIG    1        2.298  -0.716   0.010  0.00  0.00    -0.010 A 
ATOM     14  C   LIG    1        0.994  -0.300  -0.162  0.00  0.00    +0.140 A 
ATOM     15  O   LIG    1       -0.904   4.202  -0.285  0.00  0.00    -0.440 OA
ATOM     16  C   LIG    1        0.698   1.061  -0.160  0.00  0.00    -0.150 A 
ATOM     17  N   LIG    1       -3.558  -0.276  -0.691  0.00  0.00    -0.510 N 
ENDROOT
BRANCH   9  18
ATOM     18  C   LIG    1        1.943   4.520   0.130  0.00  0.00    +0.360 C 
BRANCH  18  19
ATOM     19  C   LIG    1        2.137   4.816   1.595  0.00  0.00    -0.120 A 
ATOM     20  C   LIG    1        3.310   4.446   2.225  0.00  0.00    +0.040 A 
ATOM     21  C   LIG    1        3.488   4.718   3.569  0.00  0.00    +0.010 A 
ATOM     22  C   LIG    1        2.493   5.359   4.283  0.00  0.00    +0.030 A 
ATOM     23  C   LIG    1        1.319   5.729   3.654  0.00  0.00    +0.030 A 
ATOM     24  C   LIG    1        1.143   5.464   2.307  0.00  0.00    -0.030 A 
ATOM     25 CL   LIG    1       -0.327   5.935   1.514  0.00  0.00    -0.040 Cl
ENDBRANCH  18  19
ENDBRANCH   9  18
BRANCH  17  26
ATOM     26  C   LIG    1       -4.128  -1.625  -0.647  0.00  0.00    +0.450 C 
BRANCH  26  27
ATOM     27  C   LIG    1       -4.610  -1.921   0.750  0.00  0.00    -0.060 A 
ATOM     28  C   LIG    1       -5.841  -1.665   1.228  0.00  0.00    +0.000 A 
ATOM     29  C   LIG    1       -5.858  -2.104   2.572  0.00  0.00    -0.070 A 
ATOM     30  C   LIG    1       -4.634  -2.594   2.837  0.00  0.00    +0.190 A 
ATOM     31  O   LIG    1       -3.882  -2.481   1.730  0.00  0.00    -0.170 OA
ENDBRANCH  26  27
ENDBRANCH  17  26
TORSDOF 4
