REMARK  Name = ZINCtV00001bB3MH.0
REMARK                            x       y       z     vdW  Elec       q    Type
REMARK                         _______ _______ _______ _____ _____    ______ ____
ROOT
ATOM      1  O   LIG    1       -0.222  -3.968   0.888  0.00  0.00    -0.480 OA
ATOM      2  C   LIG    1       -0.152  -2.770   0.686  0.00  0.00    +0.570 C 
ATOM      3  C   LIG    1        1.144  -2.171   0.343  0.00  0.00    -0.160 A 
ATOM      4  C   LIG    1        2.300  -2.946   0.244  0.00  0.00    +0.110 A 
ATOM      5  C   LIG    1        3.498  -2.345  -0.080  0.00  0.00    -0.010 A 
ATOM      6  C   LIG    1        3.567  -0.979  -0.308  0.00  0.00    +0.060 A 
ATOM      7  C   LIG    1        2.435  -0.194  -0.214  0.00  0.00    -0.010 A 
ATOM      8  C   LIG    1        1.218  -0.781   0.111  0.00  0.00    +0.040 A 
ATOM      9  C   LIG    1       -0.023   0.013   0.224  0.00  0.00    -0.290 C 
ATOM     10  C   LIG    1       -1.261  -0.691   0.578  0.00  0.00    +0.580 C 
ATOM     11  O   LIG    1       -2.300  -0.065   0.684  0.00  0.00    -0.520 OA
ATOM     12  C   LIG    1       -0.017   1.373   0.010  0.00  0.00    +0.430 C 
ATOM     13  N   LIG    1       -1.261  -2.018   0.781  0.00  0.00    -0.510 N 
ENDROOT
BRANCH  13  14
ATOM     14  C   LIG    1       -2.469  -2.646   1.111  0.00  0.00    +0.130 A 
ATOM     15  C   LIG    1       -2.843  -2.780   2.441  0.00  0.00    +0.050 A 
ATOM     16  C   LIG    1       -4.038  -3.394   2.763  0.00  0.00    +0.030 A 
ATOM     17  C   LIG    1       -4.856  -3.886   1.763  0.00  0.00    +0.050 A 
ATOM     18  C   LIG    1       -4.485  -3.760   0.437  0.00  0.00    +0.040 A 
ATOM     19  C   LIG    1       -3.294  -3.141   0.107  0.00  0.00    -0.020 A 
ATOM     20 CL   LIG    1       -2.828  -2.983  -1.558  0.00  0.00    -0.060 Cl
ENDBRANCH  13  14
BRANCH  12  21
ATOM     21  N   LIG    1       -1.191   2.055  -0.065  0.00  0.00    -0.610 N 
ATOM     22  H   LIG    1       -2.033   1.574  -0.050  0.00  0.00    +0.430 HD
BRANCH  21  23
ATOM     23  C   LIG    1       -1.184   3.449  -0.162  0.00  0.00    +0.180 A 
ATOM     24  C   LIG    1        0.021   4.140  -0.177  0.00  0.00    -0.010 A 
ATOM     25  C   LIG    1        0.025   5.519  -0.278  0.00  0.00    +0.010 A 
ATOM     26  C   LIG    1       -1.171   6.211  -0.353  0.00  0.00    +0.020 A 
ATOM     27  C   LIG    1       -2.373   5.526  -0.334  0.00  0.00    +0.010 A 
ATOM     28 CL   LIG    1       -3.870   6.399  -0.428  0.00  0.00    -0.040 Cl
ATOM     29 CL   LIG    1        1.530   6.382  -0.303  0.00  0.00    -0.040 Cl
ATOM     30  C   LIG    1       -2.383   4.147  -0.238  0.00  0.00    +0.010 A 
ENDBRANCH  21  23
ENDBRANCH  12  21
TORSDOF 3
