REMARK  Name = ZINCqH0000006tnv.0
REMARK                            x       y       z     vdW  Elec       q    Type
REMARK                         _______ _______ _______ _____ _____    ______ ____
ROOT
ATOM      1  N   LIG    1        2.108   1.143  -1.208  0.00  0.00    -0.720 N 
ATOM      2  H   LIG    1        1.639   0.582  -1.845  0.00  0.00    +0.400 HD
ATOM      3  C   LIG    1        3.392   1.487  -1.432  0.00  0.00    +0.560 C 
ATOM      4  O   LIG    1        3.981   2.190  -0.634  0.00  0.00    -0.530 OA
ENDROOT
BRANCH   3   5
ATOM      5  C   LIG    1        4.084   1.010  -2.648  0.00  0.00    -0.120 A 
ATOM      6  C   LIG    1        3.413   0.199  -3.564  0.00  0.00    +0.040 A 
ATOM      7  C   LIG    1        4.063  -0.239  -4.699  0.00  0.00    +0.020 A 
ATOM      8  C   LIG    1        5.381   0.116  -4.926  0.00  0.00    -0.090 A 
ATOM      9  C   LIG    1        6.053   0.916  -4.020  0.00  0.00    +0.040 A 
ATOM     10  C   LIG    1        5.413   1.365  -2.883  0.00  0.00    +0.080 A 
BRANCH   8  11
ATOM     11  C   LIG    1        6.086  -0.370  -6.166  0.00  0.00    +0.380 C 
BRANCH  11  12
ATOM     12  N   LIG    1        6.736  -1.653  -5.886  0.00  0.00    -0.370 N 
ATOM     13  C   LIG    1        6.555  -2.801  -6.573  0.00  0.00    +0.220 A 
ATOM     14  C   LIG    1        7.335  -3.749  -6.003  0.00  0.00    -0.120 A 
ATOM     15  C   LIG    1        8.008  -3.163  -4.926  0.00  0.00    +0.220 A 
ATOM     16  N   LIG    1        7.650  -1.907  -4.855  0.00  0.00    -0.290 NA
ENDBRANCH  11  12
ENDBRANCH   8  11
ENDBRANCH   3   5
BRANCH   1  17
ATOM     17  C   LIG    1        1.423   1.615  -0.003  0.00  0.00    +0.300 C 
BRANCH  17  18
ATOM     18  C   LIG    1       -0.013   1.086   0.008  0.00  0.00    +0.200 C 
BRANCH  18  19
ATOM     19  C   LIG    1       -0.718   1.572   1.248  0.00  0.00    -0.120 A 
ATOM     20  C   LIG    1       -1.313   2.820   1.260  0.00  0.00    +0.060 A 
ATOM     21  C   LIG    1       -1.965   3.264   2.395  0.00  0.00    +0.030 A 
ATOM     22  C   LIG    1       -2.012   2.464   3.523  0.00  0.00    -0.030 A 
ATOM     23  C   LIG    1       -1.412   1.217   3.512  0.00  0.00    +0.030 A 
ATOM     24 CL   LIG    1       -2.825   3.023   4.951  0.00  0.00    -0.070 Cl
ATOM     25  C   LIG    1       -0.765   0.772   2.374  0.00  0.00    +0.040 A 
ENDBRANCH  18  19
BRANCH  18  27
ATOM     26  C   LIG    1       -1.724   0.676  -1.619  0.00  0.00    +0.210 C 
ATOM     27  O   LIG    1       -0.704   1.559  -1.150  0.00  0.00    -0.370 OA
ENDBRANCH  18  27
ENDBRANCH  17  18
ENDBRANCH   1  17
TORSDOF 7
