REMARK  Name = ZINCrH000004jyU9.0
REMARK                            x       y       z     vdW  Elec       q    Type
REMARK                         _______ _______ _______ _____ _____    ______ ____
ROOT
ATOM      1  C   LIG    1        2.464  -2.787   0.066  0.00  0.00    +0.290 C 
ATOM      2  N   LIG    1        3.718  -2.031   0.058  0.00  0.00    -0.600 N 
ATOM      3  C   LIG    1        3.696  -0.690  -0.078  0.00  0.00    +0.560 C 
ATOM      4  O   LIG    1        4.739  -0.071  -0.166  0.00  0.00    -0.510 OA
ENDROOT
BRANCH   2   5
ATOM      5  C   LIG    1        4.997  -2.732   0.197  0.00  0.00    +0.290 C 
ATOM      6  C   LIG    1        5.154  -3.727  -0.951  0.00  0.00    +0.010 C 
ATOM      7  C   LIG    1        6.385  -4.598  -0.671  0.00  0.00    +0.030 C 
ATOM      8  C   LIG    1        6.066  -5.517   0.506  0.00  0.00    +0.080 C 
ATOM      9  C   LIG    1        5.525  -4.723   1.666  0.00  0.00    -0.060 A 
ATOM     10  C   LIG    1        5.533  -5.321   2.919  0.00  0.00    +0.000 A 
ATOM     11  C   LIG    1        5.046  -4.648   4.021  0.00  0.00    +0.010 A 
ATOM     12  C   LIG    1        4.547  -3.367   3.877  0.00  0.00    +0.000 A 
ATOM     13  C   LIG    1        4.540  -2.770   2.634  0.00  0.00    +0.010 A 
ATOM     14  C   LIG    1        5.030  -3.446   1.524  0.00  0.00    -0.100 A 
ENDBRANCH   2   5
BRANCH   3  15
ATOM     15  C   LIG    1        2.405   0.027  -0.119  0.00  0.00    -0.140 A 
ATOM     16  C   LIG    1        1.391  -0.403  -0.977  0.00  0.00    +0.170 A 
ATOM     17  C   LIG    1        0.188   0.272  -1.011  0.00  0.00    -0.680 A 
ATOM     18  C   LIG    1       -0.016   1.372  -0.197  0.00  0.00    +0.170 A 
ATOM     19  C   LIG    1        0.984   1.804   0.656  0.00  0.00    +0.020 A 
ATOM     20  C   LIG    1        2.193   1.139   0.700  0.00  0.00    +0.060 A 
ATOM     21 CL   LIG    1        3.446   1.682   1.772  0.00  0.00    -0.030 Cl
BRANCH  17  22
ATOM     22  S   LIG    1       -1.092  -0.270  -2.094  0.00  0.00    +2.690 S 
ATOM     23  O   LIG    1       -2.312   0.207  -1.542  0.00  0.00    -0.950 OA
ATOM     24  O   LIG    1       -0.842  -1.644  -2.356  0.00  0.00    -0.950 OA
BRANCH  22  25
ATOM     25  N   LIG    1       -0.887   0.525  -3.532  0.00  0.00    -1.000 NA
ATOM     26  C   LIG    1       -1.542   1.816  -3.755  0.00  0.00    +0.310 C 
ATOM     27  C   LIG    1       -0.050  -0.062  -4.581  0.00  0.00    +0.310 C 
ENDBRANCH  22  25
ENDBRANCH  17  22
ENDBRANCH   3  15
TORSDOF 4
