REMARK  Name = ZINCvU0000000BsS.0
REMARK                            x       y       z     vdW  Elec       q    Type
REMARK                         _______ _______ _______ _____ _____    ______ ____
ROOT
ATOM      1  C   LIG    1       -0.014  -0.041  -0.249  0.00  0.00    +0.350 C 
ATOM      2  C   LIG    1        0.297   1.433  -0.134  0.00  0.00    -0.220 C 
ATOM      3  C   LIG    1        1.643   1.542  -0.035  0.00  0.00    +0.100 C 
ATOM      4  C   LIG    1        2.243   0.192  -0.080  0.00  0.00    +0.530 C 
ATOM      5  O   LIG    1        3.433  -0.044  -0.013  0.00  0.00    -0.500 OA
ATOM      6  N   LIG    1        1.278  -0.736  -0.205  0.00  0.00    -0.590 N 
ENDROOT
BRANCH   1  10
ATOM      7  C   LIG    1       -1.991  -0.839  -3.951  0.00  0.00    -0.060 A 
ATOM      8  C   LIG    1       -2.692  -0.914  -2.762  0.00  0.00    +0.000 A 
ATOM      9  C   LIG    1       -2.053  -0.655  -1.564  0.00  0.00    +0.030 A 
ATOM     10  C   LIG    1       -0.711  -0.323  -1.555  0.00  0.00    -0.110 A 
ATOM     11  C   LIG    1       -0.010  -0.243  -2.744  0.00  0.00    +0.040 A 
ATOM     12  C   LIG    1       -0.649  -0.506  -3.942  0.00  0.00    +0.010 A 
BRANCH   7  14
ATOM     13  C   LIG    1       -2.608   0.116  -6.155  0.00  0.00    +0.030 C 
ATOM     14  C   LIG    1       -2.688  -1.120  -5.257  0.00  0.00    +0.020 C 
ATOM     15  C   LIG    1       -2.009  -2.301  -5.953  0.00  0.00    +0.040 C 
ENDBRANCH   7  14
ENDBRANCH   1  10
BRANCH   3  16
ATOM     16  O   LIG    1        2.329   2.702   0.086  0.00  0.00    -0.430 OA
ATOM     17  H   LIG    1        3.287   2.588   0.144  0.00  0.00    +0.410 HD
ENDBRANCH   3  16
BRANCH   2  18
ATOM     18  C   LIG    1       -0.671   2.534  -0.135  0.00  0.00    +0.480 C 
ATOM     19  O   LIG    1       -0.689   3.327  -1.057  0.00  0.00    -0.420 OA
BRANCH  18  20
ATOM     20  C   LIG    1       -1.626   2.679   0.983  0.00  0.00    -0.170 A 
ATOM     21  C   LIG    1       -1.538   1.836   2.094  0.00  0.00    +0.100 A 
ATOM     22  C   LIG    1       -2.429   1.979   3.136  0.00  0.00    -0.020 A 
ATOM     23  C   LIG    1       -3.416   2.951   3.079  0.00  0.00    +0.130 A 
ATOM     24  C   LIG    1       -3.511   3.788   1.977  0.00  0.00    -0.010 A 
ATOM     25  F   LIG    1       -4.289   3.084   4.102  0.00  0.00    -0.130 F 
ATOM     26  C   LIG    1       -2.623   3.657   0.931  0.00  0.00    +0.120 A 
ENDBRANCH  18  20
ENDBRANCH   2  18
BRANCH   6  27
ATOM     27  C   LIG    1        1.480  -2.185  -0.283  0.00  0.00    +0.450 C 
BRANCH  27  28
ATOM     28  C   LIG    1        1.646  -2.592  -1.725  0.00  0.00    -0.050 A 
ATOM     29  C   LIG    1        2.810  -2.653  -2.396  0.00  0.00    -0.030 A 
ATOM     30  C   LIG    1        2.504  -3.080  -3.708  0.00  0.00    -0.070 A 
ATOM     31  C   LIG    1        1.171  -3.247  -3.763  0.00  0.00    +0.180 A 
ATOM     32  O   LIG    1        0.656  -2.949  -2.559  0.00  0.00    -0.160 OA
ENDBRANCH  27  28
ENDBRANCH   6  27
TORSDOF 7
