REMARK  Name = ZINCpe000000WvEx.0
REMARK                            x       y       z     vdW  Elec       q    Type
REMARK                         _______ _______ _______ _____ _____    ______ ____
ROOT
ATOM      1  C   LIG    1       -0.981   0.738   1.727  0.00  0.00    +0.210 A 
ATOM      2  C   LIG    1        0.128   1.395   2.252  0.00  0.00    -0.110 A 
ATOM      3  C   LIG    1        1.362   0.783   2.236  0.00  0.00    +0.180 A 
ATOM      4  C   LIG    1        1.495  -0.496   1.692  0.00  0.00    -0.280 A 
ATOM      5  C   LIG    1        2.644  -1.401   1.526  0.00  0.00    +0.390 C 
ATOM      6  C   LIG    1        2.080  -2.622   0.863  0.00  0.00    +0.500 C 
ATOM      7  N   LIG    1        0.764  -2.414   0.682  0.00  0.00    -0.540 N 
ATOM      8  O   LIG    1        2.699  -3.617   0.547  0.00  0.00    -0.430 OA
ATOM      9  O   LIG    1        3.796  -1.203   1.855  0.00  0.00    -0.370 OA
ATOM     10  C   LIG    1        0.377  -1.164   1.160  0.00  0.00    +0.240 A 
ATOM     11  C   LIG    1       -0.857  -0.535   1.184  0.00  0.00    -0.050 A 
ENDROOT
BRANCH   1  13
ATOM     12  C   LIG    1       -2.253   2.656   2.313  0.00  0.00    +0.250 C 
ATOM     13  O   LIG    1       -2.192   1.348   1.741  0.00  0.00    -0.310 OA
ENDBRANCH   1  13
BRANCH   7  14
ATOM     14  C   LIG    1       -0.147  -3.379   0.061  0.00  0.00    +0.460 C 
BRANCH  14  15
ATOM     15  N   LIG    1        0.047  -3.369  -1.395  0.00  0.00    -0.510 NA
BRANCH  15  16
ATOM     16  C   LIG    1       -0.381  -4.641  -1.992  0.00  0.00    +0.220 C 
ATOM     17  C   LIG    1       -1.795  -5.002  -1.506  0.00  0.00    +0.040 C 
ATOM     18  C   LIG    1       -2.079  -6.475  -1.863  0.00  0.00    -0.310 C 
ATOM     19  S   LIG    1       -0.439  -7.284  -1.888  0.00  0.00    +2.390 S 
ATOM     20  O   LIG    1       -0.343  -8.187  -0.795  0.00  0.00    -0.930 OA
ATOM     21  O   LIG    1       -0.154  -7.732  -3.206  0.00  0.00    -0.930 OA
ATOM     22  C   LIG    1        0.554  -5.787  -1.527  0.00  0.00    -0.300 C 
ENDBRANCH  15  16
BRANCH  15  23
ATOM     23  C   LIG    1       -0.656  -2.236  -2.011  0.00  0.00    +0.090 C 
ATOM     24  C   LIG    1        0.041  -1.515  -3.167  0.00  0.00    +0.040 C 
ATOM     25  C   LIG    1       -0.069  -0.839  -1.798  0.00  0.00    +0.040 C 
ENDBRANCH  15  23
ENDBRANCH  14  15
ENDBRANCH   7  14
TORSDOF 5
