REMARK  Name = ZINCrH000004oTnA.0
REMARK                            x       y       z     vdW  Elec       q    Type
REMARK                         _______ _______ _______ _____ _____    ______ ____
ROOT
ATOM      1  C   LIG    1       -0.018   2.049   2.268  0.00  0.00    +0.570 C 
ATOM      2  N   LIG    1       -0.685   2.318   1.128  0.00  0.00    -0.610 N 
ATOM      3  C   LIG    1        0.025   2.709  -0.098  0.00  0.00    +0.330 C 
ATOM      4  C   LIG    1       -0.705   3.850  -0.750  0.00  0.00    -0.040 C 
ATOM      5  C   LIG    1       -1.901   4.244  -0.387  0.00  0.00    -0.070 C 
ATOM      6  C   LIG    1       -2.693   3.629   0.729  0.00  0.00    +0.070 C 
ATOM      7  C   LIG    1       -2.155   2.235   1.060  0.00  0.00    +0.290 C 
ATOM      8  O   LIG    1       -0.632   1.836   3.296  0.00  0.00    -0.530 OA
ENDROOT
BRANCH   1  15
ATOM      9  C   LIG    1        6.156   4.619   2.655  0.00  0.00    +0.090 C 
ATOM     10  C   LIG    1        6.388   3.292   3.381  0.00  0.00    +0.060 C 
ATOM     11  S   LIG    1        5.989   1.912   2.268  0.00  0.00    -0.070 S 
ATOM     12  C   LIG    1        4.225   1.948   2.267  0.00  0.00    -0.110 A 
ATOM     13  C   LIG    1        3.522   1.538   1.141  0.00  0.00    +0.090 A 
ATOM     14  C   LIG    1        2.144   1.564   1.139  0.00  0.00    +0.050 A 
ATOM     15  C   LIG    1        1.456   2.013   2.269  0.00  0.00    -0.100 A 
ATOM     16  C   LIG    1        2.163   2.423   3.403  0.00  0.00    +0.060 A 
ATOM     17  C   LIG    1        3.548   2.392   3.408  0.00  0.00    +0.160 A 
ATOM     18  N   LIG    1        4.235   2.800   4.549  0.00  0.00    -0.650 N 
ATOM     19  H   LIG    1        3.749   2.778   5.388  0.00  0.00    +0.420 HD
ATOM     20  C   LIG    1        5.498   3.218   4.591  0.00  0.00    +0.530 C 
ATOM     21  O   LIG    1        5.956   3.556   5.662  0.00  0.00    -0.510 OA
ENDBRANCH   1  15
BRANCH   5  22
ATOM     22  C   LIG    1       -2.511   5.369  -1.126  0.00  0.00    -0.070 A 
ATOM     23  C   LIG    1       -2.774   6.574  -0.474  0.00  0.00    +0.040 A 
ATOM     24  C   LIG    1       -3.338   7.623  -1.169  0.00  0.00    -0.010 A 
ATOM     25  C   LIG    1       -3.655   7.477  -2.513  0.00  0.00    +0.110 A 
ATOM     26  C   LIG    1       -3.400   6.278  -3.164  0.00  0.00    -0.010 A 
ATOM     27  C   LIG    1       -2.831   5.226  -2.478  0.00  0.00    +0.040 A 
BRANCH  25  28
ATOM     28  O   LIG    1       -4.217   8.511  -3.193  0.00  0.00    -0.500 OA
ATOM     29  H   LIG    1       -5.183   8.519  -3.168  0.00  0.00    +0.390 HD
ENDBRANCH  25  28
ENDBRANCH   5  22
TORSDOF 3
