REMARK  Name = ZINCpk00000eaUW7.0
REMARK                            x       y       z     vdW  Elec       q    Type
REMARK                         _______ _______ _______ _____ _____    ______ ____
ROOT
ATOM      1  N   LIG    1        3.021   3.440  -0.831  0.00  0.00    -0.740 N 
ATOM      2  H   LIG    1        3.650   3.093  -0.180  0.00  0.00    +0.390 HD
ATOM      3  C   LIG    1        1.774   2.932  -0.900  0.00  0.00    +0.710 C 
ATOM      4  N   LIG    1        1.369   2.014  -0.001  0.00  0.00    -0.630 N 
ATOM      5  C   LIG    1       -0.020   1.531   0.013  0.00  0.00    +0.300 C 
ATOM      6  C   LIG    1       -0.003  -0.001   0.002  0.00  0.00    +0.200 C 
ATOM      7  N   LIG    1        0.834  -0.486   1.108  0.00  0.00    -0.480 N 
ATOM      8  C   LIG    1        2.231  -0.062   0.944  0.00  0.00    +0.200 C 
ATOM      9  C   LIG    1        2.306   1.468   0.994  0.00  0.00    +0.280 C 
ATOM     10  O   LIG    1        1.014   3.303  -1.774  0.00  0.00    -0.590 OA
ENDROOT
BRANCH   7  11
ATOM     11  C   LIG    1        0.744  -1.868   1.231  0.00  0.00    +0.310 A 
ATOM     12  C   LIG    1        1.467  -2.519   2.225  0.00  0.00    -0.050 A 
ATOM     13  C   LIG    1        1.368  -3.895   2.337  0.00  0.00    +0.090 A 
ATOM     14  C   LIG    1        0.547  -4.574   1.448  0.00  0.00    -0.060 A 
ATOM     15  C   LIG    1       -0.142  -3.864   0.485  0.00  0.00    +0.290 A 
ATOM     16  N   LIG    1       -0.033  -2.551   0.405  0.00  0.00    -0.520 NA
ENDBRANCH   7  11
BRANCH   1  17
ATOM     17  C   LIG    1        3.425   4.516  -1.740  0.00  0.00    +0.360 C 
BRANCH  17  22
ATOM     18  C   LIG    1        8.871   6.017  -0.624  0.00  0.00    +0.150 C 
ATOM     19  C   LIG    1        7.447   5.621  -0.920  0.00  0.00    +0.180 A 
ATOM     20  C   LIG    1        7.193   4.724  -1.902  0.00  0.00    -0.090 A 
ATOM     21  C   LIG    1        5.871   4.347  -2.179  0.00  0.00    +0.050 A 
ATOM     22  C   LIG    1        4.854   4.900  -1.458  0.00  0.00    -0.260 A 
ATOM     23  C   LIG    1        5.154   5.829  -0.447  0.00  0.00    +0.530 A 
ATOM     24  O   LIG    1        4.254   6.328   0.209  0.00  0.00    -0.540 OA
ATOM     25  C   LIG    1        5.577   3.345  -3.266  0.00  0.00    +0.120 C 
ATOM     26  N   LIG    1        6.434   6.167  -0.201  0.00  0.00    -0.610 N 
ATOM     27  H   LIG    1        6.635   6.808   0.499  0.00  0.00    +0.410 HD
ENDBRANCH  17  22
ENDBRANCH   1  17
TORSDOF 3
