REMARK  Name = ZINCvU0000000Jhw.0
REMARK                            x       y       z     vdW  Elec       q    Type
REMARK                         _______ _______ _______ _____ _____    ______ ____
ROOT
ATOM      1  C   LIG    1        3.713  -0.860  -0.040  0.00  0.00    +0.190 A 
ATOM      2  N   LIG    1        4.441  -1.151   1.001  0.00  0.00    -0.240 NA
ATOM      3  N   LIG    1        5.585  -1.604   0.629  0.00  0.00    -0.280 NA
ATOM      4  C   LIG    1        5.651  -1.627  -0.682  0.00  0.00    +0.170 A 
ATOM      5  N   LIG    1        4.455  -1.157  -1.152  0.00  0.00    -0.410 N 
ENDROOT
BRANCH   5   6
ATOM      6  C   LIG    1        4.070  -1.010  -2.492  0.00  0.00    +0.090 A 
ATOM      7  C   LIG    1        3.030  -1.773  -3.005  0.00  0.00    +0.030 A 
ATOM      8  C   LIG    1        2.650  -1.621  -4.324  0.00  0.00    +0.040 A 
ATOM      9  C   LIG    1        3.310  -0.718  -5.136  0.00  0.00    +0.040 A 
ATOM     10  C   LIG    1        4.349   0.040  -4.629  0.00  0.00    +0.040 A 
ATOM     11  C   LIG    1        4.731  -0.103  -3.310  0.00  0.00    +0.040 A 
ENDBRANCH   5   6
BRANCH   1  12
ATOM     12  C   LIG    1        2.312  -0.304  -0.023  0.00  0.00    +0.350 C 
BRANCH  12  13
ATOM     13  O   LIG    1        2.365   1.123  -0.015  0.00  0.00    -0.300 OA
BRANCH  13  20
ATOM     14  F   LIG    1        2.314   3.870   0.001  0.00  0.00    -0.130 F 
ATOM     15  C   LIG    1        1.156   3.175   0.008  0.00  0.00    +0.070 A 
ATOM     16  C   LIG    1       -0.054   3.845   0.023  0.00  0.00    +0.030 A 
ATOM     17  C   LIG    1       -1.239   3.133   0.031  0.00  0.00    +0.020 A 
ATOM     18  C   LIG    1       -1.219   1.751   0.017  0.00  0.00    +0.050 A 
ATOM     19  C   LIG    1       -0.013   1.076   0.008  0.00  0.00    -0.040 A 
ATOM     20  C   LIG    1        1.178   1.786   0.000  0.00  0.00    +0.100 A 
ENDBRANCH  13  20
ENDBRANCH  12  13
ENDBRANCH   1  12
BRANCH   4  21
ATOM     21  S   LIG    1        7.018  -2.168  -1.653  0.00  0.00    +0.040 S 
BRANCH  21  22
ATOM     22  C   LIG    1        8.174  -2.629  -0.338  0.00  0.00    +0.100 C 
BRANCH  22  23
ATOM     23  C   LIG    1        9.474  -3.143  -0.960  0.00  0.00    +0.240 C 
BRANCH  23  24
ATOM     24  O   LIG    1       10.387  -3.507   0.078  0.00  0.00    -0.300 OA
BRANCH  24  25
ATOM     25  C   LIG    1       11.599  -3.987  -0.306  0.00  0.00    +0.140 A 
ATOM     26  C   LIG    1       11.901  -4.111  -1.654  0.00  0.00    -0.080 A 
ATOM     27  C   LIG    1       13.136  -4.594  -2.043  0.00  0.00    +0.070 A 
ATOM     28  C   LIG    1       14.066  -4.965  -1.091  0.00  0.00    -0.010 A 
ATOM     29  C   LIG    1       13.765  -4.847   0.255  0.00  0.00    +0.000 A 
ATOM     30 CL   LIG    1       14.936  -5.313   1.450  0.00  0.00    -0.060 Cl
ATOM     31  C   LIG    1       12.534  -4.359   0.649  0.00  0.00    +0.000 A 
ENDBRANCH  24  25
ENDBRANCH  23  24
ENDBRANCH  22  23
ENDBRANCH  21  22
ENDBRANCH   4  21
TORSDOF 9
