REMARK  Name = ZINCtV00000L6kFg.0
REMARK                            x       y       z     vdW  Elec       q    Type
REMARK                         _______ _______ _______ _____ _____    ______ ____
ROOT
ATOM      1  C   LIG    1        4.845  -0.016   0.018  0.00  0.00    +0.440 A 
ATOM      2  C   LIG    1        4.918   1.345   0.108  0.00  0.00    -0.070 A 
ATOM      3  C   LIG    1        6.179   1.963   0.162  0.00  0.00    +0.260 A 
ATOM      4  N   LIG    1        7.281   1.228   0.124  0.00  0.00    -0.460 NA
ATOM      5  C   LIG    1        7.216  -0.102   0.036  0.00  0.00    +0.290 A 
ATOM      6  C   LIG    1        8.204  -1.095  -0.020  0.00  0.00    -0.200 A 
ATOM      7  C   LIG    1        7.547  -2.328  -0.108  0.00  0.00    +0.310 A 
ATOM      8  N   LIG    1        6.253  -2.119  -0.107  0.00  0.00    -0.300 NA
ATOM      9  N   LIG    1        6.007  -0.745  -0.013  0.00  0.00    -0.330 N 
ENDROOT
BRANCH   6  10
ATOM     10  C   LIG    1        9.669  -0.880   0.009  0.00  0.00    +0.010 A 
ATOM     11  C   LIG    1       10.258   0.044  -0.855  0.00  0.00    +0.020 A 
ATOM     12  C   LIG    1       11.623   0.244  -0.819  0.00  0.00    +0.000 A 
ATOM     13  C   LIG    1       12.408  -0.478   0.062  0.00  0.00    +0.000 A 
ATOM     14  C   LIG    1       11.830  -1.400   0.917  0.00  0.00    +0.000 A 
ATOM     15  C   LIG    1       10.466  -1.605   0.895  0.00  0.00    +0.010 A 
ENDBRANCH   6  10
BRANCH   3  16
ATOM     16  C   LIG    1        6.277   3.438   0.260  0.00  0.00    -0.060 A 
ATOM     17  C   LIG    1        5.119   4.215   0.295  0.00  0.00    +0.040 A 
ATOM     18  C   LIG    1        5.216   5.588   0.393  0.00  0.00    +0.000 A 
ATOM     19  C   LIG    1        6.458   6.195   0.445  0.00  0.00    +0.030 A 
ATOM     20  C   LIG    1        7.610   5.430   0.405  0.00  0.00    +0.000 A 
ATOM     21  C   LIG    1        7.526   4.055   0.313  0.00  0.00    +0.070 A 
ENDBRANCH   3  16
BRANCH   1  22
ATOM     22  N   LIG    1        3.620  -0.649  -0.035  0.00  0.00    -0.680 N 
ATOM     23  H   LIG    1        2.979  -0.526   0.681  0.00  0.00    +0.430 HD
BRANCH  22  28
ATOM     24  C   LIG    1        2.341  -3.982  -4.443  0.00  0.00    +0.090 C 
ATOM     25  C   LIG    1        2.679  -3.093  -3.274  0.00  0.00    -0.120 A 
ATOM     26  C   LIG    1        3.842  -2.345  -3.289  0.00  0.00    +0.040 A 
ATOM     27  C   LIG    1        4.157  -1.534  -2.217  0.00  0.00    -0.040 A 
ATOM     28  C   LIG    1        3.304  -1.470  -1.122  0.00  0.00    +0.180 A 
ATOM     29  C   LIG    1        2.137  -2.222  -1.110  0.00  0.00    -0.030 A 
ATOM     30  C   LIG    1        1.828  -3.031  -2.186  0.00  0.00    +0.050 A 
ENDBRANCH  22  28
ENDBRANCH   1  22
TORSDOF 4
