REMARK  Name = ZINCqH0000050J9b.0
REMARK                            x       y       z     vdW  Elec       q    Type
REMARK                         _______ _______ _______ _____ _____    ______ ____
ROOT
ATOM      1  C   LIG    1        3.627   4.726  -0.008  0.00  0.00    +0.350 C 
ATOM      2  C   LIG    1        3.697   5.241   1.431  0.00  0.00    +0.060 C 
ENDROOT
BRANCH   1   5
ATOM      3  C   LIG    1        4.562   6.760  -2.036  0.00  0.00    +0.150 C 
ATOM      4  C   LIG    1        5.439   5.649  -1.520  0.00  0.00    +0.100 A 
ATOM      5  C   LIG    1        5.003   4.760  -0.621  0.00  0.00    -0.240 A 
ATOM      6  S   LIG    1        6.317   3.638  -0.272  0.00  0.00    +0.090 S 
ATOM      7  C   LIG    1        7.348   4.500  -1.412  0.00  0.00    +0.130 A 
ATOM      8  N   LIG    1        6.679   5.494  -1.923  0.00  0.00    -0.460 NA
BRANCH   7   9
ATOM      9  C   LIG    1        8.750   4.155  -1.732  0.00  0.00    -0.050 A 
ATOM     10  C   LIG    1        9.362   3.064  -1.111  0.00  0.00    +0.070 A 
ATOM     11  C   LIG    1       10.668   2.744  -1.416  0.00  0.00    +0.000 A 
ATOM     12  C   LIG    1       11.376   3.508  -2.330  0.00  0.00    +0.120 A 
ATOM     13  C   LIG    1       10.775   4.594  -2.946  0.00  0.00    +0.000 A 
ATOM     14  F   LIG    1       12.657   3.192  -2.622  0.00  0.00    -0.130 F 
ATOM     15  C   LIG    1        9.468   4.921  -2.651  0.00  0.00    +0.110 A 
ENDBRANCH   7   9
ENDBRANCH   1   5
BRANCH   1  16
ATOM     16  N   LIG    1        3.125   3.349  -0.010  0.00  0.00    -0.730 N 
ATOM     17  H   LIG    1        3.748   2.606  -0.020  0.00  0.00    +0.390 HD
ATOM     18  C   LIG    1        1.798   3.116   0.001  0.00  0.00    +0.600 C 
ATOM     19  O   LIG    1        1.016   4.048   0.013  0.00  0.00    -0.500 OA
BRANCH  18  20
ATOM     20  C   LIG    1        1.293   1.733  -0.001  0.00  0.00    -0.080 A 
ATOM     21  C   LIG    1       -0.016   1.329   0.009  0.00  0.00    +0.100 A 
ATOM     22  N   LIG    1        0.002  -0.004   0.002  0.00  0.00    -0.260 NA
ATOM     23  N   LIG    1        1.220  -0.415  -0.012  0.00  0.00    -0.030 NA
ATOM     24  N   LIG    1        2.035   0.581  -0.014  0.00  0.00    -0.380 N 
ATOM     25  H   LIG    1        3.003   0.526  -0.024  0.00  0.00    +0.450 HD
BRANCH  21  26
ATOM     26  C   LIG    1       -1.235   2.216   0.020  0.00  0.00    +0.050 C 
ATOM     27  C   LIG    1       -2.594   1.545   0.230  0.00  0.00    +0.050 C 
ATOM     28  C   LIG    1       -2.212   2.087  -1.150  0.00  0.00    +0.040 C 
ENDBRANCH  21  26
ENDBRANCH  18  20
ENDBRANCH   1  16
TORSDOF 5
