REMARK  Name = ZINCqH0000050J9b.1
REMARK                            x       y       z     vdW  Elec       q    Type
REMARK                         _______ _______ _______ _____ _____    ______ ____
ROOT
ATOM      1  C   LIG    1        5.296   6.694  -0.015  0.00  0.00    +0.350 C 
ATOM      2  C   LIG    1        5.358   7.316   1.382  0.00  0.00    +0.040 C 
ENDROOT
BRANCH   1   5
ATOM      3  C   LIG    1        6.058   3.770  -0.037  0.00  0.00    +0.150 C 
ATOM      4  C   LIG    1        4.629   4.249  -0.021  0.00  0.00    +0.090 A 
ATOM      5  C   LIG    1        4.316   5.549  -0.011  0.00  0.00    -0.240 A 
ATOM      6  S   LIG    1        2.559   5.693  -0.000  0.00  0.00    +0.100 S 
ATOM      7  C   LIG    1        2.421   3.936  -0.001  0.00  0.00    +0.120 A 
ATOM      8  N   LIG    1        3.614   3.416  -0.016  0.00  0.00    -0.460 NA
BRANCH   7   9
ATOM      9  C   LIG    1        1.153   3.176   0.008  0.00  0.00    -0.040 A 
ATOM     10  C   LIG    1        1.173   1.780   0.000  0.00  0.00    +0.110 A 
ATOM     11  C   LIG    1       -0.013   1.076   0.008  0.00  0.00    +0.000 A 
ATOM     12  C   LIG    1       -1.223   1.751   0.017  0.00  0.00    +0.120 A 
ATOM     13  C   LIG    1       -1.249   3.137   0.030  0.00  0.00    +0.000 A 
ATOM     14  F   LIG    1       -2.381   1.056   0.019  0.00  0.00    -0.130 F 
ATOM     15  C   LIG    1       -0.069   3.851   0.022  0.00  0.00    +0.070 A 
ENDBRANCH   7   9
ENDBRANCH   1   5
BRANCH   1  16
ATOM     16  N   LIG    1        4.862   7.705  -0.982  0.00  0.00    -0.710 N 
ATOM     17  H   LIG    1        3.925   7.774  -1.224  0.00  0.00    +0.410 HD
ATOM     18  C   LIG    1        5.764   8.540  -1.535  0.00  0.00    +0.620 C 
ATOM     19  O   LIG    1        6.938   8.453  -1.231  0.00  0.00    -0.510 OA
BRANCH  18  20
ATOM     20  C   LIG    1        5.326   9.560  -2.510  0.00  0.00    -0.040 A 
ATOM     21  N   LIG    1        4.093   9.780  -2.941  0.00  0.00    -0.240 NA
ATOM     22  N   LIG    1        4.122  10.751  -3.783  0.00  0.00    -0.230 N 
ATOM     23  H   LIG    1        3.343  11.103  -4.241  0.00  0.00    +0.480 HD
ATOM     24  N   LIG    1        5.318  11.194  -3.938  0.00  0.00    -0.280 NA
ATOM     25  C   LIG    1        6.132  10.507  -3.173  0.00  0.00    +0.100 A 
BRANCH  25  26
ATOM     26  C   LIG    1        7.621  10.691  -3.034  0.00  0.00    +0.060 C 
ATOM     27  C   LIG    1        8.247  11.918  -3.700  0.00  0.00    +0.040 C 
ATOM     28  C   LIG    1        8.474  10.525  -4.293  0.00  0.00    +0.040 C 
ENDBRANCH  25  26
ENDBRANCH  18  20
ENDBRANCH   1  16
TORSDOF 5
