REMARK  Name = ZINCbw0000000HcQ.0
REMARK                            x       y       z     vdW  Elec       q    Type
REMARK                         _______ _______ _______ _____ _____    ______ ____
ROOT
ATOM      1  C   LIG    1       -0.902   3.118  -1.143  0.00  0.00    +0.000 C 
ATOM      2  C   LIG    1       -1.760   3.493   0.067  0.00  0.00    +0.030 C 
ATOM      3  C   LIG    1       -1.049   3.053   1.351  0.00  0.00    +0.020 C 
ATOM      4  C   LIG    1       -0.728   1.577   1.247  0.00  0.00    +0.360 C 
ATOM      5  C   LIG    1       -0.013   1.086   0.008  0.00  0.00    +0.020 C 
ATOM      6  O   LIG    1       -1.040   0.812   2.127  0.00  0.00    -0.460 OA
ATOM      7  C   LIG    1       -0.761   1.597  -1.227  0.00  0.00    +0.010 C 
ATOM      8  C   LIG    1       -2.151   0.958  -1.283  0.00  0.00    +0.020 C 
ENDROOT
BRANCH   1  10
ATOM      9  C   LIG    1       -1.710   5.160  -2.334  0.00  0.00    +0.010 C 
ATOM     10  C   LIG    1       -1.569   3.639  -2.418  0.00  0.00    -0.020 C 
ATOM     11  C   LIG    1       -0.709   3.272  -3.629  0.00  0.00    +0.010 C 
ENDBRANCH   1  10
TORSDOF 1
