REMARK  Name = ZINCvU0000000GPP.0
REMARK                            x       y       z     vdW  Elec       q    Type
REMARK                         _______ _______ _______ _____ _____    ______ ____
ROOT
ATOM      1  C   LIG    1        5.392   1.928   1.737  0.00  0.00    +0.180 A 
ATOM      2  N   LIG    1        5.635   1.129   2.746  0.00  0.00    -0.460 NA
ATOM      3  C   LIG    1        6.961   0.869   2.692  0.00  0.00    +0.220 A 
ATOM      4  N   LIG    1        7.442   1.526   1.667  0.00  0.00    -0.340 NA
ATOM      5  O   LIG    1        6.554   2.138   1.111  0.00  0.00    +0.090 OA
ENDROOT
BRANCH   3   6
ATOM      6  C   LIG    1        7.728   0.006   3.622  0.00  0.00    -0.090 A 
ATOM      7  C   LIG    1        7.088  -0.641   4.680  0.00  0.00    +0.160 A 
ATOM      8  C   LIG    1        7.848  -1.438   5.521  0.00  0.00    -0.060 A 
ATOM      9  C   LIG    1        9.204  -1.567   5.291  0.00  0.00    +0.330 A 
ATOM     10  N   LIG    1        9.788  -0.945   4.284  0.00  0.00    -0.520 NA
ATOM     11  C   LIG    1        9.106  -0.178   3.451  0.00  0.00    +0.350 A 
BRANCH  11  12
ATOM     12  O   LIG    1        9.745   0.438   2.426  0.00  0.00    -0.230 OA
BRANCH  12  13
ATOM     13  C   LIG    1       11.096   0.315   2.352  0.00  0.00    +0.090 A 
ATOM     14  C   LIG    1       11.912   1.369   2.738  0.00  0.00    +0.020 A 
ATOM     15  C   LIG    1       13.286   1.240   2.665  0.00  0.00    +0.020 A 
ATOM     16  C   LIG    1       13.847   0.066   2.199  0.00  0.00    +0.020 A 
ATOM     17  C   LIG    1       13.037  -0.984   1.809  0.00  0.00    +0.020 A 
ATOM     18  C   LIG    1       11.663  -0.862   1.884  0.00  0.00    +0.010 A 
ENDBRANCH  12  13
ENDBRANCH  11  12
ENDBRANCH   3   6
BRANCH   1  23
ATOM     19  C   LIG    1        3.663   2.073  -0.069  0.00  0.00    +0.220 C 
ATOM     20  O   LIG    1        3.495   3.268  -0.850  0.00  0.00    -0.350 OA
ATOM     21  C   LIG    1        4.324   4.285  -0.247  0.00  0.00    +0.220 C 
ATOM     22  C   LIG    1        4.135   4.051   1.274  0.00  0.00    +0.040 C 
ATOM     23  C   LIG    1        4.054   2.507   1.357  0.00  0.00    +0.120 C 
BRANCH  19  27
ATOM     24  F   LIG    1       -1.206   1.914  -0.017  0.00  0.00    -0.120 F 
ATOM     25  C   LIG    1       -0.024   1.258  -0.005  0.00  0.00    +0.110 A 
ATOM     26  C   LIG    1        1.163   1.970  -0.039  0.00  0.00    +0.040 A 
ATOM     27  C   LIG    1        2.371   1.298  -0.033  0.00  0.00    -0.060 A 
ATOM     28  C   LIG    1        2.395  -0.083   0.007  0.00  0.00    +0.040 A 
ATOM     29  C   LIG    1        1.210  -0.796   0.040  0.00  0.00    +0.070 A 
ATOM     30  C   LIG    1        0.000  -0.127   0.034  0.00  0.00    -0.070 A 
ATOM     31 CL   LIG    1       -1.487  -1.021   0.076  0.00  0.00    -0.040 Cl
ENDBRANCH  19  27
ENDBRANCH   1  23
TORSDOF 5
