REMARK  Name = ZINCb80000001tXG.0
REMARK                            x       y       z     vdW  Elec       q    Type
REMARK                         _______ _______ _______ _____ _____    ______ ____
ROOT
ATOM      1  C   LIG    1        3.311   3.279   1.237  0.00  0.00    -0.010 C 
ATOM      2  C   LIG    1        2.534   3.726  -0.002  0.00  0.00    +0.050 C 
ATOM      3  C   LIG    1        1.145   3.085   0.008  0.00  0.00    +0.040 C 
ATOM      4  C   LIG    1        1.286   1.562  -0.002  0.00  0.00    +0.160 C 
ATOM      5  C   LIG    1        2.064   1.114   1.238  0.00  0.00    -0.010 C 
ATOM      6  C   LIG    1        3.453   1.755   1.228  0.00  0.00    +0.030 C 
ENDROOT
BRANCH   1  10
ATOM      7  C   LIG    1        6.875   4.271   2.220  0.00  0.00    +0.280 C 
ATOM      8  N   LIG    1        5.545   3.658   2.229  0.00  0.00    -0.740 N 
ATOM      9  H   LIG    1        5.288   3.069   2.956  0.00  0.00    +0.400 HD
ATOM     10  C   LIG    1        4.679   3.910   1.228  0.00  0.00    +0.510 C 
ATOM     11  O   LIG    1        5.001   4.646   0.319  0.00  0.00    -0.540 OA
ENDBRANCH   1  10
BRANCH   4  12
ATOM     12  O   LIG    1       -0.011   0.963   0.007  0.00  0.00    -0.570 OA
ATOM     13  H   LIG    1        0.002  -0.004   0.002  0.00  0.00    +0.380 HD
ENDBRANCH   4  12
TORSDOF 2
