REMARK  Name = ZINCrD000000Cu9S.0
REMARK                            x       y       z     vdW  Elec       q    Type
REMARK                         _______ _______ _______ _____ _____    ______ ____
ROOT
ATOM      1  O   LIG    1        1.095   0.577   2.284  0.00  0.00    -0.450 OA
ATOM      2  C   LIG    1       -0.019   1.022   2.464  0.00  0.00    +0.490 C 
ATOM      3  N   LIG    1       -0.403   1.397   3.700  0.00  0.00    -0.550 N 
ATOM      4  C   LIG    1       -1.577   2.259   3.889  0.00  0.00    +0.280 C 
ATOM      5  C   LIG    1       -1.207   3.339   4.914  0.00  0.00    +0.050 C 
ATOM      6  C   LIG    1       -0.900   2.665   6.252  0.00  0.00    +0.100 C 
ATOM      7  C   LIG    1        0.102   1.557   6.067  0.00  0.00    -0.100 A 
ATOM      8  C   LIG    1        0.827   1.118   7.166  0.00  0.00    +0.080 A 
ATOM      9  C   LIG    1        1.754   0.099   7.029  0.00  0.00    +0.080 A 
ATOM     10  C   LIG    1        1.963  -0.489   5.793  0.00  0.00    +0.020 A 
ATOM     11  C   LIG    1        1.244  -0.055   4.694  0.00  0.00    +0.100 A 
ATOM     12  F   LIG    1        1.446  -0.628   3.487  0.00  0.00    -0.080 F 
ATOM     13  F   LIG    1        2.456  -0.323   8.104  0.00  0.00    -0.120 F 
ATOM     14  F   LIG    1        0.626   1.688   8.374  0.00  0.00    -0.120 F 
ATOM     15  C   LIG    1        0.310   0.966   4.831  0.00  0.00    +0.150 A 
ENDROOT
BRANCH   2  16
ATOM     16  C   LIG    1       -0.973   1.157   1.306  0.00  0.00    +0.040 C 
ATOM     17  C   LIG    1       -1.127  -0.201   0.644  0.00  0.00    +0.110 C 
ATOM     18  C   LIG    1       -2.143  -0.091  -0.502  0.00  0.00    -0.300 C 
ATOM     19  S   LIG    1       -1.342   0.853  -1.833  0.00  0.00    +2.490 S 
ATOM     20  C   LIG    1       -0.580   2.202  -0.985  0.00  0.00    -0.620 A 
ATOM     21  C   LIG    1       -0.091   3.254  -1.747  0.00  0.00    +0.120 A 
ATOM     22  C   LIG    1        0.522   4.333  -1.145  0.00  0.00    +0.010 A 
ATOM     23  C   LIG    1        0.652   4.360   0.231  0.00  0.00    +0.070 A 
ATOM     24  C   LIG    1        0.165   3.316   0.987  0.00  0.00    -0.020 A 
ATOM     25  O   LIG    1       -2.314   1.466  -2.669  0.00  0.00    -0.930 OA
ATOM     26  O   LIG    1       -0.255   0.121  -2.382  0.00  0.00    -0.920 OA
ATOM     27  C   LIG    1       -0.463   2.226   0.385  0.00  0.00    +0.010 A 
ENDBRANCH   2  16
TORSDOF 1
