REMARK  Name = ZINCqH0000003Pyh.0
REMARK                            x       y       z     vdW  Elec       q    Type
REMARK                         _______ _______ _______ _____ _____    ______ ____
ROOT
ATOM      1  C   LIG    1       -3.515  -1.171  -0.959  0.00  0.00    +0.140 C 
ENDROOT
BRANCH   1   4
ATOM      2  C   LIG    1       -3.308  -3.545  -3.299  0.00  0.00    +0.180 A 
ATOM      3  C   LIG    1       -3.966  -2.309  -3.314  0.00  0.00    -0.120 A 
ATOM      4  C   LIG    1       -4.112  -1.223  -2.342  0.00  0.00    -0.130 A 
ATOM      5  C   LIG    1       -4.874  -0.280  -2.918  0.00  0.00    +0.220 A 
ATOM      6  N   LIG    1       -5.232  -0.677  -4.179  0.00  0.00    -0.590 N 
ATOM      7  H   LIG    1       -5.782  -0.162  -4.790  0.00  0.00    +0.420 HD
ATOM      8  C   LIG    1       -4.694  -1.915  -4.450  0.00  0.00    +0.130 A 
ATOM      9  C   LIG    1       -4.745  -2.758  -5.556  0.00  0.00    -0.050 A 
ATOM     10  C   LIG    1       -4.089  -3.969  -5.531  0.00  0.00    +0.070 A 
ATOM     11  C   LIG    1       -3.373  -4.364  -4.410  0.00  0.00    -0.120 A 
BRANCH   2  12
ATOM     12  O   LIG    1       -2.607  -3.934  -2.202  0.00  0.00    -0.310 OA
BRANCH  12  14
ATOM     13  C   LIG    1       -1.225  -5.468  -0.948  0.00  0.00    +0.060 C 
ATOM     14  C   LIG    1       -1.959  -5.205  -2.264  0.00  0.00    +0.170 C 
ENDBRANCH  12  14
ENDBRANCH   2  12
ENDBRANCH   1   4
BRANCH   1  15
ATOM     15  C   LIG    1       -2.104  -0.647  -1.041  0.00  0.00    +0.520 C 
ATOM     16  N   LIG    1       -1.369  -0.513   0.081  0.00  0.00    -0.730 N 
ATOM     17  H   LIG    1       -1.748  -0.755   0.941  0.00  0.00    +0.400 HD
ATOM     18  O   LIG    1       -1.631  -0.345  -2.115  0.00  0.00    -0.530 OA
BRANCH  16  19
ATOM     19  C   LIG    1        0.002  -0.004   0.002  0.00  0.00    +0.240 C 
ATOM     20  C   LIG    1       -0.019   1.528   0.010  0.00  0.00    -0.020 C 
ATOM     21  C   LIG    1        1.420   2.052  -0.001  0.00  0.00    +0.220 C 
ATOM     22  O   LIG    1        2.122   1.535   1.133  0.00  0.00    -0.370 OA
ATOM     23  C   LIG    1        2.203   0.113   1.169  0.00  0.00    +0.120 C 
ATOM     24  C   LIG    1        2.957  -0.399  -0.072  0.00  0.00    +0.000 C 
ATOM     25  C   LIG    1        4.416  -0.577   0.418  0.00  0.00    +0.020 C 
ATOM     26  C   LIG    1        4.230  -1.113   1.860  0.00  0.00    +0.020 C 
ATOM     27  C   LIG    1        3.008  -0.338   2.397  0.00  0.00    +0.040 C 
ATOM     28  C   LIG    1        0.803  -0.499   1.211  0.00  0.00    +0.010 C 
ENDBRANCH  16  19
ENDBRANCH   1  15
TORSDOF 5
