REMARK  Name = ZINCrD00000l6IEG.0
REMARK                            x       y       z     vdW  Elec       q    Type
REMARK                         _______ _______ _______ _____ _____    ______ ____
ROOT
ATOM      1  C   LIG    1       -0.486  10.643   0.589  0.00  0.00    +0.370 C 
ATOM      2  N   LIG    1        0.387   9.476   0.445  0.00  0.00    -0.360 N 
ATOM      3  C   LIG    1       -0.031   8.204   0.364  0.00  0.00    +0.300 A 
ATOM      4  C   LIG    1        1.083   7.399   0.237  0.00  0.00    -0.280 A 
ATOM      5  C   LIG    1        2.244   8.294   0.252  0.00  0.00    +0.170 A 
ATOM      6  N   LIG    1        1.782   9.518   0.371  0.00  0.00    -0.270 NA
ENDROOT
BRANCH   5   7
ATOM      7  C   LIG    1        3.667   7.894   0.148  0.00  0.00    -0.070 A 
ATOM      8  C   LIG    1        4.173   6.889   0.970  0.00  0.00    +0.150 A 
ATOM      9  C   LIG    1        5.498   6.519   0.869  0.00  0.00    -0.020 A 
ATOM     10  C   LIG    1        6.328   7.145  -0.047  0.00  0.00    +0.150 A 
ATOM     11  C   LIG    1        5.832   8.146  -0.867  0.00  0.00    -0.050 A 
ATOM     12  F   LIG    1        7.625   6.779  -0.141  0.00  0.00    -0.130 F 
ATOM     13  C   LIG    1        4.505   8.520  -0.778  0.00  0.00    +0.160 A 
ATOM     14  F   LIG    1        4.020   9.491  -1.581  0.00  0.00    -0.120 F 
ENDBRANCH   5   7
BRANCH   4  15
ATOM     15  C   LIG    1        1.101   5.931   0.116  0.00  0.00    +0.600 C 
ATOM     16  N   LIG    1       -0.057   5.248   0.026  0.00  0.00    -0.660 N 
ATOM     17  H   LIG    1       -0.899   5.726  -0.025  0.00  0.00    +0.410 HD
ATOM     18  O   LIG    1        2.162   5.336   0.098  0.00  0.00    -0.510 OA
BRANCH  16  19
ATOM     19  C   LIG    1       -0.043   3.847   0.004  0.00  0.00    +0.160 A 
ATOM     20  C   LIG    1        0.996   3.172  -0.620  0.00  0.00    +0.030 A 
ATOM     21  C   LIG    1        1.009   1.790  -0.642  0.00  0.00    +0.050 A 
ATOM     22  C   LIG    1       -0.013   1.077  -0.044  0.00  0.00    +0.010 A 
ATOM     23  C   LIG    1       -1.060   1.744   0.577  0.00  0.00    +0.070 A 
ATOM     24  O   LIG    1       -2.063   1.024   1.151  0.00  0.00    -0.300 OA
ATOM     25  C   LIG    1       -2.896   1.714   2.088  0.00  0.00    +0.220 C 
ATOM     26  C   LIG    1       -3.288   3.067   1.477  0.00  0.00    +0.220 C 
ATOM     27  O   LIG    1       -2.084   3.805   1.225  0.00  0.00    -0.310 OA
ATOM     28  C   LIG    1       -1.073   3.131   0.609  0.00  0.00    +0.020 A 
ENDBRANCH  16  19
ENDBRANCH   4  15
TORSDOF 3
