REMARK  Name = ZINCue00000006ci.1
REMARK                            x       y       z     vdW  Elec       q    Type
REMARK                         _______ _______ _______ _____ _____    ______ ____
ROOT
ATOM      1  O   LIG    1        8.331   1.801  -0.173  0.00  0.00    -0.540 OA
ATOM      2  C   LIG    1        7.739   0.745  -0.065  0.00  0.00    +0.570 C 
ATOM      3  N   LIG    1        8.429  -0.409   0.024  0.00  0.00    -0.610 N 
ATOM      4  C   LIG    1        7.735  -1.706   0.031  0.00  0.00    +0.290 C 
ATOM      5  C   LIG    1        8.383  -2.605  -1.033  0.00  0.00    +0.160 C 
ATOM      6  N   LIG    1        9.830  -2.675  -0.793  0.00  0.00    -0.520 NA
ATOM      7  C   LIG    1       10.459  -1.356  -0.939  0.00  0.00    +0.170 C 
ATOM      8  C   LIG    1        9.897  -0.405   0.124  0.00  0.00    +0.300 C 
ENDROOT
BRANCH   2   9
ATOM      9  C   LIG    1        6.261   0.727  -0.032  0.00  0.00    -0.160 A 
ATOM     10  C   LIG    1        5.534   1.664  -0.768  0.00  0.00    +0.070 A 
ATOM     11  C   LIG    1        4.158   1.647  -0.737  0.00  0.00    +0.030 A 
ATOM     12  C   LIG    1        3.489   0.693   0.032  0.00  0.00    +0.080 A 
ATOM     13  C   LIG    1        4.215  -0.241   0.772  0.00  0.00    +0.030 A 
ATOM     14  C   LIG    1        5.592  -0.229   0.737  0.00  0.00    +0.040 A 
BRANCH  12  15
ATOM     15  C   LIG    1        2.009   0.675   0.066  0.00  0.00    +0.070 A 
ATOM     16  N   LIG    1        1.186   1.503  -0.580  0.00  0.00    -0.360 NA
ATOM     17  N   LIG    1       -0.020   1.155  -0.287  0.00  0.00    -0.190 NA
ATOM     18  N   LIG    1        0.010   0.148   0.513  0.00  0.00    -0.190 NA
ATOM     19  N   LIG    1        1.237  -0.170   0.750  0.00  0.00    -0.360 NA
ENDBRANCH  12  15
ENDBRANCH   2   9
BRANCH   6  20
ATOM     20  C   LIG    1       10.464  -3.661  -1.678  0.00  0.00    +0.280 C 
BRANCH  20  21
ATOM     21  C   LIG    1        9.647  -4.927  -1.687  0.00  0.00    +0.220 A 
ATOM     22  C   LIG    1        9.020  -5.346  -2.841  0.00  0.00    -0.140 A 
ATOM     23  C   LIG    1        8.269  -6.523  -2.823  0.00  0.00    +0.530 A 
ATOM     24  N   LIG    1        8.164  -7.242  -1.667  0.00  0.00    -0.470 N 
ATOM     25  C   LIG    1        7.470  -8.411  -1.482  0.00  0.00    +0.240 A 
ATOM     26  C   LIG    1        7.475  -8.977  -0.288  0.00  0.00    +0.010 A 
ATOM     27  S   LIG    1        8.469  -7.923   0.732  0.00  0.00    +0.180 S 
ATOM     28  C   LIG    1        8.811  -6.766  -0.567  0.00  0.00    +0.310 A 
ATOM     29  O   LIG    1        7.707  -6.907  -3.837  0.00  0.00    -0.520 OA
ATOM     30  N   LIG    1        9.525  -5.657  -0.584  0.00  0.00    -0.480 NA
ENDBRANCH  20  21
ENDBRANCH   6  20
TORSDOF 4
