REMARK  Name = ZINCue00000006ci.0
REMARK                            x       y       z     vdW  Elec       q    Type
REMARK                         _______ _______ _______ _____ _____    ______ ____
ROOT
ATOM      1  O   LIG    1        8.330   1.801  -0.176  0.00  0.00    -0.540 OA
ATOM      2  C   LIG    1        7.737   0.745  -0.068  0.00  0.00    +0.570 C 
ATOM      3  N   LIG    1        8.428  -0.409   0.021  0.00  0.00    -0.610 N 
ATOM      4  C   LIG    1        7.734  -1.706   0.028  0.00  0.00    +0.290 C 
ATOM      5  C   LIG    1        8.381  -2.605  -1.038  0.00  0.00    +0.160 C 
ATOM      6  N   LIG    1        9.829  -2.675  -0.798  0.00  0.00    -0.520 NA
ATOM      7  C   LIG    1       10.457  -1.355  -0.944  0.00  0.00    +0.170 C 
ATOM      8  C   LIG    1        9.896  -0.405   0.119  0.00  0.00    +0.300 C 
ENDROOT
BRANCH   2   9
ATOM      9  C   LIG    1        6.261   0.727  -0.034  0.00  0.00    -0.160 A 
ATOM     10  C   LIG    1        5.533   1.665  -0.770  0.00  0.00    +0.070 A 
ATOM     11  C   LIG    1        4.157   1.647  -0.737  0.00  0.00    +0.030 A 
ATOM     12  C   LIG    1        3.489   0.693   0.031  0.00  0.00    +0.080 A 
ATOM     13  C   LIG    1        4.215  -0.241   0.770  0.00  0.00    +0.030 A 
ATOM     14  C   LIG    1        5.591  -0.229   0.734  0.00  0.00    +0.040 A 
BRANCH  12  15
ATOM     15  C   LIG    1        2.006   0.676   0.066  0.00  0.00    +0.070 A 
ATOM     16  N   LIG    1        1.187   1.500  -0.579  0.00  0.00    -0.360 NA
ATOM     17  N   LIG    1       -0.021   1.155  -0.287  0.00  0.00    -0.190 NA
ATOM     18  N   LIG    1        0.010   0.147   0.513  0.00  0.00    -0.190 NA
ATOM     19  N   LIG    1        1.238  -0.168   0.748  0.00  0.00    -0.370 NA
ENDBRANCH  12  15
ENDBRANCH   2   9
BRANCH   6  20
ATOM     20  C   LIG    1       10.462  -3.661  -1.684  0.00  0.00    +0.280 C 
BRANCH  20  21
ATOM     21  C   LIG    1        9.645  -4.927  -1.692  0.00  0.00    +0.220 A 
ATOM     22  C   LIG    1        9.017  -5.345  -2.847  0.00  0.00    -0.140 A 
ATOM     23  C   LIG    1        8.266  -6.521  -2.828  0.00  0.00    +0.530 A 
ATOM     24  N   LIG    1        8.162  -7.241  -1.673  0.00  0.00    -0.470 N 
ATOM     25  C   LIG    1        7.468  -8.411  -1.488  0.00  0.00    +0.240 A 
ATOM     26  C   LIG    1        7.474  -8.977  -0.294  0.00  0.00    +0.010 A 
ATOM     27  S   LIG    1        8.468  -7.923   0.725  0.00  0.00    +0.180 S 
ATOM     28  C   LIG    1        8.809  -6.766  -0.573  0.00  0.00    +0.310 A 
ATOM     29  O   LIG    1        7.704  -6.905  -3.842  0.00  0.00    -0.520 OA
ATOM     30  N   LIG    1        9.524  -5.657  -0.590  0.00  0.00    -0.480 NA
ENDBRANCH  20  21
ENDBRANCH   6  20
TORSDOF 4
