REMARK  Name = ZINCrD000000fD7q.0
REMARK                            x       y       z     vdW  Elec       q    Type
REMARK                         _______ _______ _______ _____ _____    ______ ____
ROOT
ATOM      1  S   LIG    1       -1.328  -3.645   5.123  0.00  0.00    +2.680 S 
ATOM      2  O   LIG    1        0.040  -3.964   5.334  0.00  0.00    -0.930 OA
ATOM      3  O   LIG    1       -2.353  -4.626   5.051  0.00  0.00    -0.940 OA
ENDROOT
BRANCH   1  10
ATOM      4  C   LIG    1       -3.700  -0.906  -0.642  0.00  0.00    +0.120 C 
ATOM      5  C   LIG    1       -2.330  -0.306  -0.833  0.00  0.00    +0.530 C 
ATOM      6  N   LIG    1       -1.363  -0.531   0.078  0.00  0.00    -0.550 N 
ATOM      7  C   LIG    1       -1.513  -1.302   1.238  0.00  0.00    +0.210 A 
ATOM      8  C   LIG    1       -2.636  -1.985   1.707  0.00  0.00    -0.030 A 
ATOM      9  C   LIG    1       -2.576  -2.696   2.887  0.00  0.00    +0.170 A 
ATOM     10  C   LIG    1       -1.401  -2.736   3.615  0.00  0.00    -0.730 A 
ATOM     11  C   LIG    1       -0.284  -2.062   3.157  0.00  0.00    +0.190 A 
ATOM     12  C   LIG    1       -0.340  -1.349   1.976  0.00  0.00    -0.150 A 
ATOM     13  C   LIG    1        0.713  -0.535   1.258  0.00  0.00    +0.110 C 
ATOM     14  C   LIG    1        0.002  -0.004   0.002  0.00  0.00    +0.230 C 
ATOM     15  C   LIG    1       -0.019   1.526   0.010  0.00  0.00    +0.060 C 
ATOM     16  O   LIG    1       -2.099   0.379  -1.806  0.00  0.00    -0.510 OA
ENDBRANCH   1  10
BRANCH   1  17
ATOM     17  O   LIG    1       -1.724  -2.692   6.242  0.00  0.00    -0.650 OA
BRANCH  17  18
ATOM     18  C   LIG    1       -3.056  -2.428   6.298  0.00  0.00    +0.090 A 
ATOM     19  C   LIG    1       -3.576  -1.374   5.604  0.00  0.00    +0.060 A 
ATOM     20  C   LIG    1       -4.939  -1.090   5.646  0.00  0.00    +0.040 A 
ATOM     21  C   LIG    1       -5.790  -1.851   6.388  0.00  0.00    +0.070 A 
ATOM     22  C   LIG    1       -5.291  -2.941   7.120  0.00  0.00    -0.100 A 
ATOM     23  C   LIG    1       -6.140  -3.750   7.899  0.00  0.00    +0.100 A 
ATOM     24  C   LIG    1       -5.585  -4.793   8.585  0.00  0.00    -0.020 A 
ATOM     25  C   LIG    1       -4.215  -5.029   8.501  0.00  0.00    +0.320 A 
ATOM     26  N   LIG    1       -3.428  -4.273   7.774  0.00  0.00    -0.470 NA
ATOM     27  C   LIG    1       -3.907  -3.238   7.079  0.00  0.00    +0.140 A 
ENDBRANCH  17  18
ENDBRANCH   1  17
TORSDOF 3
