REMARK  Name = ZINCqH0000000ukh.0
REMARK                            x       y       z     vdW  Elec       q    Type
REMARK                         _______ _______ _______ _____ _____    ______ ____
ROOT
ATOM      1  N   LIG    1        3.487   1.652   0.530  0.00  0.00    -0.740 N 
ATOM      2  H   LIG    1        3.397   2.565   0.846  0.00  0.00    +0.400 HD
ATOM      3  C   LIG    1        4.544   0.908   0.912  0.00  0.00    +0.710 C 
ATOM      4  N   LIG    1        5.476   1.432   1.732  0.00  0.00    -0.740 N 
ATOM      5  H   LIG    1        5.386   2.345   2.048  0.00  0.00    +0.400 HD
ATOM      6  O   LIG    1        4.656  -0.236   0.516  0.00  0.00    -0.590 OA
ENDROOT
BRANCH   1   7
ATOM      7  C   LIG    1        2.474   1.083  -0.362  0.00  0.00    +0.300 C 
ATOM      8  C   LIG    1        2.925   1.244  -1.815  0.00  0.00    +0.040 C 
BRANCH   7  13
ATOM      9  C   LIG    1       -1.226   1.757   0.023  0.00  0.00    +0.150 A 
ATOM     10  C   LIG    1       -1.235   3.132   0.212  0.00  0.00    +0.010 A 
ATOM     11  C   LIG    1       -0.047   3.837   0.209  0.00  0.00    +0.040 A 
ATOM     12  C   LIG    1        1.151   3.173   0.023  0.00  0.00    -0.010 A 
ATOM     13  C   LIG    1        1.165   1.802  -0.160  0.00  0.00    -0.070 A 
ATOM     14  C   LIG    1       -0.019   1.092  -0.158  0.00  0.00    +0.000 A 
BRANCH   9  17
ATOM     15  C   LIG    1       -4.867   0.886  -0.361  0.00  0.00    +0.110 C 
ATOM     16  C   LIG    1       -3.549   1.609  -0.466  0.00  0.00    +0.510 C 
ATOM     17  N   LIG    1       -2.428   1.041   0.019  0.00  0.00    -0.680 N 
ATOM     18  H   LIG    1       -2.454   0.135   0.366  0.00  0.00    +0.410 HD
ATOM     19  O   LIG    1       -3.498   2.704  -0.986  0.00  0.00    -0.520 OA
ENDBRANCH   9  17
ENDBRANCH   7  13
ENDBRANCH   1   7
BRANCH   4  20
ATOM     20  C   LIG    1        6.624   0.623   2.147  0.00  0.00    +0.310 C 
BRANCH  20  21
ATOM     21  C   LIG    1        7.523   1.449   3.070  0.00  0.00    +0.190 C 
BRANCH  21  22
ATOM     22  O   LIG    1        6.818   1.751   4.276  0.00  0.00    -0.310 OA
BRANCH  22  23
ATOM     23  C   LIG    1        7.480   2.484   5.210  0.00  0.00    +0.130 A 
ATOM     24  C   LIG    1        8.782   2.899   4.973  0.00  0.00    -0.060 A 
ATOM     25  C   LIG    1        9.451   3.648   5.921  0.00  0.00    +0.070 A 
ATOM     26  C   LIG    1        8.826   3.976   7.112  0.00  0.00    -0.070 A 
ATOM     27  C   LIG    1        7.529   3.559   7.352  0.00  0.00    +0.070 A 
ATOM     28 CL   LIG    1        9.671   4.912   8.305  0.00  0.00    -0.070 Cl
ATOM     29  C   LIG    1        6.855   2.814   6.404  0.00  0.00    +0.000 A 
ENDBRANCH  22  23
ENDBRANCH  21  22
ENDBRANCH  20  21
ENDBRANCH   4  20
TORSDOF 7
