REMARK  Name = ZINCkj000005lkGf.0
REMARK                            x       y       z     vdW  Elec       q    Type
REMARK                         _______ _______ _______ _____ _____    ______ ____
ROOT
ATOM      1  C   LIG    1       -5.609   2.145   1.489  0.00  0.00    -0.010 C 
ATOM      2  C   LIG    1       -5.543   3.672   1.414  0.00  0.00    +0.060 C 
ATOM      3  C   LIG    1       -4.081   4.121   1.385  0.00  0.00    +0.030 C 
ATOM      4  C   LIG    1       -3.398   3.546   0.146  0.00  0.00    +0.260 C 
ATOM      5  N   LIG    1       -3.582   2.088   0.131  0.00  0.00    -0.610 N 
ATOM      6  C   LIG    1       -2.523   1.263   0.020  0.00  0.00    +0.600 C 
ATOM      7  O   LIG    1       -2.693   0.060  -0.054  0.00  0.00    -0.520 OA
ATOM      8  C   LIG    1       -4.944   1.548   0.245  0.00  0.00    +0.310 C 
ENDROOT
BRANCH   6   9
ATOM      9  C   LIG    1       -1.166   1.814  -0.012  0.00  0.00    -0.270 A 
ATOM     10  C   LIG    1       -0.098   1.332   0.693  0.00  0.00    +0.110 A 
ATOM     11  C   LIG    1        1.061   2.035   0.472  0.00  0.00    +0.030 A 
ATOM     12  C   LIG    1        0.948   3.063  -0.380  0.00  0.00    -0.170 A 
ATOM     13 CL   LIG    1        2.254   4.113  -0.835  0.00  0.00    +0.000 Cl
ATOM     14  S   LIG    1       -0.650   3.202  -0.960  0.00  0.00    +0.270 S 
ENDBRANCH   6   9
BRANCH   1  17
ATOM     15  N   LIG    1       -7.351   0.394   1.618  0.00  0.00    -0.740 N 
ATOM     16  H   LIG    1       -6.641  -0.267   1.628  0.00  0.00    +0.410 HD
ATOM     17  C   LIG    1       -7.049   1.706   1.550  0.00  0.00    +0.530 C 
ATOM     18  O   LIG    1       -7.936   2.532   1.537  0.00  0.00    -0.510 OA
BRANCH  15  19
ATOM     19  C   LIG    1       -8.751  -0.033   1.677  0.00  0.00    +0.270 C 
BRANCH  19  20
ATOM     20  C   LIG    1       -8.816  -1.560   1.749  0.00  0.00    +0.260 C 
BRANCH  20  21
ATOM     21  N   LIG    1      -10.220  -1.989   1.808  0.00  0.00    -0.630 N 
ATOM     22  H   LIG    1      -10.657  -1.595   2.627  0.00  0.00    +0.440 HD
ATOM     23  H   LIG    1      -10.262  -2.996   1.855  0.00  0.00    +0.440 HD
ATOM     24  H   LIG    1      -10.704  -1.670   0.982  0.00  0.00    +0.440 HD
ENDBRANCH  20  21
ENDBRANCH  19  20
ENDBRANCH  15  19
ENDBRANCH   1  17
TORSDOF 5
