REMARK  Name = ZINCpk00000y6w6Q.0
REMARK                            x       y       z     vdW  Elec       q    Type
REMARK                         _______ _______ _______ _____ _____    ______ ____
ROOT
ATOM      1  C   LIG    1       -0.018   1.461   0.010  0.00  0.00    +0.270 C 
ATOM      2  C   LIG    1        1.418   1.992  -0.001  0.00  0.00    +0.020 C 
ATOM      3  C   LIG    1        1.388   3.522  -0.053  0.00  0.00    +0.050 C 
ATOM      4  C   LIG    1        0.612   3.970  -1.293  0.00  0.00    +0.190 C 
ATOM      5  N   LIG    1       -0.755   3.437  -1.235  0.00  0.00    -0.510 N 
ATOM      6  C   LIG    1       -0.754   1.969  -1.232  0.00  0.00    +0.190 C 
ENDROOT
BRANCH   1  10
ATOM      7  N   LIG    1       -0.379  -2.082   0.717  0.00  0.00    -0.620 N 
ATOM      8  C   LIG    1        0.345  -2.191  -0.562  0.00  0.00    +0.300 C 
ATOM      9  C   LIG    1        0.561  -0.748  -0.973  0.00  0.00    +0.520 C 
ATOM     10  N   LIG    1        0.002  -0.004   0.002  0.00  0.00    -0.570 N 
ATOM     11  O   LIG    1        1.120  -0.347  -1.971  0.00  0.00    -0.470 OA
ATOM     12  C   LIG    1       -0.527  -0.768   0.964  0.00  0.00    +0.700 C 
ATOM     13  O   LIG    1       -1.083  -0.325   1.950  0.00  0.00    -0.520 OA
BRANCH   7  14
ATOM     14  C   LIG    1       -0.841  -3.189   1.558  0.00  0.00    +0.360 C 
BRANCH  14  15
ATOM     15  C   LIG    1        0.254  -3.559   2.561  0.00  0.00    +0.160 C 
BRANCH  15  17
ATOM     16  C   LIG    1        1.478  -2.711   4.439  0.00  0.00    +0.200 C 
ATOM     17  O   LIG    1        0.469  -2.467   3.457  0.00  0.00    -0.380 OA
ENDBRANCH  15  17
ENDBRANCH  14  15
ENDBRANCH   7  14
ENDBRANCH   1  10
BRANCH   5  18
ATOM     18  C   LIG    1       -1.528   3.932  -2.280  0.00  0.00    +0.140 A 
ATOM     19  C   LIG    1       -1.200   3.628  -3.595  0.00  0.00    -0.020 A 
ATOM     20  C   LIG    1       -1.972   4.116  -4.630  0.00  0.00    +0.050 A 
ATOM     21  C   LIG    1       -3.070   4.920  -4.369  0.00  0.00    +0.020 A 
ATOM     22  C   LIG    1       -3.407   5.237  -3.070  0.00  0.00    +0.070 A 
ATOM     23  C   LIG    1       -2.639   4.746  -2.011  0.00  0.00    -0.000 A 
BRANCH  23  24
ATOM     24  C   LIG    1       -2.985   5.071  -0.660  0.00  0.00    +0.260 C 
ATOM     25  N   LIG    1       -3.259   5.329   0.412  0.00  0.00    -0.410 NA
ENDBRANCH  23  24
ENDBRANCH   5  18
TORSDOF 6
