REMARK  Name = ZINCnE000000q3XQ.1
REMARK                            x       y       z     vdW  Elec       q    Type
REMARK                         _______ _______ _______ _____ _____    ______ ____
ROOT
ATOM      1  N   LIG    1        0.561  -0.355  -0.862  0.00  0.00    -0.480 N 
ATOM      2  C   LIG    1        1.300  -1.036   0.038  0.00  0.00    +0.400 A 
ATOM      3  N   LIG    1        2.335  -1.594  -0.622  0.00  0.00    -0.380 NA
ATOM      4  N   LIG    1        2.217  -1.236  -1.972  0.00  0.00    -0.310 NA
ATOM      5  S   LIG    1        0.981  -1.167   1.714  0.00  0.00    -0.770 S 
ATOM      6  C   LIG    1        1.149  -0.501  -2.103  0.00  0.00    +0.200 A 
ENDROOT
BRANCH   6   7
ATOM      7  C   LIG    1        0.651   0.084  -3.368  0.00  0.00    +0.010 A 
ATOM      8  C   LIG    1        1.063  -0.443  -4.593  0.00  0.00    +0.050 A 
ATOM      9  C   LIG    1        0.591   0.102  -5.769  0.00  0.00    +0.000 A 
ATOM     10  C   LIG    1       -0.279   1.177  -5.736  0.00  0.00    -0.090 A 
ATOM     11  C   LIG    1       -0.686   1.708  -4.525  0.00  0.00    +0.010 A 
ATOM     12  C   LIG    1       -0.786   1.772  -7.024  0.00  0.00    +0.080 C 
ATOM     13  C   LIG    1       -0.226   1.168  -3.341  0.00  0.00    +0.000 A 
ENDBRANCH   6   7
BRANCH   1  14
ATOM     14  C   LIG    1       -0.658   0.403  -0.573  0.00  0.00    +0.330 C 
BRANCH  14  17
ATOM     15  N   LIG    1       -1.262   2.732   0.003  0.00  0.00    -0.730 N 
ATOM     16  H   LIG    1       -2.195   2.466  -0.028  0.00  0.00    +0.400 HD
ATOM     17  C   LIG    1       -0.293   1.815  -0.194  0.00  0.00    +0.510 C 
ATOM     18  O   LIG    1        0.872   2.129  -0.070  0.00  0.00    -0.500 OA
BRANCH  15  19
ATOM     19  C   LIG    1       -0.906   4.129   0.264  0.00  0.00    +0.240 C 
BRANCH  19  20
ATOM     20  C   LIG    1       -0.869   4.901  -1.056  0.00  0.00    -0.040 C 
ATOM     21  C   LIG    1       -2.195   4.713  -1.795  0.00  0.00    +0.010 C 
ATOM     22  C   LIG    1        0.277   4.374  -1.923  0.00  0.00    +0.020 C 
ENDBRANCH  19  20
BRANCH  19  24
ATOM     23  C   LIG    1       -1.901   4.064   2.556  0.00  0.00    +0.020 C 
ATOM     24  C   LIG    1       -1.949   4.756   1.192  0.00  0.00    +0.010 C 
ENDBRANCH  19  24
ENDBRANCH  15  19
ENDBRANCH  14  17
ENDBRANCH   1  14
TORSDOF 6
