REMARK  Name = ZINCvU00000004Ur.0
REMARK                            x       y       z     vdW  Elec       q    Type
REMARK                         _______ _______ _______ _____ _____    ______ ____
ROOT
ATOM      1  C   LIG    1        3.640   2.155  -0.011  0.00  0.00    -0.060 A 
ATOM      2  C   LIG    1        4.217   1.417   1.014  0.00  0.00    +0.020 A 
ATOM      3  C   LIG    1        4.151   0.017   0.976  0.00  0.00    +0.200 A 
ATOM      4  N   LIG    1        3.558  -0.633  -0.003  0.00  0.00    -0.450 NA
ATOM      5  C   LIG    1        2.979  -0.007  -1.027  0.00  0.00    +0.130 A 
ATOM      6  C   LIG    1        2.352  -0.729  -2.060  0.00  0.00    +0.050 A 
ATOM      7  C   LIG    1        1.769  -0.061  -3.092  0.00  0.00    +0.040 A 
ATOM      8  C   LIG    1        1.780   1.331  -3.147  0.00  0.00    +0.030 A 
ATOM      9  C   LIG    1        2.378   2.064  -2.164  0.00  0.00    +0.050 A 
ATOM     10  C   LIG    1        2.987   1.410  -1.088  0.00  0.00    -0.070 A 
ENDROOT
BRANCH   3  11
ATOM     11  C   LIG    1        4.771  -0.759   2.078  0.00  0.00    -0.010 A 
ATOM     12  C   LIG    1        5.417  -0.113   3.136  0.00  0.00    -0.020 A 
ATOM     13  C   LIG    1        5.975  -0.872   4.144  0.00  0.00    +0.260 A 
ATOM     14  N   LIG    1        5.915  -2.189   4.111  0.00  0.00    -0.480 NA
ATOM     15  C   LIG    1        5.320  -2.838   3.129  0.00  0.00    +0.260 A 
ATOM     16  C   LIG    1        4.731  -2.156   2.084  0.00  0.00    +0.020 A 
ENDBRANCH   3  11
BRANCH   1  18
ATOM     17  N   LIG    1        4.867   4.272   0.080  0.00  0.00    -0.600 N 
ATOM     18  C   LIG    1        3.684   3.633  -0.015  0.00  0.00    +0.570 C 
ATOM     19  O   LIG    1        2.653   4.271  -0.103  0.00  0.00    -0.510 OA
BRANCH  17  21
ATOM     20  C   LIG    1        6.668   3.462  -1.362  0.00  0.00    +0.020 C 
ATOM     21  C   LIG    1        6.116   3.508   0.064  0.00  0.00    +0.270 C 
ENDBRANCH  17  21
BRANCH  17  22
ATOM     22  C   LIG    1        4.903   5.732   0.199  0.00  0.00    +0.350 C 
BRANCH  22  23
ATOM     23  C   LIG    1        4.863   6.119   1.655  0.00  0.00    -0.120 A 
ATOM     24  C   LIG    1        3.649   6.334   2.279  0.00  0.00    +0.080 A 
ATOM     25  C   LIG    1        3.609   6.683   3.615  0.00  0.00    -0.040 A 
ATOM     26  C   LIG    1        4.789   6.829   4.329  0.00  0.00    +0.100 A 
ATOM     27  C   LIG    1        6.009   6.618   3.699  0.00  0.00    +0.070 A 
ATOM     28  F   LIG    1        7.161   6.758   4.391  0.00  0.00    -0.130 F 
ATOM     29  C   LIG    1        6.043   6.263   2.363  0.00  0.00    +0.040 A 
BRANCH  26  30
ATOM     30  O   LIG    1        4.752   7.178   5.642  0.00  0.00    -0.310 OA
ATOM     31  C   LIG    1        3.462   7.379   6.224  0.00  0.00    +0.250 C 
ENDBRANCH  26  30
ENDBRANCH  22  23
ENDBRANCH  17  22
ENDBRANCH   1  18
TORSDOF 6
