REMARK  Name = ZINCpk000004FEry.0
REMARK                            x       y       z     vdW  Elec       q    Type
REMARK                         _______ _______ _______ _____ _____    ______ ____
ROOT
ATOM      1  C   LIG    1       -7.546   6.216  -1.590  0.00  0.00    +0.520 C 
ATOM      2  N   LIG    1       -6.695   5.231  -1.241  0.00  0.00    -0.610 N 
ATOM      3  C   LIG    1       -5.621   5.472  -0.266  0.00  0.00    +0.310 C 
ATOM      4  C   LIG    1       -4.298   4.990  -0.871  0.00  0.00    +0.190 C 
ATOM      5  N   LIG    1       -4.441   3.595  -1.306  0.00  0.00    -0.480 N 
ATOM      6  C   LIG    1       -5.445   3.469  -2.370  0.00  0.00    +0.200 C 
ATOM      7  C   LIG    1       -6.816   3.887  -1.827  0.00  0.00    +0.290 C 
ATOM      8  O   LIG    1       -7.491   7.291  -1.031  0.00  0.00    -0.530 OA
ENDROOT
BRANCH   5   9
ATOM      9  C   LIG    1       -3.212   3.068  -1.712  0.00  0.00    +0.170 A 
ATOM     10  C   LIG    1       -3.131   1.757  -2.162  0.00  0.00    +0.010 A 
ATOM     11  C   LIG    1       -1.915   1.240  -2.563  0.00  0.00    +0.130 A 
ATOM     12  C   LIG    1       -0.779   2.027  -2.519  0.00  0.00    -0.070 A 
ATOM     13  C   LIG    1       -0.855   3.331  -2.066  0.00  0.00    +0.140 A 
ATOM     14  C   LIG    1       -2.069   3.856  -1.668  0.00  0.00    -0.020 A 
BRANCH  12  15
ATOM     15  N   LIG    1        0.522   1.470  -2.950  0.00  0.00    +0.030 N 
ATOM     16  O   LIG    1        1.523   2.163  -2.916  0.00  0.00    -0.160 OA
ATOM     17  O   LIG    1        0.592   0.319  -3.344  0.00  0.00    -0.160 OA
ENDBRANCH  12  15
ENDBRANCH   5   9
BRANCH   1  18
ATOM     18  C   LIG    1       -8.566   5.982  -2.674  0.00  0.00    +0.240 C 
BRANCH  18  21
ATOM     19  C   LIG    1      -12.227   7.094  -2.544  0.00  0.00    +0.110 C 
ATOM     20  C   LIG    1      -10.972   6.323  -2.861  0.00  0.00    +0.520 C 
ATOM     21  N   LIG    1       -9.787   6.732  -2.365  0.00  0.00    -0.720 N 
ATOM     22  H   LIG    1       -9.742   7.522  -1.805  0.00  0.00    +0.410 HD
ATOM     23  O   LIG    1      -11.028   5.335  -3.561  0.00  0.00    -0.540 OA
ENDBRANCH  18  21
BRANCH  18  24
ATOM     24  C   LIG    1       -8.003   6.455  -4.015  0.00  0.00    -0.010 C 
ATOM     25  C   LIG    1       -6.686   5.729  -4.299  0.00  0.00    +0.030 C 
ATOM     26  C   LIG    1       -7.752   7.963  -3.960  0.00  0.00    +0.030 C 
ENDBRANCH  18  24
ENDBRANCH   1  18
TORSDOF 5
