REMARK  Name = ZINCpk00000l4Wl2.0
REMARK                            x       y       z     vdW  Elec       q    Type
REMARK                         _______ _______ _______ _____ _____    ______ ____
ROOT
ATOM      1  C   LIG    1       -0.961  -2.232  -0.001  0.00  0.00    -0.110 A 
ATOM      2  C   LIG    1       -0.814  -2.916   1.191  0.00  0.00    +0.040 A 
ATOM      3  C   LIG    1       -0.543  -4.271   1.180  0.00  0.00    +0.040 A 
ATOM      4  C   LIG    1       -0.419  -4.944  -0.023  0.00  0.00    -0.100 A 
ATOM      5  C   LIG    1       -0.132  -6.393  -0.326  0.00  0.00    +0.340 C 
ATOM      6  N   LIG    1       -0.113  -6.549  -1.784  0.00  0.00    -0.600 N 
ATOM      7  C   LIG    1       -0.382  -5.226  -2.357  0.00  0.00    +0.330 C 
ATOM      8  C   LIG    1        0.109  -7.690  -2.466  0.00  0.00    +0.630 C 
ATOM      9  O   LIG    1        0.097  -7.683  -3.682  0.00  0.00    -0.530 OA
ATOM     10  C   LIG    1       -0.566  -4.260  -1.214  0.00  0.00    -0.110 A 
ATOM     11  C   LIG    1       -0.843  -2.904  -1.202  0.00  0.00    +0.060 A 
ENDROOT
BRANCH   8  12
ATOM     12  C   LIG    1        0.367  -8.946  -1.739  0.00  0.00    -0.080 A 
ATOM     13  C   LIG    1        0.600 -10.167  -2.292  0.00  0.00    +0.260 A 
ATOM     14  O   LIG    1        0.786 -11.027  -1.277  0.00  0.00    -0.200 OA
ATOM     15  C   LIG    1        0.661 -10.351  -0.127  0.00  0.00    +0.440 A 
ATOM     16  N   LIG    1        0.410  -9.103  -0.388  0.00  0.00    -0.470 NA
ENDBRANCH   8  12
BRANCH   1  17
ATOM     17  C   LIG    1       -1.256  -0.754   0.010  0.00  0.00    +0.320 C 
BRANCH  17  20
ATOM     18  O   LIG    1       -1.078   1.938   0.018  0.00  0.00    -0.520 OA
ATOM     19  C   LIG    1       -0.016   1.344   0.009  0.00  0.00    +0.600 C 
ATOM     20  N   LIG    1        0.002  -0.004   0.002  0.00  0.00    -0.730 N 
ATOM     21  H   LIG    1        0.849  -0.478  -0.009  0.00  0.00    +0.400 HD
BRANCH  19  22
ATOM     22  C   LIG    1        1.245   2.095   0.001  0.00  0.00    -0.100 A 
ATOM     23  C   LIG    1        1.389   3.454   0.001  0.00  0.00    +0.270 A 
ATOM     24  N   LIG    1        2.695   3.724  -0.004  0.00  0.00    -0.500 NA
ATOM     25  C   LIG    1        3.376   2.608  -0.016  0.00  0.00    +0.440 A 
ATOM     26  N   LIG    1        2.522   1.569  -0.014  0.00  0.00    -0.560 N 
ATOM     27  H   LIG    1        2.758   0.628  -0.021  0.00  0.00    +0.420 HD
ENDBRANCH  19  22
ENDBRANCH  17  20
ENDBRANCH   1  17
TORSDOF 4
