REMARK  Name = ZINCqH0000005c1b.0
REMARK                            x       y       z     vdW  Elec       q    Type
REMARK                         _______ _______ _______ _____ _____    ______ ____
ROOT
ATOM      1  C   LIG    1       -2.493  -0.070  -0.045  0.00  0.00    +0.300 C 
ATOM      2  N   LIG    1       -2.463   1.395  -0.077  0.00  0.00    -0.600 N 
ATOM      3  C   LIG    1       -1.381   2.057   0.378  0.00  0.00    +0.580 C 
ATOM      4  O   LIG    1       -1.392   3.271   0.440  0.00  0.00    -0.530 OA
ENDROOT
BRANCH   3   5
ATOM      5  C   LIG    1       -0.185   1.310   0.799  0.00  0.00    +0.020 A 
ATOM      6  C   LIG    1       -0.070  -0.043   0.824  0.00  0.00    +0.010 A 
ATOM      7  C   LIG    1        1.228  -0.357   1.294  0.00  0.00    -0.120 A 
ATOM      8  C   LIG    1        1.903  -1.563   1.523  0.00  0.00    +0.060 A 
ATOM      9  C   LIG    1        3.184  -1.545   1.992  0.00  0.00    -0.030 A 
ATOM     10  C   LIG    1        3.829  -0.341   2.243  0.00  0.00    +0.040 A 
ATOM     11  C   LIG    1        3.187   0.858   2.025  0.00  0.00    -0.010 A 
ATOM     12  C   LIG    1        1.880   0.866   1.548  0.00  0.00    +0.110 A 
ATOM     13  N   LIG    1        0.997   1.874   1.238  0.00  0.00    -0.450 N 
ATOM     14  C   LIG    1        1.266   3.309   1.356  0.00  0.00    +0.330 C 
ENDBRANCH   3   5
BRANCH   2  15
ATOM     15  C   LIG    1       -3.609   2.139  -0.603  0.00  0.00    +0.290 C 
BRANCH  15  16
ATOM     16  C   LIG    1       -3.429   2.358  -2.107  0.00  0.00    +0.020 C 
BRANCH  16  17
ATOM     17  C   LIG    1       -4.626   3.136  -2.656  0.00  0.00    +0.150 C 
BRANCH  17  18
ATOM     18  C   LIG    1       -4.448   3.351  -4.137  0.00  0.00    +0.290 A 
ATOM     19  N   LIG    1       -3.411   3.910  -4.690  0.00  0.00    -0.490 NA
ATOM     20  C   LIG    1       -3.575   3.946  -6.037  0.00  0.00    +0.050 A 
ATOM     21  C   LIG    1       -2.792   4.422  -7.091  0.00  0.00    +0.070 A 
ATOM     22  C   LIG    1       -3.241   4.311  -8.377  0.00  0.00    +0.000 A 
ATOM     23  C   LIG    1       -4.470   3.729  -8.650  0.00  0.00    +0.030 A 
ATOM     24  C   LIG    1       -5.260   3.251  -7.626  0.00  0.00    +0.010 A 
ATOM     25  C   LIG    1       -4.821   3.355  -6.313  0.00  0.00    +0.050 A 
ATOM     26  N   LIG    1       -5.346   2.984  -5.091  0.00  0.00    -0.600 N 
ATOM     27  H   LIG    1       -6.198   2.546  -4.941  0.00  0.00    +0.420 HD
ENDBRANCH  17  18
ENDBRANCH  16  17
ENDBRANCH  15  16
ENDBRANCH   2  15
TORSDOF 5
