REMARK  Name = ZINCvU00000003M8.0
REMARK                            x       y       z     vdW  Elec       q    Type
REMARK                         _______ _______ _______ _____ _____    ______ ____
ROOT
ATOM      1  C   LIG    1        6.487   1.067  -0.054  0.00  0.00    +0.530 C 
ATOM      2  N   LIG    1        7.479   0.155  -0.072  0.00  0.00    -0.650 N 
ATOM      3  H   LIG    1        7.271  -0.790  -0.006  0.00  0.00    +0.430 HD
ATOM      4  O   LIG    1        6.751   2.250  -0.036  0.00  0.00    -0.510 OA
ENDROOT
BRANCH   2   5
ATOM      5  C   LIG    1        8.804   0.570  -0.188  0.00  0.00    +0.210 A 
ATOM      6  C   LIG    1        9.105   1.784  -0.789  0.00  0.00    +0.010 A 
ATOM      7  C   LIG    1       10.419   2.193  -0.903  0.00  0.00    +0.060 A 
ATOM      8  C   LIG    1       11.445   1.398  -0.418  0.00  0.00    -0.020 A 
ATOM      9  C   LIG    1       11.165   0.189   0.182  0.00  0.00    +0.070 A 
ATOM     10  C   LIG    1        9.841  -0.235   0.309  0.00  0.00    -0.180 A 
BRANCH  10  11
ATOM     11  C   LIG    1        9.533  -1.525   0.956  0.00  0.00    +0.570 C 
ATOM     12  N   LIG    1       10.521  -2.248   1.520  0.00  0.00    -0.720 N 
ATOM     13  H   LIG    1       11.434  -1.920   1.501  0.00  0.00    +0.400 HD
ATOM     14  O   LIG    1        8.389  -1.935   0.980  0.00  0.00    -0.550 OA
BRANCH  12  15
ATOM     15  C   LIG    1       10.216  -3.528   2.163  0.00  0.00    +0.230 C 
ATOM     16  C   LIG    1        9.816  -3.299   3.635  0.00  0.00    +0.000 C 
ATOM     17  C   LIG    1       10.435  -4.504   4.388  0.00  0.00    +0.010 C 
ATOM     18  C   LIG    1       11.789  -4.703   3.663  0.00  0.00    +0.010 C 
ATOM     19  C   LIG    1       11.469  -4.421   2.181  0.00  0.00    +0.020 C 
ENDBRANCH  12  15
ENDBRANCH  10  11
ENDBRANCH   2   5
BRANCH   1  20
ATOM     20  C   LIG    1        5.049   0.616  -0.055  0.00  0.00    +0.090 C 
BRANCH  20  21
ATOM     21  S   LIG    1        3.963   2.063  -0.028  0.00  0.00    +0.080 S 
BRANCH  21  25
ATOM     22  C   LIG    1        1.100  -2.173  -0.083  0.00  0.00    +0.190 C 
ATOM     23  C   LIG    1        1.136  -0.667  -0.060  0.00  0.00    +0.350 A 
ATOM     24  N   LIG    1        2.307  -0.056  -0.055  0.00  0.00    -0.530 NA
ATOM     25  C   LIG    1        2.391   1.266  -0.034  0.00  0.00    +0.200 A 
ATOM     26  C   LIG    1        1.195   2.030  -0.018  0.00  0.00    -0.160 A 
ATOM     27  C   LIG    1       -0.016   1.334  -0.024  0.00  0.00    +0.100 A 
ATOM     28  S   LIG    1       -1.353   2.475  -0.008  0.00  0.00    +0.170 S 
ATOM     29  C   LIG    1       -0.266   3.851   0.016  0.00  0.00    -0.170 A 
ATOM     30  C   LIG    1       -0.716   5.289   0.039  0.00  0.00    +0.140 C 
ATOM     31  C   LIG    1        0.996   3.467   0.005  0.00  0.00    -0.070 A 
ATOM     32  C   LIG    1        2.143   4.445   0.017  0.00  0.00    +0.140 C 
ATOM     33  N   LIG    1        0.002  -0.005  -0.045  0.00  0.00    -0.500 NA
ENDBRANCH  21  25
ENDBRANCH  20  21
ENDBRANCH   1  20
TORSDOF 6
