REMARK  Name = ZINCrH000004mg7N.0
REMARK                            x       y       z     vdW  Elec       q    Type
REMARK                         _______ _______ _______ _____ _____    ______ ____
ROOT
ATOM      1  C   LIG    1       -2.380   1.161   0.020  0.00  0.00    +0.070 A 
ATOM      2  C   LIG    1       -3.630   1.729   0.034  0.00  0.00    -0.230 A 
ATOM      3  C   LIG    1       -4.671   0.797   0.028  0.00  0.00    +0.080 A 
ATOM      4  C   LIG    1       -4.254  -0.477   0.020  0.00  0.00    -0.220 A 
ATOM      5  S   LIG    1       -2.499  -0.540   0.012  0.00  0.00    +0.340 S 
ENDROOT
BRANCH   4   6
ATOM      6  C   LIG    1       -5.143  -1.658   0.017  0.00  0.00    -0.010 A 
ATOM      7  C   LIG    1       -6.529  -1.492   0.029  0.00  0.00    +0.010 A 
ATOM      8  C   LIG    1       -7.353  -2.599   0.021  0.00  0.00    +0.020 A 
ATOM      9  C   LIG    1       -6.809  -3.870   0.012  0.00  0.00    +0.000 A 
ATOM     10  C   LIG    1       -5.436  -4.042   0.005  0.00  0.00    +0.020 A 
ATOM     11  C   LIG    1       -4.601  -2.944   0.008  0.00  0.00    +0.000 A 
ENDBRANCH   4   6
BRANCH   2  12
ATOM     12  C   LIG    1       -3.853   3.179   0.050  0.00  0.00    +0.590 C 
ATOM     13  O   LIG    1       -2.903   3.940   0.051  0.00  0.00    -0.560 OA
ATOM     14  N   LIG    1       -5.108   3.668   0.064  0.00  0.00    -0.850 N 
ATOM     15  H   LIG    1       -5.255   4.627   0.074  0.00  0.00    +0.410 HD
ATOM     16  H   LIG    1       -5.865   3.062   0.063  0.00  0.00    +0.400 HD
ENDBRANCH   2  12
BRANCH   1  18
ATOM     17  C   LIG    1       -0.014   1.211   0.009  0.00  0.00    +0.560 C 
ATOM     18  N   LIG    1       -1.191   1.869   0.018  0.00  0.00    -0.610 N 
ATOM     19  H   LIG    1       -1.204   2.839   0.023  0.00  0.00    +0.440 HD
ATOM     20  O   LIG    1        0.002  -0.004   0.002  0.00  0.00    -0.490 OA
BRANCH  17  25
ATOM     21  C   LIG    1        2.431   4.068   0.000  0.00  0.00    +0.170 A 
ATOM     22  C   LIG    1        3.641   3.389  -0.015  0.00  0.00    -0.130 A 
ATOM     23  C   LIG    1        3.662   2.001  -0.023  0.00  0.00    +0.160 A 
ATOM     24  C   LIG    1        2.474   1.289  -0.015  0.00  0.00    +0.030 A 
ATOM     25  C   LIG    1        1.256   1.968   0.001  0.00  0.00    -0.060 A 
ATOM     26  C   LIG    1        1.239   3.363   0.003  0.00  0.00    -0.010 A 
BRANCH  21  28
ATOM     27  C   LIG    1        3.682   6.090  -0.002  0.00  0.00    +0.250 C 
ATOM     28  O   LIG    1        2.416   5.427   0.007  0.00  0.00    -0.310 OA
ENDBRANCH  21  28
BRANCH  23  29
ATOM     29  O   LIG    1        4.850   1.341  -0.038  0.00  0.00    -0.310 OA
ATOM     30  C   LIG    1        6.035   2.138  -0.045  0.00  0.00    +0.250 C 
ENDBRANCH  23  29
ENDBRANCH  17  25
ENDBRANCH   1  18
TORSDOF 6
