REMARK  Name = ZINCqH0000031Ey9.0
REMARK                            x       y       z     vdW  Elec       q    Type
REMARK                         _______ _______ _______ _____ _____    ______ ____
ROOT
ATOM      1  N   LIG    1       -0.061   1.339   0.020  0.00  0.00    -0.670 N 
ATOM      2  H   LIG    1       -0.864   1.560   0.516  0.00  0.00    +0.410 HD
ATOM      3  C   LIG    1       -0.026   0.233  -0.749  0.00  0.00    +0.560 C 
ATOM      4  O   LIG    1        0.944   0.007  -1.446  0.00  0.00    -0.510 OA
ENDROOT
BRANCH   1  12
ATOM      5  C   LIG    1        6.557   5.748   0.541  0.00  0.00    +0.110 C 
ATOM      6  C   LIG    1        5.599   4.608   0.308  0.00  0.00    +0.520 C 
ATOM      7  N   LIG    1        4.270   4.825   0.356  0.00  0.00    -0.560 N 
ATOM      8  C   LIG    1        3.638   6.137   0.520  0.00  0.00    +0.280 C 
ATOM      9  C   LIG    1        2.126   5.860   0.513  0.00  0.00    +0.100 C 
ATOM     10  C   LIG    1        2.013   4.362   0.340  0.00  0.00    -0.120 A 
ATOM     11  C   LIG    1        0.904   3.542   0.263  0.00  0.00    +0.030 A 
ATOM     12  C   LIG    1        1.062   2.172   0.099  0.00  0.00    +0.130 A 
ATOM     13  C   LIG    1        2.339   1.631   0.020  0.00  0.00    +0.050 A 
ATOM     14  C   LIG    1        3.443   2.452   0.092  0.00  0.00    +0.030 A 
ATOM     15  C   LIG    1        3.290   3.830   0.256  0.00  0.00    +0.130 A 
ATOM     16  O   LIG    1        6.024   3.496   0.077  0.00  0.00    -0.520 OA
ENDBRANCH   1  12
BRANCH   3  17
ATOM     17  C   LIG    1       -1.166  -0.705  -0.744  0.00  0.00    -0.160 A 
ATOM     18  C   LIG    1       -2.279  -0.450   0.061  0.00  0.00    +0.100 A 
ATOM     19  C   LIG    1       -3.343  -1.325   0.059  0.00  0.00    -0.060 A 
ATOM     20  C   LIG    1       -3.306  -2.465  -0.735  0.00  0.00    +0.140 A 
ATOM     21  C   LIG    1       -2.198  -2.724  -1.534  0.00  0.00    +0.020 A 
ATOM     22  C   LIG    1       -1.133  -1.852  -1.541  0.00  0.00    +0.130 A 
BRANCH  20  23
ATOM     23  O   LIG    1       -4.354  -3.327  -0.731  0.00  0.00    -0.310 OA
BRANCH  23  24
ATOM     24  C   LIG    1       -5.460  -3.000   0.113  0.00  0.00    +0.600 C 
ATOM     25  F   LIG    1       -5.027  -2.927   1.441  0.00  0.00    -0.160 F 
ATOM     26  F   LIG    1       -6.444  -3.987  -0.004  0.00  0.00    -0.130 F 
ATOM     27  F   LIG    1       -5.991  -1.764  -0.273  0.00  0.00    -0.160 F 
ENDBRANCH  23  24
ENDBRANCH  20  23
ENDBRANCH   3  17
TORSDOF 4
