REMARK  Name = ZINCvU0000000HL2.0
REMARK                            x       y       z     vdW  Elec       q    Type
REMARK                         _______ _______ _______ _____ _____    ______ ____
ROOT
ATOM      1  C   LIG    1       -3.167  -1.029  -3.317  0.00  0.00    +0.150 A 
ATOM      2  N   LIG    1       -3.921  -0.285  -2.540  0.00  0.00    -0.290 NA
ATOM      3  N   LIG    1       -5.069  -0.102  -3.089  0.00  0.00    -0.270 NA
ATOM      4  C   LIG    1       -5.118  -0.711  -4.240  0.00  0.00    +0.200 A 
ATOM      5  N   LIG    1       -3.906  -1.319  -4.431  0.00  0.00    -0.410 N 
ENDROOT
BRANCH   5   6
ATOM      6  C   LIG    1       -3.507  -2.083  -5.537  0.00  0.00    +0.100 A 
ATOM      7  C   LIG    1       -3.345  -1.481  -6.777  0.00  0.00    +0.030 A 
ATOM      8  C   LIG    1       -2.947  -2.235  -7.864  0.00  0.00    +0.040 A 
ATOM      9  C   LIG    1       -2.719  -3.591  -7.719  0.00  0.00    +0.030 A 
ATOM     10  C   LIG    1       -2.884  -4.195  -6.487  0.00  0.00    +0.040 A 
ATOM     11  C   LIG    1       -3.278  -3.445  -5.396  0.00  0.00    +0.040 A 
ENDBRANCH   5   6
BRANCH   1  12
ATOM     12  S   LIG    1       -1.515  -1.547  -2.990  0.00  0.00    +0.090 S 
BRANCH  12  13
ATOM     13  C   LIG    1       -1.257  -0.773  -1.375  0.00  0.00    +0.110 C 
BRANCH  13  15
ATOM     14  N   LIG    1        0.549  -0.615   0.308  0.00  0.00    -0.560 N 
ATOM     15  C   LIG    1        0.132  -1.089  -0.882  0.00  0.00    +0.540 C 
ATOM     16  O   LIG    1        0.874  -1.771  -1.558  0.00  0.00    -0.510 OA
BRANCH  14  17
ATOM     17  C   LIG    1        1.871  -0.824   0.720  0.00  0.00    +0.130 A 
ATOM     18  C   LIG    1        2.138  -1.644   1.808  0.00  0.00    +0.050 A 
ATOM     19  C   LIG    1        3.443  -1.853   2.210  0.00  0.00    +0.000 A 
ATOM     20  C   LIG    1        4.484  -1.236   1.536  0.00  0.00    +0.100 A 
ATOM     21  C   LIG    1        4.218  -0.413   0.454  0.00  0.00    +0.000 A 
ATOM     22  F   LIG    1        5.759  -1.436   1.934  0.00  0.00    -0.140 F 
ATOM     23  C   LIG    1        2.916  -0.206   0.046  0.00  0.00    +0.050 A 
ENDBRANCH  14  17
BRANCH  14  25
ATOM     24  C   LIG    1       -0.311   1.612   0.840  0.00  0.00    +0.030 C 
ATOM     25  C   LIG    1       -0.380   0.119   1.170  0.00  0.00    +0.280 C 
ENDBRANCH  14  25
ENDBRANCH  13  15
ENDBRANCH  12  13
ENDBRANCH   1  12
BRANCH   4  26
ATOM     26  C   LIG    1       -6.289  -0.735  -5.188  0.00  0.00    +0.260 C 
BRANCH  26  27
ATOM     27  C   LIG    1       -7.249  -1.820  -4.773  0.00  0.00    -0.190 A 
ATOM     28  C   LIG    1       -8.217  -1.685  -3.865  0.00  0.00    +0.040 A 
ATOM     29  C   LIG    1       -8.978  -2.821  -3.650  0.00  0.00    +0.000 A 
ATOM     30  C   LIG    1       -8.623  -3.881  -4.378  0.00  0.00    -0.040 A 
ATOM     31  S   LIG    1       -7.260  -3.460  -5.407  0.00  0.00    +0.100 S 
ENDBRANCH  26  27
ENDBRANCH   4  26
TORSDOF 8
