REMARK  Name = ZINCqH0000001b3j.0
REMARK                            x       y       z     vdW  Elec       q    Type
REMARK                         _______ _______ _______ _____ _____    ______ ____
ROOT
ATOM      1  C   LIG    1        1.234   1.700  -0.011  0.00  0.00    +0.320 C 
ENDROOT
BRANCH   1   5
ATOM      2  C   LIG    1        4.530  -1.020  -0.049  0.00  0.00    +0.160 A 
ATOM      3  C   LIG    1        3.872  -0.709  -1.231  0.00  0.00    +0.020 A 
ATOM      4  C   LIG    1        2.807   0.171  -1.215  0.00  0.00    +0.050 A 
ATOM      5  C   LIG    1        2.396   0.740  -0.024  0.00  0.00    -0.130 A 
ATOM      6  C   LIG    1        3.053   0.436   1.154  0.00  0.00    +0.050 A 
ATOM      7  C   LIG    1        4.116  -0.447   1.146  0.00  0.00    -0.020 A 
BRANCH   2   9
ATOM      8  C   LIG    1        6.434  -1.956  -1.128  0.00  0.00    +0.520 C 
ATOM      9  N   LIG    1        5.610  -1.911  -0.062  0.00  0.00    -0.680 N 
ATOM     10  H   LIG    1        5.766  -2.495   0.697  0.00  0.00    +0.410 HD
ATOM     11  O   LIG    1        6.297  -1.161  -2.034  0.00  0.00    -0.510 OA
BRANCH   8  13
ATOM     12  C   LIG    1        8.308  -2.828  -2.497  0.00  0.00    +0.050 C 
ATOM     13  C   LIG    1        7.524  -2.994  -1.194  0.00  0.00    -0.010 C 
ATOM     14  C   LIG    1        8.469  -2.818  -0.004  0.00  0.00    +0.040 C 
ENDBRANCH   8  13
ENDBRANCH   2   9
ENDBRANCH   1   5
BRANCH   1  15
ATOM     15  N   LIG    1       -0.011   0.956   0.199  0.00  0.00    -0.710 N 
ATOM     16  H   LIG    1        0.012  -0.008   0.303  0.00  0.00    +0.400 HD
ATOM     17  C   LIG    1       -1.188   1.611   0.242  0.00  0.00    +0.550 C 
ATOM     18  O   LIG    1       -1.216   2.819   0.112  0.00  0.00    -0.510 OA
BRANCH  17  19
ATOM     19  C   LIG    1       -2.445   0.859   0.447  0.00  0.00    -0.080 A 
ATOM     20  C   LIG    1       -2.416  -0.528   0.591  0.00  0.00    +0.080 A 
ATOM     21  C   LIG    1       -3.591  -1.224   0.787  0.00  0.00    +0.080 A 
ATOM     22  C   LIG    1       -4.798  -0.549   0.831  0.00  0.00    +0.090 A 
ATOM     23  C   LIG    1       -4.835   0.827   0.683  0.00  0.00    -0.010 A 
ATOM     24 CL   LIG    1       -6.355   1.664   0.739  0.00  0.00    -0.020 Cl
ATOM     25  C   LIG    1       -3.665   1.535   0.492  0.00  0.00    +0.030 A 
BRANCH  25  26
ATOM     26  N   LIG    1       -3.705   3.006   0.335  0.00  0.00    +0.030 N 
ATOM     27  O   LIG    1       -3.620   3.725   1.314  0.00  0.00    -0.120 OA
ATOM     28  O   LIG    1       -3.823   3.497  -0.773  0.00  0.00    -0.120 OA
ENDBRANCH  25  26
ENDBRANCH  17  19
ENDBRANCH   1  15
TORSDOF 6
