REMARK  Name = ZINCnE000001D5in.1
REMARK                            x       y       z     vdW  Elec       q    Type
REMARK                         _______ _______ _______ _____ _____    ______ ____
ROOT
ATOM      1  N   LIG    1       -6.718  -0.137   2.621  0.00  0.00    -0.680 NA
ATOM      2  H   LIG    1       -6.633   0.821   2.927  0.00  0.00    +0.340 HD
ENDROOT
BRANCH   1   3
ATOM      3  C   LIG    1       -6.140  -0.316   1.282  0.00  0.00    +0.230 C 
BRANCH   3   7
ATOM      4  C   LIG    1       -2.143   1.058   1.278  0.00  0.00    +0.140 A 
ATOM      5  C   LIG    1       -2.379  -0.269   1.584  0.00  0.00    -0.040 A 
ATOM      6  C   LIG    1       -3.683  -0.739   1.591  0.00  0.00    +0.080 A 
ATOM      7  C   LIG    1       -4.706   0.147   1.288  0.00  0.00    -0.130 A 
ATOM      8  C   LIG    1       -4.393   1.460   0.992  0.00  0.00    +0.260 A 
ATOM      9  N   LIG    1       -3.141   1.874   1.000  0.00  0.00    -0.480 NA
BRANCH   4  11
ATOM     10  C   LIG    1       -0.013   1.086   0.008  0.00  0.00    +0.040 C 
ATOM     11  C   LIG    1       -0.729   1.579   1.267  0.00  0.00    -0.020 C 
ATOM     12  C   LIG    1       -0.750   3.109   1.275  0.00  0.00    +0.040 C 
ATOM     13  C   LIG    1        0.011   1.072   2.506  0.00  0.00    +0.040 C 
ENDBRANCH   4  11
ENDBRANCH   3   7
ENDBRANCH   1   3
BRANCH   1  14
ATOM     14  C   LIG    1       -8.118  -0.579   2.653  0.00  0.00    +0.180 C 
BRANCH  14  15
ATOM     15  C   LIG    1       -8.684  -0.378   4.061  0.00  0.00    +0.130 C 
ATOM     16  C   LIG    1      -10.101  -0.952   4.127  0.00  0.00    +0.000 C 
ATOM     17  C   LIG    1      -10.991  -0.232   3.112  0.00  0.00    +0.040 C 
ATOM     18  C   LIG    1      -11.030   1.263   3.438  0.00  0.00    -0.100 C 
ATOM     19  C   LIG    1       -9.613   1.836   3.371  0.00  0.00    +0.020 C 
ATOM     20  F   LIG    1       -7.870  -1.036   4.989  0.00  0.00    -0.210 F 
ATOM     21  C   LIG    1       -8.723   1.117   4.386  0.00  0.00    +0.000 C 
BRANCH  18  22
ATOM     22  C   LIG    1      -11.907   1.972   2.438  0.00  0.00    +0.500 C 
ATOM     23  O   LIG    1      -11.867   1.656   1.261  0.00  0.00    -0.700 OA
ATOM     24  O   LIG    1      -12.656   2.861   2.806  0.00  0.00    -0.700 OA
ENDBRANCH  18  22
ENDBRANCH  14  15
ENDBRANCH   1  14
TORSDOF 6
