REMARK  Name = ZINCqH0000038igo.0
REMARK                            x       y       z     vdW  Elec       q    Type
REMARK                         _______ _______ _______ _____ _____    ______ ____
ROOT
ATOM      1  C   LIG    1       -0.970  -3.429  -0.019  0.00  0.00    +0.210 C 
ATOM      2  C   LIG    1       -1.291  -3.857   1.429  0.00  0.00    +0.050 C 
ATOM      3  C   LIG    1       -1.100  -5.387   1.447  0.00  0.00    +0.030 C 
ATOM      4  C   LIG    1       -0.680  -5.756   0.008  0.00  0.00    +0.170 C 
ATOM      5  N   LIG    1       -0.091  -4.508  -0.541  0.00  0.00    -0.460 NA
ENDROOT
BRANCH   1  13
ATOM      6  C   LIG    1        3.878   2.167  -0.077  0.00  0.00    +0.100 C 
ATOM      7  C   LIG    1        2.571   1.417  -0.062  0.00  0.00    -0.100 A 
ATOM      8  C   LIG    1        1.375   2.120  -0.050  0.00  0.00    +0.030 A 
ATOM      9  C   LIG    1        0.171   1.450  -0.036  0.00  0.00    +0.010 A 
ATOM     10  C   LIG    1        0.156   0.062  -0.035  0.00  0.00    +0.040 A 
ATOM     11  N   LIG    1       -0.845  -0.889  -0.023  0.00  0.00    -0.600 N 
ATOM     12  H   LIG    1       -1.800  -0.719  -0.012  0.00  0.00    +0.420 HD
ATOM     13  C   LIG    1       -0.243  -2.109  -0.029  0.00  0.00    +0.290 A 
ATOM     14  N   LIG    1        1.050  -1.970  -0.043  0.00  0.00    -0.450 NA
ATOM     15  C   LIG    1        1.367  -0.650  -0.048  0.00  0.00    +0.050 A 
ATOM     16  C   LIG    1        2.576   0.051  -0.061  0.00  0.00    +0.070 A 
ENDBRANCH   1  13
BRANCH   5  17
ATOM     17  C   LIG    1       -0.097  -4.526  -2.010  0.00  0.00    +0.190 C 
BRANCH  17  18
ATOM     18  C   LIG    1        0.980  -5.456  -2.505  0.00  0.00    +0.520 C 
ATOM     19  N   LIG    1        1.163  -5.633  -3.829  0.00  0.00    -0.610 N 
ATOM     20  C   LIG    1        0.238  -5.031  -4.799  0.00  0.00    +0.220 C 
ATOM     21  C   LIG    1        1.054  -4.207  -5.806  0.00  0.00    +0.010 C 
ATOM     22  C   LIG    1        2.129  -5.098  -6.433  0.00  0.00    +0.020 C 
ATOM     23  C   LIG    1        3.077  -5.601  -5.342  0.00  0.00    +0.010 C 
ATOM     24  C   LIG    1       -0.526  -6.135  -5.532  0.00  0.00    +0.040 C 
ATOM     25  C   LIG    1        2.287  -6.436  -4.329  0.00  0.00    +0.220 C 
ATOM     26  C   LIG    1        3.198  -6.826  -3.163  0.00  0.00    +0.050 C 
ATOM     27  O   LIG    1        1.683  -6.047  -1.712  0.00  0.00    -0.500 OA
ENDBRANCH  17  18
ENDBRANCH   5  17
TORSDOF 3
