REMARK  Name = ZINCqH0000038igo.1
REMARK                            x       y       z     vdW  Elec       q    Type
REMARK                         _______ _______ _______ _____ _____    ______ ____
ROOT
ATOM      1  C   LIG    1       -1.158   2.154   0.032  0.00  0.00    +0.210 C 
ATOM      2  C   LIG    1       -1.660   2.372  -1.412  0.00  0.00    +0.050 C 
ATOM      3  C   LIG    1       -2.220   3.809  -1.429  0.00  0.00    +0.030 C 
ATOM      4  C   LIG    1       -2.010   4.339   0.006  0.00  0.00    +0.170 C 
ATOM      5  N   LIG    1       -0.893   3.522   0.546  0.00  0.00    -0.460 NA
ENDROOT
BRANCH   1  12
ATOM      6  C   LIG    1        4.277  -2.929   0.007  0.00  0.00    +0.100 C 
ATOM      7  C   LIG    1        3.545  -1.612   0.011  0.00  0.00    -0.070 A 
ATOM      8  C   LIG    1        4.262  -0.424   0.009  0.00  0.00    +0.000 A 
ATOM      9  C   LIG    1        3.616   0.780   0.012  0.00  0.00    +0.070 A 
ATOM     10  C   LIG    1        2.220   0.821   0.019  0.00  0.00    +0.040 A 
ATOM     11  N   LIG    1        1.313   1.831   0.025  0.00  0.00    -0.450 NA
ATOM     12  C   LIG    1        0.109   1.338   0.030  0.00  0.00    +0.280 A 
ATOM     13  N   LIG    1        0.160  -0.021   0.029  0.00  0.00    -0.600 N 
ATOM     14  H   LIG    1       -0.599  -0.625   0.033  0.00  0.00    +0.420 HD
ATOM     15  C   LIG    1        1.493  -0.382   0.022  0.00  0.00    +0.050 A 
ATOM     16  C   LIG    1        2.166  -1.596   0.018  0.00  0.00    +0.000 A 
ENDBRANCH   1  12
BRANCH   5  17
ATOM     17  C   LIG    1       -0.889   3.541   2.015  0.00  0.00    +0.190 C 
BRANCH  17  18
ATOM     18  C   LIG    1       -0.380   4.874   2.499  0.00  0.00    +0.520 C 
ATOM     19  N   LIG    1       -0.288   5.121   3.821  0.00  0.00    -0.610 N 
ATOM     20  C   LIG    1       -0.805   4.155   4.800  0.00  0.00    +0.220 C 
ATOM     21  C   LIG    1        0.317   3.823   5.796  0.00  0.00    +0.010 C 
ATOM     22  C   LIG    1        0.845   5.121   6.412  0.00  0.00    +0.020 C 
ATOM     23  C   LIG    1        1.427   6.010   5.311  0.00  0.00    +0.010 C 
ATOM     24  C   LIG    1       -1.994   4.766   5.545  0.00  0.00    +0.040 C 
ATOM     25  C   LIG    1        0.324   6.364   4.310  0.00  0.00    +0.220 C 
ATOM     26  C   LIG    1        0.927   7.136   3.134  0.00  0.00    +0.050 C 
ATOM     27  O   LIG    1       -0.051   5.725   1.699  0.00  0.00    -0.500 OA
ENDBRANCH  17  18
ENDBRANCH   5  17
TORSDOF 3
