REMARK  Name = ZINCvU0000000H8n.0
REMARK                            x       y       z     vdW  Elec       q    Type
REMARK                         _______ _______ _______ _____ _____    ______ ____
ROOT
ATOM      1  C   LIG    1       -5.635   5.494   1.513  0.00  0.00    +0.430 C 
ATOM      2  O   LIG    1       -5.758   4.979   2.604  0.00  0.00    -0.450 OA
ENDROOT
BRANCH   1   3
ATOM      3  C   LIG    1       -4.434   5.240   0.715  0.00  0.00    -0.260 A 
ATOM      4  C   LIG    1       -3.360   4.440   1.058  0.00  0.00    +0.130 A 
ATOM      5  N   LIG    1       -2.467   4.481   0.050  0.00  0.00    -0.400 N 
ATOM      6  C   LIG    1       -2.925   5.282  -0.959  0.00  0.00    +0.020 A 
ATOM      7  C   LIG    1       -2.200   5.562  -2.250  0.00  0.00    +0.150 C 
ATOM      8  C   LIG    1       -3.212   3.660   2.339  0.00  0.00    +0.150 C 
ATOM      9  C   LIG    1       -4.125   5.780  -0.617  0.00  0.00    +0.020 A 
BRANCH   5  10
ATOM     10  C   LIG    1       -1.245   3.794   0.034  0.00  0.00    +0.130 A 
ATOM     11  C   LIG    1       -0.051   4.502   0.027  0.00  0.00    +0.060 A 
ATOM     12  C   LIG    1        1.153   3.824   0.012  0.00  0.00    +0.080 A 
ATOM     13  C   LIG    1        1.169   2.440   0.004  0.00  0.00    -0.020 A 
ATOM     14  C   LIG    1       -0.021   1.732   0.012  0.00  0.00    -0.020 A 
ATOM     15 CL   LIG    1        0.002  -0.004   0.002  0.00  0.00    -0.030 Cl
ATOM     16 CL   LIG    1        2.683   1.591  -0.015  0.00  0.00    -0.030 Cl
ATOM     17  C   LIG    1       -1.228   2.406   0.021  0.00  0.00    +0.060 A 
ENDBRANCH   5  10
ENDBRANCH   1   3
BRANCH   1  18
ATOM     18  C   LIG    1       -6.717   6.396   0.979  0.00  0.00    +0.230 C 
BRANCH  18  19
ATOM     19  O   LIG    1       -7.777   6.486   1.934  0.00  0.00    -0.330 OA
BRANCH  19  20
ATOM     20  C   LIG    1       -8.832   7.261   1.607  0.00  0.00    +0.500 C 
ATOM     21  O   LIG    1       -8.850   7.844   0.540  0.00  0.00    -0.510 OA
BRANCH  20  23
ATOM     22  C   LIG    1      -11.008   8.174   2.209  0.00  0.00    +0.140 C 
ATOM     23  C   LIG    1       -9.953   7.399   2.536  0.00  0.00    -0.040 C 
BRANCH  22  28
ATOM     24  C   LIG    1      -14.287   9.240   3.694  0.00  0.00    +0.120 A 
ATOM     25  C   LIG    1      -14.260   8.570   4.910  0.00  0.00    -0.060 A 
ATOM     26  C   LIG    1      -13.177   7.776   5.244  0.00  0.00    +0.050 A 
ATOM     27  C   LIG    1      -12.120   7.639   4.370  0.00  0.00    +0.000 A 
ATOM     28  C   LIG    1      -12.136   8.313   3.144  0.00  0.00    -0.040 A 
ATOM     29  C   LIG    1      -13.230   9.115   2.809  0.00  0.00    +0.020 A 
BRANCH  24  31
ATOM     30  C   LIG    1      -16.409  10.102   4.332  0.00  0.00    +0.250 C 
ATOM     31  O   LIG    1      -15.354  10.019   3.372  0.00  0.00    -0.320 OA
ENDBRANCH  24  31
ENDBRANCH  22  28
ENDBRANCH  20  23
ENDBRANCH  19  20
ENDBRANCH  18  19
ENDBRANCH   1  18
TORSDOF 8
