REMARK  Name = ZINCqH0000002pJu.0
REMARK                            x       y       z     vdW  Elec       q    Type
REMARK                         _______ _______ _______ _____ _____    ______ ____
ROOT
ATOM      1  N   LIG    1       -4.816  -3.836  -1.528  0.00  0.00    -0.720 N 
ATOM      2  H   LIG    1       -5.695  -3.917  -1.127  0.00  0.00    +0.410 HD
ATOM      3  C   LIG    1       -3.788  -3.346  -0.806  0.00  0.00    +0.520 C 
ATOM      4  O   LIG    1       -2.689  -3.245  -1.308  0.00  0.00    -0.520 OA
ENDROOT
BRANCH   1   5
ATOM      5  C   LIG    1       -4.604  -4.246  -2.918  0.00  0.00    +0.240 C 
BRANCH   5   7
ATOM      6  N   LIG    1       -5.285  -6.336  -4.053  0.00  0.00    -0.610 N 
ATOM      7  C   LIG    1       -5.637  -5.274  -3.301  0.00  0.00    +0.520 C 
ATOM      8  O   LIG    1       -6.786  -5.146  -2.933  0.00  0.00    -0.530 OA
ATOM      9  C   LIG    1       -3.929  -6.427  -4.602  0.00  0.00    +0.280 C 
BRANCH   6  10
ATOM     10  C   LIG    1       -6.257  -7.398  -4.322  0.00  0.00    +0.270 C 
BRANCH  10  11
ATOM     11  C   LIG    1       -7.028  -7.072  -5.602  0.00  0.00    +0.000 C 
BRANCH  11  13
ATOM     12  C   LIG    1       -8.815  -7.854  -7.163  0.00  0.00    +0.010 C 
ATOM     13  C   LIG    1       -8.044  -8.181  -5.883  0.00  0.00    +0.000 C 
ENDBRANCH  11  13
ENDBRANCH  10  11
ENDBRANCH   6  10
ENDBRANCH   5   7
BRANCH   5  14
ATOM     14  C   LIG    1       -4.734  -3.027  -3.834  0.00  0.00    -0.010 C 
ATOM     15  C   LIG    1       -6.121  -2.406  -3.664  0.00  0.00    +0.040 C 
ATOM     16  C   LIG    1       -4.544  -3.461  -5.289  0.00  0.00    +0.030 C 
ENDBRANCH   5  14
ENDBRANCH   1   5
BRANCH   3  17
ATOM     17  C   LIG    1       -4.006  -2.925   0.624  0.00  0.00    +0.120 C 
BRANCH  17  18
ATOM     18  C   LIG    1       -2.709  -2.417   1.201  0.00  0.00    -0.060 A 
ATOM     19  C   LIG    1       -2.400  -1.097   1.094  0.00  0.00    +0.030 A 
ATOM     20  C   LIG    1       -1.191  -0.620   1.631  0.00  0.00    -0.050 A 
ATOM     21  C   LIG    1       -0.837   0.737   1.539  0.00  0.00    +0.020 A 
ATOM     22  C   LIG    1        0.342   1.162   2.070  0.00  0.00    +0.000 A 
ATOM     23  C   LIG    1        1.206   0.272   2.706  0.00  0.00    +0.000 A 
ATOM     24  C   LIG    1        0.896  -1.050   2.813  0.00  0.00    +0.020 A 
ATOM     25  C   LIG    1       -0.313  -1.526   2.277  0.00  0.00    -0.050 A 
ATOM     26  C   LIG    1       -0.667  -2.883   2.368  0.00  0.00    +0.030 A 
ATOM     27  C   LIG    1       -1.845  -3.308   1.836  0.00  0.00    +0.020 A 
ENDBRANCH  17  18
ENDBRANCH   3  17
TORSDOF 8
