REMARK  Name = ZINCrD000000C7ZJ.0
REMARK                            x       y       z     vdW  Elec       q    Type
REMARK                         _______ _______ _______ _____ _____    ______ ____
ROOT
ATOM      1  O   LIG    1       -0.158   0.262  -1.115  0.00  0.00    -0.510 OA
ATOM      2  C   LIG    1       -0.098   1.350  -0.575  0.00  0.00    +0.570 C 
ATOM      3  N   LIG    1       -1.191   1.869   0.018  0.00  0.00    -0.670 N 
ATOM      4  H   LIG    1       -1.127   2.705   0.506  0.00  0.00    +0.410 HD
ENDROOT
BRANCH   2   5
ATOM      5  C   LIG    1        1.173   2.106  -0.576  0.00  0.00    -0.110 A 
ATOM      6  C   LIG    1        1.243   3.357   0.038  0.00  0.00    +0.020 A 
ATOM      7  C   LIG    1        2.432   4.058   0.041  0.00  0.00    +0.060 A 
ATOM      8  C   LIG    1        3.553   3.529  -0.573  0.00  0.00    -0.020 A 
ATOM      9  C   LIG    1        3.491   2.287  -1.190  0.00  0.00    +0.100 A 
ATOM     10  C   LIG    1        2.304   1.573  -1.194  0.00  0.00    +0.080 A 
BRANCH   9  11
ATOM     11  O   LIG    1        4.595   1.771  -1.792  0.00  0.00    -0.320 OA
BRANCH  11  12
ATOM     12  C   LIG    1        5.785   2.562  -1.750  0.00  0.00    +0.600 C 
ATOM     13  F   LIG    1        6.151   2.783  -0.418  0.00  0.00    -0.200 F 
ATOM     14  F   LIG    1        5.552   3.789  -2.380  0.00  0.00    -0.200 F 
ENDBRANCH  11  12
ENDBRANCH   9  11
ENDBRANCH   2   5
BRANCH   3  15
ATOM     15  C   LIG    1       -2.417   1.203  -0.070  0.00  0.00    +0.130 A 
ATOM     16  C   LIG    1       -2.457  -0.185  -0.072  0.00  0.00    +0.090 A 
ATOM     17  C   LIG    1       -3.670  -0.840  -0.159  0.00  0.00    +0.020 A 
ATOM     18  C   LIG    1       -4.844  -0.114  -0.244  0.00  0.00    +0.110 A 
ATOM     19  C   LIG    1       -4.808   1.268  -0.243  0.00  0.00    -0.660 A 
ATOM     20  C   LIG    1       -3.599   1.929  -0.151  0.00  0.00    +0.100 A 
BRANCH  19  21
ATOM     21  S   LIG    1       -6.307   2.188  -0.352  0.00  0.00    +2.710 S 
ATOM     22  O   LIG    1       -7.260   1.330  -0.966  0.00  0.00    -0.950 OA
ATOM     23  O   LIG    1       -5.959   3.462  -0.874  0.00  0.00    -0.950 OA
BRANCH  21  24
ATOM     24  N   LIG    1       -6.838   2.445   1.195  0.00  0.00    -1.010 NA
ATOM     25  C   LIG    1       -7.739   1.562   1.950  0.00  0.00    +0.270 C 
ATOM     26  C   LIG    1       -7.973   2.216   3.328  0.00  0.00    +0.030 C 
ATOM     27  C   LIG    1       -7.651   3.710   3.061  0.00  0.00    +0.030 C 
ATOM     28  C   LIG    1       -6.490   3.600   2.042  0.00  0.00    +0.270 C 
ENDBRANCH  21  24
ENDBRANCH  19  21
ENDBRANCH   3  15
TORSDOF 6
