REMARK  Name = ZINCrH000004s9Ib.0
REMARK                            x       y       z     vdW  Elec       q    Type
REMARK                         _______ _______ _______ _____ _____    ______ ____
ROOT
ATOM      1  N   LIG    1        5.842   6.873  -0.560  0.00  0.00    -0.720 N 
ATOM      2  H   LIG    1        6.329   6.236  -0.015  0.00  0.00    +0.400 HD
ATOM      3  C   LIG    1        4.551   6.645  -0.872  0.00  0.00    +0.600 C 
ATOM      4  O   LIG    1        3.941   7.444  -1.556  0.00  0.00    -0.540 OA
ENDROOT
BRANCH   3   5
ATOM      5  C   LIG    1        3.879   5.428  -0.384  0.00  0.00    -0.290 A 
ATOM      6  C   LIG    1        2.570   5.061  -0.626  0.00  0.00    +0.170 A 
ATOM      7  N   LIG    1        2.358   3.889   0.000  0.00  0.00    -0.320 N 
ATOM      8  N   LIG    1        3.544   3.507   0.637  0.00  0.00    -0.290 NA
ATOM      9  C   LIG    1        1.563   5.833  -1.440  0.00  0.00    +0.170 C 
ATOM     10  C   LIG    1        4.455   4.414   0.415  0.00  0.00    +0.280 A 
BRANCH   7  11
ATOM     11  C   LIG    1        1.155   3.170   0.008  0.00  0.00    +0.150 A 
ATOM     12  C   LIG    1        1.174   1.782   0.000  0.00  0.00    +0.060 A 
ATOM     13  C   LIG    1       -0.013   1.076   0.008  0.00  0.00    +0.060 A 
ATOM     14  C   LIG    1       -1.221   1.751   0.017  0.00  0.00    -0.030 A 
ATOM     15  C   LIG    1       -1.243   3.135   0.031  0.00  0.00    +0.060 A 
ATOM     16 CL   LIG    1       -2.711   0.860   0.019  0.00  0.00    -0.060 Cl
ATOM     17  C   LIG    1       -0.059   3.845   0.023  0.00  0.00    +0.030 A 
ENDBRANCH   7  11
ENDBRANCH   3   5
BRANCH   1  18
ATOM     18  C   LIG    1        6.511   8.083  -1.045  0.00  0.00    +0.390 C 
BRANCH  18  24
ATOM     19  C   LIG    1       12.918   8.777   2.603  0.00  0.00    +0.120 C 
ATOM     20  C   LIG    1       11.913   8.454   1.529  0.00  0.00    -0.060 A 
ATOM     21  C   LIG    1       10.593   8.717   1.726  0.00  0.00    +0.060 A 
ATOM     22  C   LIG    1        9.668   8.407   0.709  0.00  0.00    +0.230 A 
ATOM     23  N   LIG    1        8.352   8.550   0.625  0.00  0.00    -0.480 NA
ATOM     24  C   LIG    1        7.937   8.098  -0.560  0.00  0.00    +0.040 A 
ATOM     25  C   LIG    1        9.009   7.650  -1.251  0.00  0.00    +0.110 A 
ATOM     26  N   LIG    1       10.109   7.846  -0.461  0.00  0.00    -0.360 N 
ATOM     27  C   LIG    1       11.436   7.586  -0.646  0.00  0.00    +0.230 A 
ATOM     28  C   LIG    1       12.334   7.878   0.319  0.00  0.00    +0.010 A 
ENDBRANCH  18  24
ENDBRANCH   1  18
TORSDOF 4
