REMARK  Name = ZINCrg00000PNbOo.1
REMARK                            x       y       z     vdW  Elec       q    Type
REMARK                         _______ _______ _______ _____ _____    ______ ____
ROOT
ATOM      1  C   LIG    1       -0.709   1.568  -1.239  0.00  0.00    +0.490 C 
ATOM      2  N   LIG    1       -1.804   0.926  -1.690  0.00  0.00    -0.730 N 
ATOM      3  H   LIG    1       -2.145   0.153  -1.212  0.00  0.00    +0.400 HD
ATOM      4  O   LIG    1       -0.283   2.534  -1.836  0.00  0.00    -0.510 OA
ENDROOT
BRANCH   1   9
ATOM      5  O   LIG    1        2.819   3.263   0.239  0.00  0.00    -0.520 OA
ATOM      6  C   LIG    1        1.695   2.825   0.391  0.00  0.00    +0.620 C 
ATOM      7  N   LIG    1        1.359   1.574  -0.003  0.00  0.00    -0.720 N 
ATOM      8  H   LIG    1        2.062   0.977  -0.304  0.00  0.00    +0.410 HD
ATOM      9  C   LIG    1       -0.013   1.086   0.008  0.00  0.00    +0.270 C 
ATOM     10  C   LIG    1       -0.805   1.561   1.227  0.00  0.00    +0.170 C 
ATOM     11  C   LIG    1       -0.565   3.035   1.417  0.00  0.00    +0.120 A 
ATOM     12  N   LIG    1       -1.327   3.989   1.939  0.00  0.00    -0.440 N 
ATOM     13  H   LIG    1       -2.217   3.868   2.306  0.00  0.00    +0.440 HD
ATOM     14  N   LIG    1       -0.626   5.204   1.869  0.00  0.00    -0.290 NA
ATOM     15  C   LIG    1        0.543   4.991   1.316  0.00  0.00    +0.320 A 
ATOM     16  C   LIG    1        0.627   3.631   1.013  0.00  0.00    -0.290 A 
ENDBRANCH   1   9
BRANCH   2  17
ATOM     17  C   LIG    1       -2.481   1.394  -2.902  0.00  0.00    +0.260 C 
BRANCH  17  18
ATOM     18  C   LIG    1       -3.686   0.497  -3.192  0.00  0.00    +0.020 C 
BRANCH  18  19
ATOM     19  C   LIG    1       -4.393   0.987  -4.458  0.00  0.00    +0.270 C 
BRANCH  19  20
ATOM     20  N   LIG    1       -5.546   0.128  -4.736  0.00  0.00    -0.720 N 
ATOM     21  H   LIG    1       -5.751  -0.616  -4.148  0.00  0.00    +0.410 HD
BRANCH  20  22
ATOM     22  C   LIG    1       -6.348   0.378  -5.844  0.00  0.00    +0.430 A 
ATOM     23  C   LIG    1       -6.050   1.446  -6.683  0.00  0.00    -0.100 A 
ATOM     24  C   LIG    1       -6.856   1.684  -7.782  0.00  0.00    +0.170 A 
ATOM     25  C   LIG    1       -7.938   0.842  -8.005  0.00  0.00    -0.300 A 
ATOM     26  C   LIG    1       -8.176  -0.199  -7.130  0.00  0.00    +0.380 A 
ATOM     27  N   LIG    1       -7.387  -0.405  -6.093  0.00  0.00    -0.540 NA
BRANCH  25  28
ATOM     28  C   LIG    1       -8.844   1.063  -9.189  0.00  0.00    +0.520 C 
ATOM     29  F   LIG    1       -8.876   2.426  -9.502  0.00  0.00    -0.180 F 
ATOM     30  F   LIG    1      -10.135   0.625  -8.876  0.00  0.00    -0.180 F 
ATOM     31  F   LIG    1       -8.360   0.344 -10.287  0.00  0.00    -0.180 F 
ENDBRANCH  25  28
ENDBRANCH  20  22
ENDBRANCH  19  20
ENDBRANCH  18  19
ENDBRANCH  17  18
ENDBRANCH   2  17
TORSDOF 7
