REMARK  Name = ZINCrg00000PNbOo.0
REMARK                            x       y       z     vdW  Elec       q    Type
REMARK                         _______ _______ _______ _____ _____    ______ ____
ROOT
ATOM      1  C   LIG    1        1.062   3.677   1.668  0.00  0.00    +0.490 C 
ATOM      2  N   LIG    1        1.462   4.874   2.141  0.00  0.00    -0.730 N 
ATOM      3  H   LIG    1        1.806   5.546   1.532  0.00  0.00    +0.400 HD
ATOM      4  O   LIG    1        0.632   2.837   2.429  0.00  0.00    -0.510 OA
ENDROOT
BRANCH   1   9
ATOM      5  O   LIG    1        0.002  -0.004   0.002  0.00  0.00    -0.530 OA
ATOM      6  C   LIG    1       -0.014   1.212   0.009  0.00  0.00    +0.620 C 
ATOM      7  N   LIG    1        1.127   1.940   0.002  0.00  0.00    -0.710 N 
ATOM      8  H   LIG    1        1.969   1.478  -0.137  0.00  0.00    +0.410 HD
ATOM      9  C   LIG    1        1.151   3.382   0.192  0.00  0.00    +0.270 C 
ATOM     10  C   LIG    1        0.008   4.104  -0.522  0.00  0.00    +0.180 C 
ATOM     11  C   LIG    1       -1.280   3.374  -0.234  0.00  0.00    +0.100 A 
ATOM     12  N   LIG    1       -2.498   3.789  -0.165  0.00  0.00    -0.270 NA
ATOM     13  N   LIG    1       -3.331   2.700   0.139  0.00  0.00    -0.470 N 
ATOM     14  H   LIG    1       -4.294   2.738   0.248  0.00  0.00    +0.450 HD
ATOM     15  C   LIG    1       -2.568   1.594   0.252  0.00  0.00    +0.340 A 
ATOM     16  C   LIG    1       -1.280   1.971   0.019  0.00  0.00    -0.300 A 
ENDBRANCH   1   9
BRANCH   2  17
ATOM     17  C   LIG    1        1.376   5.160   3.575  0.00  0.00    +0.260 C 
BRANCH  17  18
ATOM     18  C   LIG    1        1.889   6.577   3.844  0.00  0.00    +0.020 C 
BRANCH  18  19
ATOM     19  C   LIG    1        1.799   6.876   5.341  0.00  0.00    +0.270 C 
BRANCH  19  20
ATOM     20  N   LIG    1        2.290   8.232   5.599  0.00  0.00    -0.720 N 
ATOM     21  H   LIG    1        2.604   8.781   4.864  0.00  0.00    +0.410 HD
BRANCH  20  22
ATOM     22  C   LIG    1        2.306   8.731   6.896  0.00  0.00    +0.430 A 
ATOM     23  C   LIG    1        1.853   7.937   7.945  0.00  0.00    -0.100 A 
ATOM     24  C   LIG    1        1.875   8.446   9.232  0.00  0.00    +0.170 A 
ATOM     25  C   LIG    1        2.349   9.737   9.426  0.00  0.00    -0.300 A 
ATOM     26  C   LIG    1        2.783  10.469   8.338  0.00  0.00    +0.380 A 
ATOM     27  N   LIG    1        2.756   9.955   7.123  0.00  0.00    -0.540 NA
BRANCH  25  28
ATOM     28  C   LIG    1        2.390  10.332  10.809  0.00  0.00    +0.520 C 
ATOM     29  F   LIG    1        1.359   9.788  11.582  0.00  0.00    -0.180 F 
ATOM     30  F   LIG    1        2.228  11.719  10.725  0.00  0.00    -0.180 F 
ATOM     31  F   LIG    1        3.623  10.043  11.405  0.00  0.00    -0.180 F 
ENDBRANCH  25  28
ENDBRANCH  20  22
ENDBRANCH  19  20
ENDBRANCH  18  19
ENDBRANCH  17  18
ENDBRANCH   2  17
TORSDOF 7
