REMARK  Name = ZINCpe000000UZzq.0
REMARK                            x       y       z     vdW  Elec       q    Type
REMARK                         _______ _______ _______ _____ _____    ______ ____
ROOT
ATOM      1  C   LIG    1       -2.164   0.988   1.300  0.00  0.00    +0.000 C 
ATOM      2  C   LIG    1       -0.729   1.520   1.284  0.00  0.00    +0.030 C 
ATOM      3  C   LIG    1       -0.014   1.022   0.025  0.00  0.00    +0.010 C 
ATOM      4  C   LIG    1       -0.740   1.552  -1.215  0.00  0.00    +0.260 C 
ATOM      5  N   LIG    1       -2.156   1.167  -1.134  0.00  0.00    -0.620 N 
ATOM      6  C   LIG    1       -2.747   0.504  -2.148  0.00  0.00    +0.710 C 
ATOM      7  N   LIG    1       -2.070   0.281  -3.292  0.00  0.00    -0.730 N 
ATOM      8  H   LIG    1       -1.140   0.546  -3.364  0.00  0.00    +0.410 HD
ATOM      9  O   LIG    1       -3.890   0.108  -2.031  0.00  0.00    -0.580 OA
ATOM     10  C   LIG    1       -2.915   1.518   0.074  0.00  0.00    +0.300 C 
ENDROOT
BRANCH   1  11
ATOM     11  C   LIG    1       -2.869   1.459   2.574  0.00  0.00    -0.350 C 
BRANCH  11  12
ATOM     12  S   LIG    1       -4.520   0.712   2.663  0.00  0.00    +2.610 S 
ATOM     13  O   LIG    1       -4.422  -0.689   2.880  0.00  0.00    -0.950 OA
ATOM     14  O   LIG    1       -5.361   1.239   1.647  0.00  0.00    -0.940 OA
BRANCH  12  16
ATOM     15  C   LIG    1       -5.434   2.732   4.212  0.00  0.00    +0.290 C 
ATOM     16  N   LIG    1       -5.163   1.299   4.071  0.00  0.00    -1.130 NA
ATOM     17  H   LIG    1       -5.361   0.694   4.803  0.00  0.00    +0.420 HD
ENDBRANCH  12  16
ENDBRANCH  11  12
ENDBRANCH   1  11
BRANCH   7  18
ATOM     18  C   LIG    1       -2.740  -0.360  -4.426  0.00  0.00    +0.390 C 
BRANCH  18  19
ATOM     19  C   LIG    1       -2.052   0.038  -5.706  0.00  0.00    +0.200 A 
ATOM     20  N   LIG    1       -0.761   0.073  -5.897  0.00  0.00    -0.480 NA
ATOM     21  C   LIG    1       -0.511   0.469  -7.154  0.00  0.00    +0.140 A 
ATOM     22  C   LIG    1       -1.691   0.697  -7.762  0.00  0.00    +0.130 A 
ATOM     23  N   LIG    1       -2.669   0.423  -6.844  0.00  0.00    -0.450 N 
ATOM     24  C   LIG    1       -4.115   0.527  -7.057  0.00  0.00    +0.320 C 
ENDBRANCH  18  19
BRANCH  18  25
ATOM     25  C   LIG    1       -2.674  -1.880  -4.263  0.00  0.00    -0.060 C 
ATOM     26  C   LIG    1       -3.984  -2.661  -4.386  0.00  0.00    +0.010 C 
ATOM     27  C   LIG    1       -3.323  -2.486  -3.017  0.00  0.00    +0.040 C 
ENDBRANCH  18  25
ENDBRANCH   7  18
TORSDOF 6
