REMARK  Name = ZINCrD00000l6vx0.0
REMARK                            x       y       z     vdW  Elec       q    Type
REMARK                         _______ _______ _______ _____ _____    ______ ____
ROOT
ATOM      1  C   LIG    1        2.528   0.026   1.029  0.00  0.00    +0.150 C 
ATOM      2  C   LIG    1        2.437   1.435   0.502  0.00  0.00    +0.180 C 
ATOM      3  C   LIG    1        1.228   2.026   0.392  0.00  0.00    -0.250 C 
ATOM      4  C   LIG    1        1.181   3.441  -0.148  0.00  0.00    +0.360 C 
ATOM      5  N   LIG    1        2.468   4.064  -0.500  0.00  0.00    -0.650 N 
ATOM      6  H   LIG    1        2.503   4.969  -0.847  0.00  0.00    +0.450 HD
ATOM      7  C   LIG    1        3.596   3.345  -0.335  0.00  0.00    +0.550 C 
ATOM      8  S   LIG    1        5.099   4.054  -0.747  0.00  0.00    -0.570 S 
ATOM      9  N   LIG    1        3.579   2.094   0.142  0.00  0.00    -0.450 N 
ENDROOT
BRANCH   3  10
ATOM     10  C   LIG    1        0.043   1.344   0.764  0.00  0.00    +0.600 C 
ATOM     11  N   LIG    1       -0.327   1.294   2.059  0.00  0.00    -0.610 N 
ATOM     12  C   LIG    1        0.437   2.010   3.094  0.00  0.00    +0.240 C 
ATOM     13  C   LIG    1       -0.550   2.843   3.928  0.00  0.00    +0.220 C 
ATOM     14  O   LIG    1       -1.604   1.995   4.390  0.00  0.00    -0.380 OA
ATOM     15  C   LIG    1       -2.393   1.419   3.346  0.00  0.00    +0.220 C 
ATOM     16  C   LIG    1       -1.504   0.518   2.481  0.00  0.00    +0.270 C 
ATOM     17  O   LIG    1       -0.643   0.808  -0.086  0.00  0.00    -0.510 OA
ENDBRANCH   3  10
BRANCH   9  18
ATOM     18  C   LIG    1        4.801   1.423   0.281  0.00  0.00    +0.110 A 
ATOM     19  C   LIG    1        5.678   1.778   1.298  0.00  0.00    +0.060 A 
ATOM     20  C   LIG    1        6.879   1.110   1.436  0.00  0.00    +0.020 A 
ATOM     21  C   LIG    1        7.214   0.097   0.556  0.00  0.00    +0.030 A 
ATOM     22  C   LIG    1        6.345  -0.255  -0.461  0.00  0.00    +0.020 A 
ATOM     23  C   LIG    1        5.140   0.405  -0.601  0.00  0.00    +0.020 A 
ENDBRANCH   9  18
BRANCH   4  24
ATOM     24  C   LIG    1        0.308   3.440  -1.377  0.00  0.00    -0.220 A 
ATOM     25  C   LIG    1       -0.931   3.929  -1.440  0.00  0.00    +0.030 A 
ATOM     26  C   LIG    1       -1.540   3.818  -2.678  0.00  0.00    +0.000 A 
ATOM     27  C   LIG    1       -0.796   3.238  -3.620  0.00  0.00    -0.030 A 
ATOM     28  S   LIG    1        0.770   2.800  -2.949  0.00  0.00    +0.130 S 
ENDBRANCH   4  24
TORSDOF 3
