REMARK  Name = ZINCpe00000MIWC6.0
REMARK                            x       y       z     vdW  Elec       q    Type
REMARK                         _______ _______ _______ _____ _____    ______ ____
ROOT
ATOM      1  C   LIG    1        3.784  -0.992   0.171  0.00  0.00    +0.220 C 
ATOM      2  C   LIG    1        3.022  -0.817  -1.142  0.00  0.00    +0.320 C 
ATOM      3  N   LIG    1        1.739  -1.513  -1.050  0.00  0.00    -0.470 N 
ATOM      4  C   LIG    1        0.917  -1.897  -2.047  0.00  0.00    +0.190 A 
ATOM      5  N   LIG    1       -0.118  -2.473  -1.493  0.00  0.00    -0.290 NA
ATOM      6  N   LIG    1        0.017  -2.470  -0.211  0.00  0.00    -0.270 NA
ATOM      7  C   LIG    1        1.148  -1.700  -3.524  0.00  0.00    +0.200 C 
ATOM      8  C   LIG    1        1.137  -1.898   0.104  0.00  0.00    +0.150 A 
ATOM      9  C   LIG    1        1.727  -1.668   1.474  0.00  0.00    +0.450 C 
ATOM     10  N   LIG    1        2.873  -0.755   1.302  0.00  0.00    -0.610 N 
ATOM     11  C   LIG    1        3.078   0.269   2.153  0.00  0.00    +0.570 C 
ATOM     12  O   LIG    1        4.046   0.991   2.015  0.00  0.00    -0.480 OA
ENDROOT
BRANCH  11  13
ATOM     13  C   LIG    1        2.123   0.516   3.255  0.00  0.00    -0.130 A 
ATOM     14  C   LIG    1        2.391   0.033   4.537  0.00  0.00    +0.050 A 
ATOM     15  C   LIG    1        1.494   0.264   5.557  0.00  0.00    +0.030 A 
ATOM     16  C   LIG    1        0.332   0.983   5.321  0.00  0.00    -0.070 A 
ATOM     17  C   LIG    1       -0.790   1.366   6.263  0.00  0.00    +0.080 C 
ATOM     18  C   LIG    1       -1.973   1.747   5.348  0.00  0.00    +0.040 C 
ATOM     19  C   LIG    1       -1.262   2.202   4.057  0.00  0.00    +0.070 C 
ATOM     20  C   LIG    1        0.060   1.464   4.051  0.00  0.00    -0.090 A 
ATOM     21  C   LIG    1        0.951   1.234   3.020  0.00  0.00    +0.050 A 
ENDBRANCH  11  13
BRANCH   1  25
ATOM     22  C   LIG    1        7.253   0.550   0.662  0.00  0.00    +0.290 C 
ATOM     23  N   LIG    1        6.147  -0.410   0.610  0.00  0.00    -0.730 N 
ATOM     24  H   LIG    1        6.298  -1.337   0.853  0.00  0.00    +0.400 HD
ATOM     25  C   LIG    1        4.921  -0.005   0.225  0.00  0.00    +0.540 C 
ATOM     26  O   LIG    1        4.732   1.154  -0.078  0.00  0.00    -0.510 OA
ENDBRANCH   1  25
TORSDOF 2
