REMARK  Name = ZINCqH0000002L9Q.0
REMARK                            x       y       z     vdW  Elec       q    Type
REMARK                         _______ _______ _______ _____ _____    ______ ____
ROOT
ATOM      1  C   LIG    1       -0.082   0.003  -0.136  0.00  0.00    +0.270 C 
ENDROOT
BRANCH   1   2
ATOM      2  N   LIG    1       -0.197   1.454  -0.301  0.00  0.00    -0.730 N 
ATOM      3  H   LIG    1       -1.071   1.864  -0.393  0.00  0.00    +0.410 HD
ATOM      4  C   LIG    1        0.913   2.219  -0.332  0.00  0.00    +0.710 C 
ATOM      5  N   LIG    1        0.807   3.554  -0.484  0.00  0.00    -0.740 N 
ATOM      6  H   LIG    1       -0.067   3.964  -0.572  0.00  0.00    +0.400 HD
ATOM      7  O   LIG    1        2.009   1.704  -0.222  0.00  0.00    -0.580 OA
BRANCH   5   8
ATOM      8  C   LIG    1        2.013   4.385  -0.517  0.00  0.00    +0.340 C 
BRANCH   8   9
ATOM      9  C   LIG    1        1.623   5.830  -0.695  0.00  0.00    -0.120 A 
ATOM     10  C   LIG    1        1.507   6.362  -1.966  0.00  0.00    +0.070 A 
ATOM     11  C   LIG    1        1.144   7.685  -2.130  0.00  0.00    -0.020 A 
ATOM     12  C   LIG    1        0.907   8.481  -1.022  0.00  0.00    +0.110 A 
ATOM     13  C   LIG    1        1.029   7.948   0.250  0.00  0.00    -0.020 A 
ATOM     14  F   LIG    1        0.559   9.776  -1.181  0.00  0.00    -0.140 F 
ATOM     15  C   LIG    1        1.387   6.622   0.412  0.00  0.00    +0.070 A 
ENDBRANCH   8   9
ENDBRANCH   5   8
ENDBRANCH   1   2
BRANCH   1  16
ATOM     16  C   LIG    1       -1.354  -0.536   0.467  0.00  0.00    +0.510 C 
ATOM     17  N   LIG    1       -1.477  -1.856   0.711  0.00  0.00    -0.670 N 
ATOM     18  H   LIG    1       -0.780  -2.468   0.429  0.00  0.00    +0.410 HD
ATOM     19  O   LIG    1       -2.266   0.218   0.732  0.00  0.00    -0.510 OA
BRANCH  17  20
ATOM     20  C   LIG    1       -2.611  -2.342   1.370  0.00  0.00    +0.150 A 
ATOM     21  C   LIG    1       -3.233  -1.572   2.344  0.00  0.00    +0.000 A 
ATOM     22  C   LIG    1       -4.357  -2.053   2.989  0.00  0.00    +0.030 A 
ATOM     23  C   LIG    1       -4.854  -3.304   2.675  0.00  0.00    -0.010 A 
ATOM     24  C   LIG    1       -4.233  -4.075   1.709  0.00  0.00    -0.070 A 
ATOM     25  C   LIG    1       -4.779  -5.438   1.370  0.00  0.00    +0.090 C 
ATOM     26  C   LIG    1       -3.114  -3.598   1.056  0.00  0.00    -0.010 A 
ENDBRANCH  17  20
ENDBRANCH   1  16
BRANCH   1  27
ATOM     27  C   LIG    1        0.152  -0.649  -1.500  0.00  0.00    +0.020 C 
BRANCH  27  29
ATOM     28  C   LIG    1        1.738  -0.849  -3.421  0.00  0.00    +0.010 C 
ATOM     29  C   LIG    1        1.504  -0.197  -2.056  0.00  0.00    +0.030 C 
ENDBRANCH  27  29
ENDBRANCH   1  27
TORSDOF 7
