REMARK  Name = ZINCrD00000l6NuO.0
REMARK                            x       y       z     vdW  Elec       q    Type
REMARK                         _______ _______ _______ _____ _____    ______ ____
ROOT
ATOM      1  C   LIG    1       -1.238   3.164   0.031  0.00  0.00    -0.010 A 
ATOM      2  C   LIG    1       -0.031   3.859   0.024  0.00  0.00    +0.030 A 
ATOM      3  C   LIG    1        1.164   3.167   0.009  0.00  0.00    +0.040 A 
ATOM      4  C   LIG    1        1.173   1.782   0.000  0.00  0.00    +0.010 A 
ATOM      5  C   LIG    1       -0.013   1.076   0.008  0.00  0.00    +0.040 A 
ATOM      6  C   LIG    1       -1.229   1.757   0.017  0.00  0.00    -0.120 A 
ENDROOT
BRANCH   1  12
ATOM      7  C   LIG    1       -3.381   3.801   1.159  0.00  0.00    +0.020 A 
ATOM      8  C   LIG    1       -4.587   4.501   1.161  0.00  0.00    +0.060 A 
ATOM      9  C   LIG    1       -4.930   5.286   0.079  0.00  0.00    +0.010 A 
ATOM     10  C   LIG    1       -4.084   5.383  -1.013  0.00  0.00    +0.040 A 
ATOM     11  C   LIG    1       -2.883   4.702  -1.031  0.00  0.00    +0.030 A 
ATOM     12  C   LIG    1       -2.521   3.901   0.049  0.00  0.00    +0.010 A 
BRANCH   7  14
ATOM     13  N   LIG    1       -2.732   2.339   3.168  0.00  0.00    -0.420 NA
ATOM     14  C   LIG    1       -3.019   2.986   2.279  0.00  0.00    +0.260 C 
ENDBRANCH   7  14
ENDBRANCH   1  12
BRANCH   6  15
ATOM     15  C   LIG    1       -2.501   1.006   0.019  0.00  0.00    +0.550 C 
ATOM     16  N   LIG    1       -2.488  -0.342   0.011  0.00  0.00    -0.720 N 
ATOM     17  H   LIG    1       -1.643  -0.818   0.004  0.00  0.00    +0.400 HD
ATOM     18  O   LIG    1       -3.559   1.604   0.027  0.00  0.00    -0.520 OA
BRANCH  16  19
ATOM     19  C   LIG    1       -3.749  -1.086   0.012  0.00  0.00    +0.250 C 
BRANCH  19  20
ATOM     20  C   LIG    1       -3.455  -2.588   0.002  0.00  0.00    +0.270 C 
BRANCH  20  21
ATOM     21  N   LIG    1       -4.717  -3.332   0.003  0.00  0.00    -0.610 N 
ATOM     22  C   LIG    1       -5.338  -3.717   1.282  0.00  0.00    +0.280 C 
ATOM     23  C   LIG    1       -6.585  -2.848   1.494  0.00  0.00    +0.010 C 
ATOM     24  C   LIG    1       -7.796  -3.469   0.823  0.00  0.00    +0.020 C 
ATOM     25  C   LIG    1       -7.714  -3.488  -0.693  0.00  0.00    +0.040 C 
ATOM     26  C   LIG    1       -6.600  -4.426  -1.163  0.00  0.00    +0.050 C 
ATOM     27  C   LIG    1       -5.293  -3.662  -1.153  0.00  0.00    +0.520 C 
ATOM     28  O   LIG    1       -4.768  -3.350  -2.201  0.00  0.00    -0.540 OA
ENDBRANCH  20  21
ENDBRANCH  19  20
ENDBRANCH  16  19
ENDBRANCH   6  15
TORSDOF 6
