REMARK  Name = ZINCzw0000000et0.0
REMARK                            x       y       z     vdW  Elec       q    Type
REMARK                         _______ _______ _______ _____ _____    ______ ____
ROOT
ATOM      1  N   LIG    1        2.653  -5.934  -3.456  0.00  0.00    -0.570 N 
ATOM      2  C   LIG    1        1.708  -6.342  -2.590  0.00  0.00    +0.580 C 
ATOM      3  C   LIG    1        1.753  -5.468  -1.401  0.00  0.00    -0.130 A 
ATOM      4  C   LIG    1        1.038  -5.410  -0.217  0.00  0.00    +0.170 A 
ATOM      5  C   LIG    1        1.337  -4.436   0.726  0.00  0.00    +0.060 A 
ATOM      6  C   LIG    1        2.343  -3.521   0.495  0.00  0.00    +0.090 A 
ATOM      7  C   LIG    1        3.079  -3.563  -0.696  0.00  0.00    +0.120 A 
ATOM      8  F   LIG    1        2.621  -2.579   1.423  0.00  0.00    -0.130 F 
ATOM      9  C   LIG    1        2.782  -4.533  -1.650  0.00  0.00    -0.080 A 
ATOM     10  O   LIG    1        0.945  -7.273  -2.759  0.00  0.00    -0.430 OA
ATOM     11  C   LIG    1        3.329  -4.877  -2.973  0.00  0.00    +0.570 C 
ATOM     12  O   LIG    1        4.237  -4.298  -3.537  0.00  0.00    -0.430 OA
ENDROOT
BRANCH   1  17
ATOM     13  O   LIG    1        6.464  -4.882  -5.792  0.00  0.00    -0.500 OA
ATOM     14  C   LIG    1        5.404  -5.381  -5.480  0.00  0.00    +0.550 C 
ATOM     15  C   LIG    1        5.374  -6.443  -4.412  0.00  0.00    +0.080 C 
ATOM     16  C   LIG    1        4.198  -7.389  -4.677  0.00  0.00    +0.080 C 
ATOM     17  C   LIG    1        2.912  -6.560  -4.755  0.00  0.00    +0.280 C 
ATOM     18  C   LIG    1        3.076  -5.492  -5.805  0.00  0.00    +0.520 C 
ATOM     19  O   LIG    1        2.100  -5.090  -6.401  0.00  0.00    -0.480 OA
ATOM     20  N   LIG    1        4.281  -4.977  -6.092  0.00  0.00    -0.660 N 
ATOM     21  H   LIG    1        4.342  -4.285  -6.769  0.00  0.00    +0.420 HD
ENDBRANCH   1  17
BRANCH   7  22
ATOM     22  N   LIG    1        4.091  -2.643  -0.926  0.00  0.00    -0.640 N 
ATOM     23  H   LIG    1        3.722  -1.705  -0.982  0.00  0.00    +0.350 HD
BRANCH  22  24
ATOM     24  C   LIG    1        5.133  -2.737   0.105  0.00  0.00    +0.230 C 
BRANCH  24  25
ATOM     25  C   LIG    1        6.230  -1.709  -0.182  0.00  0.00    +0.180 C 
ATOM     26  C   LIG    1        7.253  -1.725   0.956  0.00  0.00    +0.070 C 
ATOM     27  C   LIG    1        8.348  -0.695   0.664  0.00  0.00    +0.060 C 
ATOM     28  C   LIG    1        7.704   0.683   0.481  0.00  0.00    +0.050 C 
ATOM     29  C   LIG    1        6.664   0.609  -0.639  0.00  0.00    +0.250 C 
ATOM     30  N   LIG    1        5.631  -0.373  -0.289  0.00  0.00    -0.380 N 
ATOM     31  H   LIG    1        4.920  -0.382  -1.004  0.00  0.00    +0.420 HD
BRANCH  30  32
ATOM     32  C   LIG    1        5.025  -0.006   0.998  0.00  0.00    +0.290 C 
BRANCH  32  33
ATOM     33  C   LIG    1        4.296   1.306   0.854  0.00  0.00    -0.160 A 
ATOM     34  C   LIG    1        2.964   1.319   0.485  0.00  0.00    +0.030 A 
ATOM     35  C   LIG    1        2.298   2.523   0.347  0.00  0.00    +0.030 A 
ATOM     36  C   LIG    1        2.961   3.712   0.588  0.00  0.00    +0.060 A 
ATOM     37  C   LIG    1        4.293   3.698   0.958  0.00  0.00    +0.030 A 
ATOM     38  C   LIG    1        4.960   2.495   1.091  0.00  0.00    +0.030 A 
ENDBRANCH  32  33
ENDBRANCH  30  32
ENDBRANCH  24  25
ENDBRANCH  22  24
ENDBRANCH   7  22
TORSDOF 6
