REMARK  Name = ZINCzw0000000et0.1
REMARK                            x       y       z     vdW  Elec       q    Type
REMARK                         _______ _______ _______ _____ _____    ______ ____
ROOT
ATOM      1  N   LIG    1        0.967   4.467  -1.384  0.00  0.00    -0.570 N 
ATOM      2  C   LIG    1        1.097   3.524  -2.334  0.00  0.00    +0.560 C 
ATOM      3  C   LIG    1        0.983   4.171  -3.656  0.00  0.00    -0.130 A 
ATOM      4  C   LIG    1        1.032   3.716  -4.962  0.00  0.00    +0.160 A 
ATOM      5  C   LIG    1        0.891   4.610  -6.014  0.00  0.00    +0.060 A 
ATOM      6  C   LIG    1        0.702   5.955  -5.771  0.00  0.00    +0.090 A 
ATOM      7  C   LIG    1        0.648   6.436  -4.457  0.00  0.00    +0.120 A 
ATOM      8  F   LIG    1        0.566   6.813  -6.806  0.00  0.00    -0.130 F 
ATOM      9  C   LIG    1        0.789   5.546  -3.396  0.00  0.00    -0.090 A 
ATOM     10  O   LIG    1        1.275   2.338  -2.137  0.00  0.00    -0.430 OA
ATOM     11  C   LIG    1        0.786   5.683  -1.930  0.00  0.00    +0.590 C 
ATOM     12  O   LIG    1        0.644   6.722  -1.315  0.00  0.00    -0.430 OA
ENDROOT
BRANCH   1  17
ATOM     13  O   LIG    1        4.459   2.065   0.384  0.00  0.00    -0.490 OA
ATOM     14  C   LIG    1        3.434   2.704   0.283  0.00  0.00    +0.520 C 
ATOM     15  C   LIG    1        3.510   4.189   0.042  0.00  0.00    +0.090 C 
ATOM     16  C   LIG    1        2.274   4.861   0.649  0.00  0.00    +0.080 C 
ATOM     17  C   LIG    1        1.022   4.206   0.057  0.00  0.00    +0.280 C 
ATOM     18  C   LIG    1        1.081   2.720   0.297  0.00  0.00    +0.530 C 
ATOM     19  O   LIG    1        0.048   2.095   0.409  0.00  0.00    -0.470 OA
ATOM     20  N   LIG    1        2.253   2.075   0.383  0.00  0.00    -0.660 N 
ATOM     21  H   LIG    1        2.248   1.115   0.526  0.00  0.00    +0.420 HD
ENDBRANCH   1  17
BRANCH   7  22
ATOM     22  N   LIG    1        0.457   7.789  -4.214  0.00  0.00    -0.640 N 
ATOM     23  H   LIG    1       -0.294   8.155  -4.780  0.00  0.00    +0.350 HD
BRANCH  22  24
ATOM     24  C   LIG    1        1.698   8.544  -4.433  0.00  0.00    +0.230 C 
BRANCH  24  25
ATOM     25  C   LIG    1        1.484  10.004  -4.030  0.00  0.00    +0.190 C 
ATOM     26  C   LIG    1        1.205  10.083  -2.528  0.00  0.00    +0.080 C 
ATOM     27  C   LIG    1        0.993  11.546  -2.130  0.00  0.00    +0.040 C 
ATOM     28  C   LIG    1       -0.151  12.131  -2.963  0.00  0.00    +0.060 C 
ATOM     29  C   LIG    1        0.178  11.976  -4.450  0.00  0.00    +0.250 C 
ATOM     30  N   LIG    1        0.344  10.554  -4.773  0.00  0.00    -0.380 N 
ATOM     31  H   LIG    1       -0.494  10.053  -4.519  0.00  0.00    +0.420 HD
BRANCH  30  32
ATOM     32  C   LIG    1        0.583  10.407  -6.215  0.00  0.00    +0.300 C 
BRANCH  32  33
ATOM     33  C   LIG    1       -0.621  10.900  -6.976  0.00  0.00    -0.160 A 
ATOM     34  C   LIG    1       -1.693  10.057  -7.196  0.00  0.00    +0.030 A 
ATOM     35  C   LIG    1       -2.799  10.511  -7.890  0.00  0.00    +0.030 A 
ATOM     36  C   LIG    1       -2.828  11.805  -8.374  0.00  0.00    +0.060 A 
ATOM     37  C   LIG    1       -1.752  12.647  -8.159  0.00  0.00    +0.030 A 
ATOM     38  C   LIG    1       -0.649  12.195  -7.460  0.00  0.00    +0.040 A 
ENDBRANCH  32  33
ENDBRANCH  30  32
ENDBRANCH  24  25
ENDBRANCH  22  24
ENDBRANCH   7  22
TORSDOF 6
