REMARK  Name = ZINCvU00000007K1.0
REMARK                            x       y       z     vdW  Elec       q    Type
REMARK                         _______ _______ _______ _____ _____    ______ ____
ROOT
ATOM      1  C   LIG    1        3.662  -4.863  -0.813  0.00  0.00    +0.000 C 
ATOM      2  C   LIG    1        4.937  -4.023  -0.914  0.00  0.00    +0.060 C 
ATOM      3  C   LIG    1        4.926  -2.952   0.181  0.00  0.00    +0.280 C 
ATOM      4  N   LIG    1        3.683  -2.177   0.072  0.00  0.00    -0.610 N 
ATOM      5  C   LIG    1        2.401  -2.894   0.073  0.00  0.00    +0.280 C 
ATOM      6  C   LIG    1        3.717  -0.833  -0.021  0.00  0.00    +0.570 C 
ATOM      7  O   LIG    1        4.784  -0.257  -0.122  0.00  0.00    -0.530 OA
ATOM      8  C   LIG    1        2.440  -3.967  -1.026  0.00  0.00    +0.030 C 
ENDROOT
BRANCH   6   9
ATOM      9  C   LIG    1        2.462  -0.060  -0.002  0.00  0.00    -0.120 A 
ATOM     10  C   LIG    1        1.548  -0.219   1.031  0.00  0.00    +0.050 A 
ATOM     11  C   LIG    1        0.366   0.510   1.048  0.00  0.00    +0.000 A 
ATOM     12  C   LIG    1        0.058   1.400   0.066  0.00  0.00    +0.050 A 
ATOM     13  C   LIG    1        0.936   1.613  -1.010  0.00  0.00    -0.060 A 
ATOM     14  C   LIG    1        0.632   2.527  -2.033  0.00  0.00    +0.030 A 
ATOM     15  C   LIG    1        1.509   2.705  -3.060  0.00  0.00    +0.020 A 
ATOM     16  C   LIG    1        2.704   1.994  -3.114  0.00  0.00    +0.020 A 
ATOM     17  C   LIG    1        3.032   1.099  -2.138  0.00  0.00    +0.030 A 
ATOM     18  C   LIG    1        2.154   0.890  -1.068  0.00  0.00    -0.020 A 
ENDBRANCH   6   9
BRANCH   1  21
ATOM     19  C   LIG    1        1.519  -6.701  -1.053  0.00  0.00    +0.280 C 
ATOM     20  N   LIG    1        2.658  -6.806  -1.968  0.00  0.00    -0.610 N 
ATOM     21  C   LIG    1        3.686  -5.940  -1.867  0.00  0.00    +0.520 C 
ATOM     22  O   LIG    1        4.629  -6.027  -2.624  0.00  0.00    -0.530 OA
BRANCH  20  23
ATOM     23  C   LIG    1        2.681  -7.853  -2.993  0.00  0.00    +0.350 C 
BRANCH  23  24
ATOM     24  C   LIG    1        3.464  -9.036  -2.486  0.00  0.00    -0.090 A 
ATOM     25  C   LIG    1        4.803  -9.166  -2.803  0.00  0.00    +0.070 A 
ATOM     26  C   LIG    1        5.524 -10.249  -2.333  0.00  0.00    +0.040 A 
ATOM     27  C   LIG    1        4.903 -11.208  -1.555  0.00  0.00    +0.050 A 
ATOM     28  C   LIG    1        3.562 -11.082  -1.241  0.00  0.00    -0.030 A 
ATOM     29 CL   LIG    1        2.782 -12.287  -0.264  0.00  0.00    -0.050 Cl
ATOM     30  C   LIG    1        2.841  -9.995  -1.707  0.00  0.00    -0.020 A 
ATOM     31 CL   LIG    1        1.158  -9.836  -1.314  0.00  0.00    -0.040 Cl
ENDBRANCH  23  24
ENDBRANCH  20  23
ENDBRANCH   1  21
TORSDOF 4
