REMARK  Name = ZINCqH0000032eEj.0
REMARK                            x       y       z     vdW  Elec       q    Type
REMARK                         _______ _______ _______ _____ _____    ______ ____
ROOT
ATOM      1  C   LIG    1        1.091  -6.745  -2.771  0.00  0.00    +0.510 C 
ATOM      2  N   LIG    1        1.144  -8.064  -3.043  0.00  0.00    -0.680 N 
ATOM      3  H   LIG    1        0.793  -8.706  -2.406  0.00  0.00    +0.420 HD
ATOM      4  O   LIG    1        1.605  -5.948  -3.527  0.00  0.00    -0.500 OA
ENDROOT
BRANCH   2   5
ATOM      5  C   LIG    1        1.707  -8.508  -4.246  0.00  0.00    +0.180 A 
ATOM      6  C   LIG    1        1.187  -9.625  -4.885  0.00  0.00    +0.020 A 
ATOM      7  C   LIG    1        1.737 -10.060  -6.074  0.00  0.00    +0.070 A 
ATOM      8  C   LIG    1        2.819  -9.388  -6.626  0.00  0.00    +0.100 A 
ATOM      9  C   LIG    1        3.345  -8.272  -5.983  0.00  0.00    +0.130 A 
ATOM     10  F   LIG    1        4.398  -7.617  -6.520  0.00  0.00    -0.110 F 
ATOM     11  C   LIG    1        2.790  -7.834  -4.796  0.00  0.00    +0.020 A 
BRANCH   8  12
ATOM     12  N   LIG    1        3.382  -9.834  -7.832  0.00  0.00    -0.330 N 
ATOM     13  C   LIG    1        2.989 -10.895  -8.563  0.00  0.00    +0.480 A 
ATOM     14  N   LIG    1        3.765 -10.972  -9.614  0.00  0.00    -0.530 NA
ATOM     15  C   LIG    1        4.665  -9.990  -9.585  0.00  0.00    +0.440 A 
ATOM     16  N   LIG    1        4.471  -9.267  -8.513  0.00  0.00    -0.300 NA
ENDBRANCH   8  12
ENDBRANCH   2   5
BRANCH   1  17
ATOM     17  C   LIG    1        0.393  -6.261  -1.526  0.00  0.00    +0.120 C 
BRANCH  17  21
ATOM     18  C   LIG    1        0.627  -2.000  -1.330  0.00  0.00    -0.070 A 
ATOM     19  C   LIG    1        1.619  -2.774  -0.757  0.00  0.00    +0.010 A 
ATOM     20  C   LIG    1        1.540  -4.153  -0.816  0.00  0.00    +0.020 A 
ATOM     21  C   LIG    1        0.475  -4.758  -1.456  0.00  0.00    -0.080 A 
ATOM     22  C   LIG    1       -0.514  -3.984  -2.034  0.00  0.00    +0.020 A 
ATOM     23  C   LIG    1       -0.439  -2.605  -1.970  0.00  0.00    +0.000 A 
BRANCH  18  24
ATOM     24  C   LIG    1        0.709  -0.497  -1.261  0.00  0.00    +0.060 C 
BRANCH  24  26
ATOM     25  C   LIG    1       -0.024   1.525   0.009  0.00  0.00    +0.020 C 
ATOM     26  C   LIG    1        0.001  -0.004   0.002  0.00  0.00    -0.020 C 
ATOM     27  C   LIG    1        0.751  -0.508   1.237  0.00  0.00    +0.010 C 
ENDBRANCH  24  26
ENDBRANCH  18  24
ENDBRANCH  17  21
ENDBRANCH   1  17
TORSDOF 6
