REMARK  Name = ZINCrD0000074d12.0
REMARK                            x       y       z     vdW  Elec       q    Type
REMARK                         _______ _______ _______ _____ _____    ______ ____
ROOT
ATOM      1  C   LIG    1       -0.035   1.093   0.012  0.00  0.00    +0.090 C 
ATOM      2  C   LIG    1       -0.744   1.581   1.277  0.00  0.00    +0.200 C 
ENDROOT
BRANCH   2   3
ATOM      3  C   LIG    1       -0.005   1.081   2.492  0.00  0.00    +0.520 C 
ATOM      4  N   LIG    1        0.056  -0.242   2.745  0.00  0.00    -0.670 N 
ATOM      5  H   LIG    1       -0.429  -0.866   2.184  0.00  0.00    +0.420 HD
ATOM      6  O   LIG    1        0.534   1.868   3.241  0.00  0.00    -0.480 OA
BRANCH   4   7
ATOM      7  C   LIG    1        0.820  -0.713   3.820  0.00  0.00    +0.210 A 
ATOM      8  C   LIG    1        0.915   0.033   4.986  0.00  0.00    +0.060 A 
ATOM      9  C   LIG    1        1.665  -0.438   6.047  0.00  0.00    +0.140 A 
ATOM     10  C   LIG    1        2.330  -1.646   5.943  0.00  0.00    -0.050 A 
ATOM     11  C   LIG    1        2.243  -2.389   4.780  0.00  0.00    +0.150 A 
ATOM     12  C   LIG    1        1.490  -1.927   3.718  0.00  0.00    -0.070 A 
ATOM     13 CL   LIG    1        1.381  -2.860   2.258  0.00  0.00    -0.030 Cl
BRANCH  10  14
ATOM     14  N   LIG    1        3.138  -2.144   7.079  0.00  0.00    +0.030 N 
ATOM     15  O   LIG    1        3.215  -1.490   8.104  0.00  0.00    -0.150 OA
ATOM     16  O   LIG    1        3.725  -3.207   6.989  0.00  0.00    -0.150 OA
ENDBRANCH  10  14
ENDBRANCH   4   7
ENDBRANCH   2   3
BRANCH   2  17
ATOM     17  O   LIG    1       -0.767   3.033   1.289  0.00  0.00    -0.310 OA
BRANCH  17  18
ATOM     18  C   LIG    1       -1.827   3.633   0.711  0.00  0.00    +0.560 C 
ATOM     19  O   LIG    1       -2.707   2.961   0.210  0.00  0.00    -0.490 OA
BRANCH  18  20
ATOM     20  C   LIG    1       -1.918   5.102   0.685  0.00  0.00    +0.000 A 
ATOM     21  N   LIG    1       -1.047   5.955   1.183  0.00  0.00    -0.160 NA
ATOM     22  N   LIG    1       -1.411   7.173   1.001  0.00  0.00    -0.400 N 
ATOM     23  H   LIG    1       -0.903   7.945   1.295  0.00  0.00    +0.450 HD
ATOM     24  C   LIG    1       -2.608   7.240   0.337  0.00  0.00    +0.060 A 
ATOM     25  C   LIG    1       -3.427   8.276  -0.100  0.00  0.00    +0.020 A 
ATOM     26  C   LIG    1       -4.602   7.985  -0.758  0.00  0.00    +0.060 A 
ATOM     27  C   LIG    1       -4.979   6.669  -0.989  0.00  0.00    +0.000 A 
ATOM     28  C   LIG    1       -4.189   5.636  -0.567  0.00  0.00    +0.090 A 
ATOM     29  C   LIG    1       -2.995   5.908   0.094  0.00  0.00    -0.100 A 
ENDBRANCH  18  20
ENDBRANCH  17  18
ENDBRANCH   2  17
TORSDOF 6
