REMARK  Name = ZINCrH000004nXEc.0
REMARK                            x       y       z     vdW  Elec       q    Type
REMARK                         _______ _______ _______ _____ _____    ______ ____
ROOT
ATOM      1  C   LIG    1        0.072  -2.315   3.748  0.00  0.00    +0.010 C 
ATOM      2  C   LIG    1       -1.190  -2.158   2.898  0.00  0.00    +0.060 C 
ATOM      3  C   LIG    1       -1.224  -0.749   2.297  0.00  0.00    +0.290 C 
ATOM      4  N   LIG    1        0.029  -0.516   1.566  0.00  0.00    -1.000 NA
ATOM      5  C   LIG    1        1.304  -0.733   2.263  0.00  0.00    +0.300 C 
ATOM      6  C   LIG    1        1.310  -2.136   2.865  0.00  0.00    +0.030 C 
ENDROOT
BRANCH   1   9
ATOM      7  N   LIG    1        1.117  -4.054   5.164  0.00  0.00    -0.670 N 
ATOM      8  H   LIG    1        1.874  -3.460   5.284  0.00  0.00    +0.410 HD
ATOM      9  C   LIG    1        0.092  -3.689   4.368  0.00  0.00    +0.520 C 
ATOM     10  O   LIG    1       -0.814  -4.465   4.151  0.00  0.00    -0.510 OA
BRANCH   7  15
ATOM     11  C   LIG    1        0.491  -7.618   5.845  0.00  0.00    -0.070 A 
ATOM     12  C   LIG    1        1.040  -7.739   7.117  0.00  0.00    -0.020 A 
ATOM     13  C   LIG    1        1.608  -6.642   7.733  0.00  0.00    +0.050 A 
ATOM     14  C   LIG    1        1.640  -5.421   7.085  0.00  0.00    -0.020 A 
ATOM     15  C   LIG    1        1.089  -5.292   5.816  0.00  0.00    +0.160 A 
ATOM     16  C   LIG    1        0.517  -6.392   5.194  0.00  0.00    +0.050 A 
BRANCH  11  18
ATOM     17  C   LIG    1       -0.018 -10.334   6.290  0.00  0.00    +0.120 C 
ATOM     18  S   LIG    1       -0.234  -9.019   5.060  0.00  0.00    -0.110 S 
ENDBRANCH  11  18
ENDBRANCH   7  15
ENDBRANCH   1   9
BRANCH   4  19
ATOM     19  S   LIG    1        0.004  -0.025  -0.015  0.00  0.00    +2.690 S 
ATOM     20  O   LIG    1        1.250  -0.416  -0.576  0.00  0.00    -0.950 OA
ATOM     21  O   LIG    1       -1.249  -0.438  -0.544  0.00  0.00    -0.950 OA
BRANCH  19  22
ATOM     22  C   LIG    1       -0.011   1.736  -0.015  0.00  0.00    -0.680 A 
ATOM     23  C   LIG    1       -1.214   2.417  -0.005  0.00  0.00    +0.120 A 
ATOM     24  C   LIG    1       -1.226   3.800   0.001  0.00  0.00    -0.010 A 
ATOM     25  C   LIG    1       -0.035   4.501  -0.014  0.00  0.00    -0.030 A 
ATOM     26  C   LIG    1        1.168   3.820  -0.030  0.00  0.00    -0.010 A 
ATOM     27  C   LIG    1       -0.048   6.008  -0.015  0.00  0.00    +0.090 C 
ATOM     28  C   LIG    1        1.180   2.438  -0.030  0.00  0.00    +0.120 A 
ENDBRANCH  19  22
ENDBRANCH   4  19
TORSDOF 5
