REMARK  Name = ZINCtV00000L6kyy.0
REMARK                            x       y       z     vdW  Elec       q    Type
REMARK                         _______ _______ _______ _____ _____    ______ ____
ROOT
ATOM      1  C   LIG    1        1.368   2.048  -0.080  0.00  0.00    +0.110 A 
ATOM      2  C   LIG    1        0.236   1.343   0.312  0.00  0.00    +0.010 A 
ATOM      3  C   LIG    1       -0.997   1.955   0.303  0.00  0.00    +0.090 A 
ATOM      4  C   LIG    1       -1.108   3.292  -0.091  0.00  0.00    -0.150 A 
ATOM      5  C   LIG    1        0.032   3.998  -0.485  0.00  0.00    +0.080 A 
ATOM      6  C   LIG    1        1.261   3.376  -0.477  0.00  0.00    +0.020 A 
ENDROOT
BRANCH   4   7
ATOM      7  C   LIG    1       -2.427   3.954  -0.096  0.00  0.00    +0.440 C 
ATOM      8  O   LIG    1       -3.429   3.312  -0.347  0.00  0.00    -0.440 OA
BRANCH   7   9
ATOM      9  C   LIG    1       -2.530   5.396   0.203  0.00  0.00    -0.180 A 
ATOM     10  C   LIG    1       -1.410   6.101   0.650  0.00  0.00    +0.100 A 
ATOM     11  C   LIG    1       -1.511   7.448   0.924  0.00  0.00    -0.020 A 
ATOM     12  C   LIG    1       -2.724   8.102   0.765  0.00  0.00    +0.130 A 
ATOM     13  C   LIG    1       -3.840   7.405   0.327  0.00  0.00    -0.010 A 
ATOM     14  F   LIG    1       -2.818   9.421   1.039  0.00  0.00    -0.130 F 
ATOM     15  C   LIG    1       -3.750   6.059   0.045  0.00  0.00    +0.120 A 
ENDBRANCH   7   9
ENDBRANCH   4   7
BRANCH   1  16
ATOM     16  O   LIG    1        2.581   1.439  -0.075  0.00  0.00    -0.290 OA
BRANCH  16  18
ATOM     17  O   LIG    1        2.033   0.437  -1.967  0.00  0.00    -0.460 OA
ATOM     18  C   LIG    1        2.841   0.589  -1.081  0.00  0.00    +0.480 C 
BRANCH  18  19
ATOM     19  C   LIG    1        4.139  -0.175  -1.106  0.00  0.00    +0.150 C 
BRANCH  19  20
ATOM     20  S   LIG    1        4.191  -1.231  -2.580  0.00  0.00    -0.160 S 
BRANCH  20  21
ATOM     21  C   LIG    1        5.801  -2.056  -2.435  0.00  0.00    +0.130 C 
BRANCH  21  22
ATOM     22  C   LIG    1        5.997  -2.984  -3.606  0.00  0.00    -0.060 A 
ATOM     23  C   LIG    1        5.581  -4.299  -3.522  0.00  0.00    +0.060 A 
ATOM     24  C   LIG    1        5.756  -5.150  -4.598  0.00  0.00    +0.050 A 
ATOM     25  C   LIG    1        6.357  -4.688  -5.755  0.00  0.00    -0.030 A 
ATOM     26  C   LIG    1        6.779  -3.371  -5.837  0.00  0.00    -0.030 A 
ATOM     27 CL   LIG    1        7.534  -2.790  -7.288  0.00  0.00    -0.040 Cl
ATOM     28 CL   LIG    1        6.583  -5.758  -7.103  0.00  0.00    -0.040 Cl
ATOM     29  C   LIG    1        6.599  -2.520  -4.761  0.00  0.00    +0.070 A 
ENDBRANCH  21  22
ENDBRANCH  20  21
ENDBRANCH  19  20
ENDBRANCH  18  19
ENDBRANCH  16  18
ENDBRANCH   1  16
TORSDOF 8
