REMARK  Name = ZINCrg000000tMxO.0
REMARK                            x       y       z     vdW  Elec       q    Type
REMARK                         _______ _______ _______ _____ _____    ______ ____
ROOT
ATOM      1  C   LIG    1        1.317  -0.740  -0.014  0.00  0.00    +0.240 C 
ATOM      2  C   LIG    1        2.123  -0.403   1.259  0.00  0.00    +0.050 C 
ATOM      3  C   LIG    1        2.780  -1.760   1.623  0.00  0.00    +0.040 C 
ATOM      4  C   LIG    1        1.673  -2.762   1.214  0.00  0.00    +0.280 C 
ATOM      5  N   LIG    1        1.079  -2.191  -0.012  0.00  0.00    -0.990 NA
ENDROOT
BRANCH   1   7
ATOM      6  O   LIG    1       -1.040  -0.625   0.008  0.00  0.00    -0.500 OA
ATOM      7  C   LIG    1        0.002  -0.004   0.002  0.00  0.00    +0.520 C 
ATOM      8  N   LIG    1       -0.016   1.344   0.009  0.00  0.00    -0.610 N 
ATOM      9  C   LIG    1        1.167   2.217   0.003  0.00  0.00    +0.250 C 
ATOM     10  C   LIG    1        0.661   3.674   0.042  0.00  0.00    +0.040 C 
ATOM     11  C   LIG    1       -0.764   3.531   0.639  0.00  0.00    +0.260 C 
ATOM     12  C   LIG    1       -1.226   2.186   0.019  0.00  0.00    +0.270 C 
BRANCH  11  13
ATOM     13  N   LIG    1       -1.628   4.632   0.205  0.00  0.00    -0.610 N 
ATOM     14  C   LIG    1       -2.310   5.559   1.116  0.00  0.00    +0.250 C 
ATOM     15  C   LIG    1       -2.718   6.768   0.242  0.00  0.00    +0.040 C 
ATOM     16  C   LIG    1       -2.817   6.122  -1.159  0.00  0.00    +0.050 C 
ATOM     17  C   LIG    1       -1.903   4.919  -1.079  0.00  0.00    +0.520 C 
ATOM     18  O   LIG    1       -1.480   4.304  -2.035  0.00  0.00    -0.520 OA
ENDBRANCH  11  13
ENDBRANCH   1   7
BRANCH   5  19
ATOM     19  S   LIG    1        0.277  -3.038  -1.187  0.00  0.00    +2.710 S 
ATOM     20  O   LIG    1       -0.572  -2.107  -1.845  0.00  0.00    -0.930 OA
ATOM     21  O   LIG    1       -0.203  -4.225  -0.569  0.00  0.00    -0.950 OA
BRANCH  19  22
ATOM     22  C   LIG    1        1.476  -3.545  -2.374  0.00  0.00    -0.680 A 
ATOM     23  C   LIG    1        1.765  -2.732  -3.455  0.00  0.00    +0.120 A 
ATOM     24  C   LIG    1        2.709  -3.128  -4.384  0.00  0.00    -0.010 A 
ATOM     25  C   LIG    1        3.356  -4.341  -4.239  0.00  0.00    +0.070 A 
ATOM     26  C   LIG    1        3.063  -5.156  -3.161  0.00  0.00    -0.010 A 
ATOM     27  C   LIG    1        2.123  -4.758  -2.229  0.00  0.00    +0.120 A 
ENDBRANCH  19  22
ENDBRANCH   5  19
TORSDOF 4
