REMARK  Name = ZINCqH0000004eUZ.0
REMARK                            x       y       z     vdW  Elec       q    Type
REMARK                         _______ _______ _______ _____ _____    ______ ____
ROOT
ATOM      1  C   LIG    1       -3.915   1.056   3.671  0.00  0.00    +0.170 A 
ATOM      2  N   LIG    1       -3.532   0.796   4.901  0.00  0.00    -0.490 NA
ATOM      3  C   LIG    1       -2.386   1.438   5.160  0.00  0.00    +0.180 A 
ATOM      4  C   LIG    1       -2.025   2.129   4.047  0.00  0.00    +0.040 A 
ATOM      5  N   LIG    1       -2.998   1.882   3.095  0.00  0.00    -0.430 N 
ENDROOT
BRANCH   4   6
ATOM      6  C   LIG    1       -0.825   2.977   3.885  0.00  0.00    +0.000 A 
ATOM      7  C   LIG    1        0.357   2.654   4.553  0.00  0.00    +0.020 A 
ATOM      8  C   LIG    1        1.475   3.447   4.393  0.00  0.00    +0.010 A 
ATOM      9  C   LIG    1        1.422   4.566   3.581  0.00  0.00    +0.000 A 
ATOM     10  C   LIG    1        0.252   4.895   2.920  0.00  0.00    +0.010 A 
ATOM     11  C   LIG    1       -0.872   4.107   3.067  0.00  0.00    +0.010 A 
ENDBRANCH   4   6
BRANCH   1  12
ATOM     12  S   LIG    1       -5.370   0.435   2.895  0.00  0.00    +0.050 S 
BRANCH  12  13
ATOM     13  C   LIG    1       -6.050  -0.555   4.248  0.00  0.00    +0.120 C 
BRANCH  13  16
ATOM     14  N   LIG    1       -8.023  -1.991   4.649  0.00  0.00    -0.720 N 
ATOM     15  H   LIG    1       -7.691  -2.144   5.547  0.00  0.00    +0.400 HD
ATOM     16  C   LIG    1       -7.335  -1.202   3.801  0.00  0.00    +0.530 C 
ATOM     17  O   LIG    1       -7.751  -1.011   2.678  0.00  0.00    -0.520 OA
BRANCH  14  18
ATOM     18  C   LIG    1       -9.274  -2.619   4.214  0.00  0.00    +0.230 C 
ATOM     19  C   LIG    1       -8.960  -3.927   3.483  0.00  0.00    +0.020 C 
BRANCH  18  21
ATOM     20  C   LIG    1      -10.564  -1.598   6.094  0.00  0.00    +0.020 C 
ATOM     21  C   LIG    1      -10.148  -2.914   5.435  0.00  0.00    +0.020 C 
ENDBRANCH  18  21
ENDBRANCH  14  18
ENDBRANCH  13  16
ENDBRANCH  12  13
ENDBRANCH   1  12
BRANCH   5  22
ATOM     22  C   LIG    1       -3.039   2.413   1.730  0.00  0.00    +0.320 C 
BRANCH  22  23
ATOM     23  C   LIG    1       -2.192   1.528   0.813  0.00  0.00    +0.140 C 
ATOM     24  C   LIG    1       -2.320   1.996  -0.654  0.00  0.00    +0.010 C 
ATOM     25  C   LIG    1       -0.904   1.792  -1.238  0.00  0.00    +0.010 C 
ATOM     26  C   LIG    1       -0.089   1.225  -0.055  0.00  0.00    +0.190 C 
ATOM     27  O   LIG    1       -0.787   1.673   1.127  0.00  0.00    -0.350 OA
ENDBRANCH  22  23
ENDBRANCH   5  22
TORSDOF 8
