REMARK  Name = ZINCpe000000WgSi.0
REMARK                            x       y       z     vdW  Elec       q    Type
REMARK                         _______ _______ _______ _____ _____    ______ ____
ROOT
ATOM      1  C   LIG    1        3.660   1.996  -0.023  0.00  0.00    +0.150 A 
ATOM      2  C   LIG    1        2.474   1.286  -0.015  0.00  0.00    -0.020 A 
ATOM      3  C   LIG    1        1.254   1.967   0.001  0.00  0.00    -0.060 A 
ATOM      4  C   LIG    1        1.236   3.364   0.003  0.00  0.00    -0.060 A 
ATOM      5  C   LIG    1        2.425   4.069  -0.001  0.00  0.00    +0.150 A 
ATOM      6  C   LIG    1        3.639   3.388  -0.016  0.00  0.00    +0.050 A 
ENDROOT
BRANCH   3   7
ATOM      7  C   LIG    1       -0.014   1.212   0.009  0.00  0.00    +0.560 C 
ATOM      8  N   LIG    1       -1.191   1.870   0.018  0.00  0.00    -0.720 N 
ATOM      9  H   LIG    1       -1.204   2.840   0.023  0.00  0.00    +0.400 HD
ATOM     10  O   LIG    1        0.002  -0.004   0.002  0.00  0.00    -0.520 OA
BRANCH   8  11
ATOM     11  C   LIG    1       -2.449   1.120   0.020  0.00  0.00    +0.340 C 
BRANCH  11  12
ATOM     12  C   LIG    1       -3.608   2.084   0.030  0.00  0.00    -0.070 A 
ATOM     13  C   LIG    1       -4.152   2.526   1.227  0.00  0.00    -0.010 A 
ATOM     14  C   LIG    1       -5.211   3.413   1.197  0.00  0.00    +0.260 A 
ATOM     15  N   LIG    1       -5.710   3.830   0.050  0.00  0.00    -0.480 NA
ATOM     16  C   LIG    1       -5.221   3.427  -1.106  0.00  0.00    +0.260 A 
ATOM     17  C   LIG    1       -4.159   2.544  -1.155  0.00  0.00    -0.010 A 
ENDBRANCH  11  12
ENDBRANCH   8  11
ENDBRANCH   3   7
BRANCH   1  19
ATOM     18  C   LIG    1        4.794  -0.094  -0.044  0.00  0.00    +0.250 C 
ATOM     19  O   LIG    1        4.848   1.334  -0.037  0.00  0.00    -0.300 OA
ENDBRANCH   1  19
BRANCH   5  20
ATOM     20  O   LIG    1        2.409   5.429   0.005  0.00  0.00    -0.300 OA
ATOM     21  C   LIG    1        1.128   6.062   0.020  0.00  0.00    +0.250 C 
ENDBRANCH   5  20
BRANCH   6  22
ATOM     22  O   LIG    1        4.807   4.083  -0.024  0.00  0.00    -0.280 OA
BRANCH  22  23
ATOM     23  C   LIG    1        5.352   4.421  -1.301  0.00  0.00    +0.220 C 
BRANCH  23  24
ATOM     24  C   LIG    1        6.637   5.185  -1.113  0.00  0.00    +0.520 C 
ATOM     25  O   LIG    1        7.047   5.417   0.005  0.00  0.00    -0.520 OA
ATOM     26  N   LIG    1        7.332   5.610  -2.187  0.00  0.00    -0.850 N 
ATOM     27  H   LIG    1        8.159   6.102  -2.066  0.00  0.00    +0.410 HD
ATOM     28  H   LIG    1        7.005   5.425  -3.081  0.00  0.00    +0.400 HD
ENDBRANCH  23  24
ENDBRANCH  22  23
ENDBRANCH   6  22
TORSDOF 8
