REMARK  Name = ZINCkj000005fAAW.0
REMARK                            x       y       z     vdW  Elec       q    Type
REMARK                         _______ _______ _______ _____ _____    ______ ____
ROOT
ATOM      1  N   LIG    1       -0.101   6.501  -1.544  0.00  0.00    -1.130 NA
ATOM      2  H   LIG    1        0.650   6.996  -1.906  0.00  0.00    +0.420 HD
ENDROOT
BRANCH   1   3
ATOM      3  S   LIG    1       -0.079   6.002   0.035  0.00  0.00    +2.700 S 
ATOM      4  O   LIG    1        1.170   6.417   0.571  0.00  0.00    -0.930 OA
ATOM      5  O   LIG    1       -1.329   6.383   0.594  0.00  0.00    -0.920 OA
BRANCH   3   6
ATOM      6  C   LIG    1       -0.056   4.240   0.025  0.00  0.00    -0.650 A 
ATOM      7  C   LIG    1        1.151   3.566   0.010  0.00  0.00    +0.150 A 
ATOM      8  C   LIG    1        1.170   2.183   0.003  0.00  0.00    +0.100 A 
ATOM      9  C   LIG    1       -0.018   1.476   0.010  0.00  0.00    +0.020 A 
ATOM     10  C   LIG    1       -1.224   2.151   0.019  0.00  0.00    +0.100 A 
ATOM     11  C   LIG    1       -1.243   3.533   0.033  0.00  0.00    +0.150 A 
BRANCH   9  12
ATOM     12  N   LIG    1        0.002  -0.004   0.002  0.00  0.00    +0.010 N 
ATOM     13  O   LIG    1       -1.044  -0.627   0.009  0.00  0.00    -0.130 OA
ATOM     14  O   LIG    1        1.065  -0.599  -0.011  0.00  0.00    -0.130 OA
ENDBRANCH   9  12
ENDBRANCH   3   6
ENDBRANCH   1   3
BRANCH   1  15
ATOM     15  C   LIG    1       -1.255   6.195  -2.393  0.00  0.00    +0.320 C 
BRANCH  15  16
ATOM     16  C   LIG    1       -1.205   7.062  -3.652  0.00  0.00    +0.060 C 
BRANCH  16  17
ATOM     17  N   LIG    1        0.034   6.783  -4.391  0.00  0.00    -0.640 N 
ATOM     18  H   LIG    1        0.829   6.994  -3.805  0.00  0.00    +0.430 HD
ATOM     19  H   LIG    1        0.067   7.355  -5.221  0.00  0.00    +0.440 HD
ATOM     20  H   LIG    1        0.058   5.809  -4.652  0.00  0.00    +0.440 HD
ENDBRANCH  16  17
BRANCH  16  22
ATOM     21  C   LIG    1       -2.295   7.517  -5.854  0.00  0.00    +0.040 C 
ATOM     22  C   LIG    1       -2.410   6.743  -4.540  0.00  0.00    +0.070 C 
ENDBRANCH  16  22
BRANCH  16  23
ATOM     23  C   LIG    1       -1.241   8.540  -3.257  0.00  0.00    +0.050 C 
ATOM     24  C   LIG    1       -2.531   8.831  -2.488  0.00  0.00    +0.050 C 
ENDBRANCH  16  23
ENDBRANCH  15  16
ENDBRANCH   1  15
TORSDOF 8
