REMARK  Name = ZINCrH000004rSgm.0
REMARK                            x       y       z     vdW  Elec       q    Type
REMARK                         _______ _______ _______ _____ _____    ______ ____
ROOT
ATOM      1  C   LIG    1        0.587   6.450   1.221  0.00  0.00    +0.250 C 
ATOM      2  C   LIG    1       -0.640   6.387   0.287  0.00  0.00    +0.050 C 
ATOM      3  C   LIG    1       -0.356   7.518  -0.736  0.00  0.00    +0.040 C 
ATOM      4  C   LIG    1        1.184   7.429  -0.879  0.00  0.00    +0.270 C 
ATOM      5  N   LIG    1        1.670   7.107   0.475  0.00  0.00    -0.990 NA
ENDROOT
BRANCH   1   8
ATOM      6  N   LIG    1        0.500   4.489   2.725  0.00  0.00    -0.670 N 
ATOM      7  H   LIG    1       -0.176   4.953   3.243  0.00  0.00    +0.410 HD
ATOM      8  C   LIG    1        1.006   5.056   1.612  0.00  0.00    +0.490 C 
ATOM      9  O   LIG    1        1.797   4.446   0.926  0.00  0.00    -0.490 OA
BRANCH   6  15
ATOM     10  C   LIG    1        1.615   1.366   6.356  0.00  0.00    +0.090 C 
ATOM     11  C   LIG    1        1.502   1.688   4.888  0.00  0.00    -0.070 A 
ATOM     12  C   LIG    1        1.845   0.738   3.944  0.00  0.00    -0.010 A 
ATOM     13  C   LIG    1        1.737   1.028   2.596  0.00  0.00    +0.020 A 
ATOM     14  C   LIG    1        1.292   2.271   2.189  0.00  0.00    +0.020 A 
ATOM     15  C   LIG    1        0.952   3.229   3.135  0.00  0.00    +0.150 A 
ATOM     16  C   LIG    1        1.060   2.934   4.487  0.00  0.00    -0.010 A 
ENDBRANCH   6  15
ENDBRANCH   1   8
BRANCH   5  17
ATOM     17  S   LIG    1        3.186   7.430   1.058  0.00  0.00    +2.700 S 
ATOM     18  O   LIG    1        3.070   7.478   2.473  0.00  0.00    -0.950 OA
ATOM     19  O   LIG    1        3.693   8.508   0.283  0.00  0.00    -0.950 OA
BRANCH  17  20
ATOM     20  C   LIG    1        4.196   6.034   0.688  0.00  0.00    -0.670 A 
ATOM     21  C   LIG    1        4.472   5.101   1.671  0.00  0.00    +0.050 A 
ATOM     22  C   LIG    1        5.260   4.003   1.380  0.00  0.00    -0.030 A 
ATOM     23  C   LIG    1        5.780   3.843   0.109  0.00  0.00    -0.020 A 
ATOM     24  C   LIG    1        5.509   4.779  -0.872  0.00  0.00    -0.020 A 
ATOM     25  C   LIG    1        6.643   2.649  -0.207  0.00  0.00    +0.100 C 
ATOM     26  C   LIG    1        3.909   5.278   3.057  0.00  0.00    +0.100 C 
ATOM     27  C   LIG    1        4.716   5.874  -0.582  0.00  0.00    +0.030 A 
ATOM     28  C   LIG    1        4.421   6.894  -1.651  0.00  0.00    +0.110 C 
ENDBRANCH  17  20
ENDBRANCH   5  17
TORSDOF 4
