REMARK  Name = ZINCpe000000Szop.0
REMARK                            x       y       z     vdW  Elec       q    Type
REMARK                         _______ _______ _______ _____ _____    ______ ____
ROOT
ATOM      1  C   LIG    1        0.016   1.475   0.033  0.00  0.00    +0.520 C 
ATOM      2  N   LIG    1        1.180   2.156   0.029  0.00  0.00    -0.620 N 
ATOM      3  C   LIG    1        2.468   1.447   0.014  0.00  0.00    +0.280 C 
ATOM      4  C   LIG    1        3.322   2.023  -1.127  0.00  0.00    +0.190 C 
ATOM      5  N   LIG    1        3.417   3.481  -0.972  0.00  0.00    -0.490 N 
ATOM      6  C   LIG    1        2.099   4.117  -1.091  0.00  0.00    +0.190 C 
ATOM      7  C   LIG    1        1.194   3.626   0.044  0.00  0.00    +0.300 C 
ATOM      8  O   LIG    1       -1.038   2.076   0.044  0.00  0.00    -0.520 OA
ENDROOT
BRANCH   5   9
ATOM      9  C   LIG    1        4.320   4.024  -1.890  0.00  0.00    +0.110 A 
ATOM     10  C   LIG    1        3.911   5.031  -2.755  0.00  0.00    -0.050 A 
ATOM     11  C   LIG    1        4.806   5.566  -3.661  0.00  0.00    +0.030 A 
ATOM     12  C   LIG    1        6.107   5.100  -3.707  0.00  0.00    -0.030 A 
ATOM     13  C   LIG    1        6.517   4.097  -2.847  0.00  0.00    -0.060 A 
ATOM     14  C   LIG    1        7.936   3.593  -2.901  0.00  0.00    +0.090 C 
ATOM     15  C   LIG    1        5.629   3.562  -1.935  0.00  0.00    -0.020 A 
ENDBRANCH   5   9
BRANCH   1  16
ATOM     16  C   LIG    1        0.024  -0.032   0.016  0.00  0.00    +0.220 C 
BRANCH  16  22
ATOM     17  C   LIG    1       -5.068  -2.385   2.744  0.00  0.00    +0.100 C 
ATOM     18  C   LIG    1       -4.383  -2.837   1.480  0.00  0.00    +0.510 C 
ATOM     19  N   LIG    1       -3.615  -1.975   0.784  0.00  0.00    -0.620 N 
ATOM     20  C   LIG    1       -2.855  -2.421  -0.393  0.00  0.00    +0.300 C 
ATOM     21  C   LIG    1       -1.399  -1.975  -0.230  0.00  0.00    +0.170 C 
ATOM     22  N   LIG    1       -1.358  -0.529   0.024  0.00  0.00    -0.520 NA
ATOM     23  C   LIG    1       -2.032  -0.190   1.284  0.00  0.00    +0.190 C 
ATOM     24  C   LIG    1       -3.515  -0.562   1.183  0.00  0.00    +0.290 C 
ATOM     25  O   LIG    1       -4.524  -3.976   1.088  0.00  0.00    -0.550 OA
ENDBRANCH  16  22
ENDBRANCH   1  16
TORSDOF 3
