REMARK  Name = ZINCrD000000BwXV.0
REMARK                            x       y       z     vdW  Elec       q    Type
REMARK                         _______ _______ _______ _____ _____    ______ ____
ROOT
ATOM      1  O   LIG    1       -3.052   8.649  -3.065  0.00  0.00    -0.530 OA
ATOM      2  C   LIG    1       -3.752   7.850  -2.479  0.00  0.00    +0.530 C 
ATOM      3  N   LIG    1       -3.207   6.736  -1.953  0.00  0.00    -0.730 N 
ATOM      4  H   LIG    1       -3.767   6.097  -1.484  0.00  0.00    +0.400 HD
ENDROOT
BRANCH   2   5
ATOM      5  C   LIG    1       -5.231   8.104  -2.340  0.00  0.00    -0.030 C 
ATOM      6  C   LIG    1       -6.016   6.972  -3.016  0.00  0.00    +0.250 C 
ATOM      7  O   LIG    1       -7.408   7.198  -2.792  0.00  0.00    -0.310 OA
ATOM      8  C   LIG    1       -7.906   8.437  -3.049  0.00  0.00    +0.130 A 
ATOM      9  C   LIG    1       -7.095   9.526  -3.166  0.00  0.00    -0.160 A 
ATOM     10  C   LIG    1       -7.661  10.790  -3.420  0.00  0.00    -0.010 A 
ATOM     11  C   LIG    1       -6.851  11.933  -3.541  0.00  0.00    +0.010 A 
ATOM     12  C   LIG    1       -7.427  13.142  -3.789  0.00  0.00    +0.020 A 
ATOM     13  C   LIG    1       -8.808  13.265  -3.924  0.00  0.00    -0.010 A 
ATOM     14  C   LIG    1       -9.623  12.180  -3.812  0.00  0.00    +0.030 A 
ATOM     15  C   LIG    1       -9.065  10.917  -3.557  0.00  0.00    -0.080 A 
ATOM     16  C   LIG    1       -9.873   9.773  -3.434  0.00  0.00    +0.070 A 
ATOM     17  C   LIG    1       -9.297   8.569  -3.186  0.00  0.00    +0.000 A 
ATOM     18  C   LIG    1       -5.598   9.418  -3.033  0.00  0.00    +0.120 C 
ENDBRANCH   2   5
BRANCH   3  19
ATOM     19  C   LIG    1       -1.769   6.489  -2.088  0.00  0.00    +0.400 C 
BRANCH  19  20
ATOM     20  C   LIG    1       -1.417   5.186  -1.418  0.00  0.00    +0.170 A 
ATOM     21  N   LIG    1       -1.156   5.030  -0.146  0.00  0.00    -0.460 NA
ATOM     22  C   LIG    1       -0.888   3.743   0.091  0.00  0.00    +0.010 A 
ATOM     23  C   LIG    1       -0.986   3.075  -1.078  0.00  0.00    -0.010 A 
ATOM     24  C   LIG    1       -0.755   1.594  -1.235  0.00  0.00    +0.110 C 
ATOM     25  C   LIG    1       -0.013   1.086   0.008  0.00  0.00    +0.030 C 
ATOM     26  C   LIG    1       -0.730   1.580   1.268  0.00  0.00    +0.020 C 
ATOM     27  C   LIG    1       -0.536   3.095   1.407  0.00  0.00    +0.120 C 
ATOM     28  N   LIG    1       -1.321   3.985  -2.033  0.00  0.00    -0.550 N 
ATOM     29  H   LIG    1       -1.465   3.806  -2.975  0.00  0.00    +0.420 HD
ENDBRANCH  19  20
ENDBRANCH   3  19
TORSDOF 3
