REMARK  Name = ZINCrD000000fFJe.0
REMARK                            x       y       z     vdW  Elec       q    Type
REMARK                         _______ _______ _______ _____ _____    ______ ____
ROOT
ATOM      1  C   LIG    1        4.180   0.958   2.175  0.00  0.00    +0.510 C 
ATOM      2  N   LIG    1        3.003   1.596   2.330  0.00  0.00    -0.720 N 
ATOM      3  H   LIG    1        2.622   1.701   3.215  0.00  0.00    +0.400 HD
ATOM      4  O   LIG    1        4.658   0.826   1.068  0.00  0.00    -0.520 OA
ENDROOT
BRANCH   1   5
ATOM      5  C   LIG    1        4.903   0.408   3.377  0.00  0.00    +0.060 C 
BRANCH   5   6
ATOM      6  C   LIG    1        6.203  -0.263   2.928  0.00  0.00    +0.350 C 
BRANCH   6   9
ATOM      7  C   LIG    1        6.415  -2.993   0.255  0.00  0.00    +0.100 C 
ATOM      8  C   LIG    1        6.780  -1.866   1.186  0.00  0.00    +0.520 C 
ATOM      9  N   LIG    1        5.889  -1.429   2.098  0.00  0.00    -0.720 N 
ATOM     10  H   LIG    1        5.041  -1.886   2.204  0.00  0.00    +0.400 HD
ATOM     11  O   LIG    1        7.877  -1.351   1.114  0.00  0.00    -0.540 OA
ENDBRANCH   6   9
BRANCH   6  12
ATOM     12  C   LIG    1        6.985  -0.704   4.139  0.00  0.00    -0.190 A 
ATOM     13  C   LIG    1        8.012  -0.043   4.674  0.00  0.00    +0.020 A 
ATOM     14  C   LIG    1        8.576  -0.642   5.787  0.00  0.00    +0.010 A 
ATOM     15  C   LIG    1        8.007  -1.791   6.155  0.00  0.00    -0.050 A 
ATOM     16  S   LIG    1        6.678  -2.167   5.066  0.00  0.00    +0.100 S 
ENDBRANCH   6  12
ENDBRANCH   5   6
ENDBRANCH   1   5
BRANCH   2  17
ATOM     17  C   LIG    1        2.301   2.130   1.161  0.00  0.00    +0.340 C 
BRANCH  17  18
ATOM     18  C   LIG    1        1.020   2.791   1.603  0.00  0.00    -0.190 A 
ATOM     19  C   LIG    1       -0.188   2.127   1.488  0.00  0.00    +0.120 A 
ATOM     20  C   LIG    1       -1.343   2.775   1.903  0.00  0.00    -0.070 A 
ATOM     21  C   LIG    1       -1.251   4.050   2.425  0.00  0.00    +0.310 A 
ATOM     22  N   LIG    1       -0.084   4.659   2.523  0.00  0.00    -0.540 NA
ATOM     23  C   LIG    1        1.038   4.075   2.133  0.00  0.00    +0.340 A 
BRANCH  23  24
ATOM     24  O   LIG    1        2.216   4.737   2.252  0.00  0.00    -0.290 OA
BRANCH  24  25
ATOM     25  C   LIG    1        2.167   6.055   2.803  0.00  0.00    +0.170 C 
ATOM     26  C   LIG    1        2.045   7.097   1.673  0.00  0.00    +0.000 C 
ATOM     27  C   LIG    1        2.909   8.287   2.158  0.00  0.00    +0.020 C 
ATOM     28  C   LIG    1        4.107   7.583   2.841  0.00  0.00    +0.020 C 
ATOM     29  C   LIG    1        3.478   6.364   3.546  0.00  0.00    +0.040 C 
ENDBRANCH  24  25
ENDBRANCH  23  24
ENDBRANCH  17  18
ENDBRANCH   2  17
TORSDOF 8
