REMARK  Name = ZINCqH0000031IJk.0
REMARK                            x       y       z     vdW  Elec       q    Type
REMARK                         _______ _______ _______ _____ _____    ______ ____
ROOT
ATOM      1  N   LIG    1        4.003   4.204   0.629  0.00  0.00    -1.050 N 
ATOM      2  H   LIG    1        3.683   5.063   0.313  0.00  0.00    +0.430 HD
ENDROOT
BRANCH   1   3
ATOM      3  C   LIG    1        3.359   3.027   0.228  0.00  0.00    +0.150 A 
ATOM      4  C   LIG    1        4.107   1.941  -0.206  0.00  0.00    +0.030 A 
ATOM      5  C   LIG    1        3.473   0.778  -0.604  0.00  0.00    +0.070 A 
ATOM      6  C   LIG    1        2.093   0.694  -0.568  0.00  0.00    +0.030 A 
ATOM      7  O   LIG    1        1.231  -0.320  -0.899  0.00  0.00    -0.290 OA
ATOM      8  C   LIG    1        0.029   0.006  -0.187  0.00  0.00    +0.250 C 
ATOM      9  O   LIG    1        0.013   1.441  -0.191  0.00  0.00    -0.290 OA
ATOM     10  C   LIG    1       -1.207  -0.565  -0.891  0.00  0.00    +0.070 C 
ATOM     11  C   LIG    1       -1.526  -1.857  -0.095  0.00  0.00    +0.040 C 
ATOM     12  C   LIG    1       -1.196  -1.455   1.365  0.00  0.00    +0.030 C 
ATOM     13  C   LIG    1        0.051  -0.551   1.236  0.00  0.00    +0.020 C 
ATOM     14  C   LIG    1        1.339   1.783  -0.130  0.00  0.00    +0.050 A 
ATOM     15  C   LIG    1        1.973   2.947   0.266  0.00  0.00    +0.030 A 
ENDBRANCH   1   3
BRANCH   1  16
ATOM     16  S   LIG    1        5.310   4.128   1.643  0.00  0.00    +2.690 S 
ATOM     17  O   LIG    1        5.659   5.471   1.948  0.00  0.00    -0.940 OA
ATOM     18  O   LIG    1        6.217   3.203   1.059  0.00  0.00    -0.940 OA
BRANCH  16  22
ATOM     19  C   LIG    1        3.896   2.260   5.522  0.00  0.00    -0.110 A 
ATOM     20  C   LIG    1        4.484   1.466   4.533  0.00  0.00    +0.070 A 
ATOM     21  C   LIG    1        4.911   2.041   3.355  0.00  0.00    +0.120 A 
ATOM     22  C   LIG    1        4.760   3.402   3.151  0.00  0.00    -0.650 A 
ATOM     23  C   LIG    1        4.183   4.196   4.127  0.00  0.00    +0.120 A 
ATOM     24  C   LIG    1        3.745   3.634   5.308  0.00  0.00    +0.050 A 
BRANCH  19  26
ATOM     25  C   LIG    1        2.803   2.513   7.845  0.00  0.00    +0.090 C 
ATOM     26  C   LIG    1        3.436   1.653   6.782  0.00  0.00    +0.390 C 
ATOM     27  O   LIG    1        3.568   0.462   6.964  0.00  0.00    -0.440 OA
ENDBRANCH  19  26
ENDBRANCH  16  22
ENDBRANCH   1  16
TORSDOF 4
