REMARK  Name = ZINCrD00000hQ52O.0
REMARK                            x       y       z     vdW  Elec       q    Type
REMARK                         _______ _______ _______ _____ _____    ______ ____
ROOT
ATOM      1  O   LIG    1        4.136   4.493  -1.034  0.00  0.00    -0.530 OA
ATOM      2  C   LIG    1        4.392   3.625  -1.841  0.00  0.00    +0.530 C 
ATOM      3  N   LIG    1        4.838   3.955  -3.069  0.00  0.00    -0.730 N 
ATOM      4  H   LIG    1        5.043   3.260  -3.714  0.00  0.00    +0.400 HD
ENDROOT
BRANCH   3   5
ATOM      5  C   LIG    1        5.013   5.364  -3.429  0.00  0.00    +0.240 C 
ATOM      6  C   LIG    1        3.680   5.936  -3.925  0.00  0.00    -0.000 C 
ATOM      7  C   LIG    1        3.258   5.192  -5.197  0.00  0.00    +0.210 C 
ATOM      8  O   LIG    1        4.285   5.315  -6.183  0.00  0.00    -0.370 OA
ATOM      9  C   LIG    1        5.540   4.756  -5.792  0.00  0.00    +0.200 C 
ATOM     10  C   LIG    1        6.055   5.482  -4.546  0.00  0.00    +0.030 C 
BRANCH   9  11
ATOM     11  C   LIG    1        6.534   4.917  -6.914  0.00  0.00    -0.100 A 
ATOM     12  C   LIG    1        6.557   6.085  -7.653  0.00  0.00    +0.080 A 
ATOM     13  C   LIG    1        7.471   6.236  -8.679  0.00  0.00    -0.020 A 
ATOM     14  C   LIG    1        8.356   5.213  -8.973  0.00  0.00    +0.100 A 
ATOM     15  C   LIG    1        8.328   4.041  -8.235  0.00  0.00    -0.010 A 
ATOM     16  F   LIG    1        9.247   5.357  -9.978  0.00  0.00    -0.140 F 
ATOM     17  C   LIG    1        7.417   3.895  -7.206  0.00  0.00    +0.050 A 
ENDBRANCH   9  11
ENDBRANCH   3   5
BRANCH   2  18
ATOM     18  C   LIG    1        4.212   2.175  -1.469  0.00  0.00    -0.030 C 
ATOM     19  C   LIG    1        5.578   1.447  -1.450  0.00  0.00    +0.030 C 
ATOM     20  C   LIG    1        5.937   1.470   0.058  0.00  0.00    +0.220 C 
ATOM     21  O   LIG    1        4.664   1.278   0.710  0.00  0.00    -0.360 OA
ATOM     22  C   LIG    1        3.696   2.049  -0.023  0.00  0.00    +0.240 C 
BRANCH  22  23
ATOM     23  C   LIG    1        2.365   1.343  -0.013  0.00  0.00    -0.150 A 
ATOM     24  C   LIG    1        1.185   2.070   0.002  0.00  0.00    +0.080 A 
ATOM     25  C   LIG    1       -0.017   1.378   0.010  0.00  0.00    -0.030 A 
ATOM     26  C   LIG    1        0.002  -0.004   0.002  0.00  0.00    +0.260 A 
ATOM     27  N   LIG    1        1.144  -0.663  -0.013  0.00  0.00    -0.490 NA
ATOM     28  C   LIG    1        2.305  -0.038  -0.021  0.00  0.00    +0.280 A 
ENDBRANCH  22  23
ENDBRANCH   2  18
TORSDOF 4
