REMARK  Name = ZINCpk00000y6tHZ.0
REMARK                            x       y       z     vdW  Elec       q    Type
REMARK                         _______ _______ _______ _____ _____    ______ ____
ROOT
ATOM      1  C   LIG    1       -0.032   1.586  -0.115  0.00  0.00    +0.210 C 
ATOM      2  C   LIG    1       -0.025   0.035  -0.108  0.00  0.00    +0.090 C 
ATOM      3  C   LIG    1        1.232  -0.275  -0.959  0.00  0.00    +0.280 C 
ATOM      4  N   LIG    1        2.204   0.770  -0.590  0.00  0.00    -0.610 N 
ATOM      5  C   LIG    1        3.544   0.671  -0.700  0.00  0.00    +0.580 C 
ATOM      6  O   LIG    1        4.050  -0.382  -1.034  0.00  0.00    -0.530 OA
ATOM      7  C   LIG    1        1.470   1.939  -0.082  0.00  0.00    +0.260 C 
ENDROOT
BRANCH   5   8
ATOM      8  C   LIG    1        4.397   1.842  -0.413  0.00  0.00    -0.140 A 
ATOM      9  C   LIG    1        3.828   3.007   0.119  0.00  0.00    +0.050 A 
ATOM     10  C   LIG    1        4.606   4.095   0.389  0.00  0.00    +0.010 A 
ATOM     11  C   LIG    1        5.973   4.056   0.137  0.00  0.00    +0.070 A 
ATOM     12  N   LIG    1        7.000   4.962   0.296  0.00  0.00    -0.600 N 
ATOM     13  H   LIG    1        6.921   5.864   0.644  0.00  0.00    +0.430 HD
ATOM     14  C   LIG    1        8.144   4.358  -0.127  0.00  0.00    +0.490 A 
ATOM     15  N   LIG    1        7.888   3.149  -0.532  0.00  0.00    -0.490 NA
ATOM     16  C   LIG    1        6.561   2.894  -0.397  0.00  0.00    +0.030 A 
ATOM     17  C   LIG    1        5.764   1.783  -0.666  0.00  0.00    +0.160 A 
ENDBRANCH   5   8
BRANCH   1  20
ATOM     18  N   LIG    1       -1.640   3.426   2.576  0.00  0.00    -0.280 N 
ATOM     19  C   LIG    1       -1.006   3.418   1.381  0.00  0.00    +0.150 A 
ATOM     20  C   LIG    1       -0.733   2.122   1.107  0.00  0.00    -0.050 A 
ATOM     21  N   LIG    1       -1.212   1.408   2.132  0.00  0.00    -0.250 NA
ATOM     22  N   LIG    1       -1.738   2.211   2.988  0.00  0.00    -0.080 NA
BRANCH  18  24
ATOM     23  C   LIG    1       -0.994   5.225   4.102  0.00  0.00    +0.060 C 
ATOM     24  C   LIG    1       -2.131   4.613   3.280  0.00  0.00    +0.250 C 
ATOM     25  C   LIG    1       -2.633   5.639   2.262  0.00  0.00    +0.060 C 
ENDBRANCH  18  24
ENDBRANCH   1  20
BRANCH   1  26
ATOM     26  O   LIG    1       -0.642   2.084  -1.308  0.00  0.00    -0.530 OA
ATOM     27  H   LIG    1       -0.671   3.049  -1.361  0.00  0.00    +0.380 HD
ENDBRANCH   1  26
TORSDOF 4
