REMARK  Name = ZINCnE000001DoZO.0
REMARK                            x       y       z     vdW  Elec       q    Type
REMARK                         _______ _______ _______ _____ _____    ______ ____
ROOT
ATOM      1  N   LIG    1        1.247   1.809  -0.354  0.00  0.00    -0.620 N 
ATOM      2  C   LIG    1        1.472   3.100  -0.668  0.00  0.00    +0.710 C 
ATOM      3  N   LIG    1        0.434   3.937  -0.864  0.00  0.00    -0.740 N 
ATOM      4  H   LIG    1       -0.473   3.630  -0.709  0.00  0.00    +0.400 HD
ATOM      5  O   LIG    1        2.612   3.510  -0.775  0.00  0.00    -0.590 OA
ENDROOT
BRANCH   1   6
ATOM      6  C   LIG    1       -0.123   1.292  -0.321  0.00  0.00    +0.210 C 
ATOM      7  C   LIG    1       -0.112  -0.213   0.018  0.00  0.00    +0.030 C 
ATOM      8  C   LIG    1       -0.347  -0.259   1.549  0.00  0.00    +0.010 C 
ATOM      9  C   LIG    1       -1.370   0.883   1.773  0.00  0.00    +0.020 C 
ATOM     10  C   LIG    1       -0.922   1.988   0.794  0.00  0.00    +0.000 C 
ENDBRANCH   1   6
BRANCH   1  11
ATOM     11  C   LIG    1        2.372   0.923  -0.047  0.00  0.00    +0.290 C 
BRANCH  11  13
ATOM     12  C   LIG    1        4.208  -0.455  -1.034  0.00  0.00    +0.030 C 
ATOM     13  C   LIG    1        2.968   0.385  -1.349  0.00  0.00    -0.040 C 
ATOM     14  C   LIG    1        1.932  -0.484  -2.064  0.00  0.00    +0.020 C 
ENDBRANCH  11  13
ENDBRANCH   1  11
BRANCH   3  15
ATOM     15  C   LIG    1        0.675   5.311  -1.311  0.00  0.00    +0.330 C 
BRANCH  15  16
ATOM     16  C   LIG    1       -0.641   6.032  -1.452  0.00  0.00    -0.130 A 
ATOM     17  C   LIG    1       -1.313   6.007  -2.661  0.00  0.00    -0.010 A 
ATOM     18  C   LIG    1       -2.521   6.660  -2.796  0.00  0.00    +0.040 A 
ATOM     19  C   LIG    1       -3.059   7.357  -1.712  0.00  0.00    -0.120 A 
ATOM     20  C   LIG    1       -2.372   7.382  -0.495  0.00  0.00    +0.040 A 
ATOM     21  C   LIG    1       -1.169   6.720  -0.373  0.00  0.00    -0.010 A 
BRANCH  19  22
ATOM     22  C   LIG    1       -4.347   8.063  -1.850  0.00  0.00    +0.520 C 
ATOM     23  O   LIG    1       -4.946   8.039  -2.916  0.00  0.00    -0.690 OA
ATOM     24  O   LIG    1       -4.816   8.672  -0.899  0.00  0.00    -0.690 OA
ENDBRANCH  19  22
ENDBRANCH  15  16
ENDBRANCH   3  15
TORSDOF 6
