REMARK  Name = ZINCpe000000WyxD.0
REMARK                            x       y       z     vdW  Elec       q    Type
REMARK                         _______ _______ _______ _____ _____    ______ ____
ROOT
ATOM      1  C   LIG    1        2.221   0.687  -0.726  0.00  0.00    +0.310 C 
ATOM      2  C   LIG    1        1.603   1.981  -0.154  0.00  0.00    -0.010 C 
ATOM      3  C   LIG    1        0.116   1.583  -0.009  0.00  0.00    +0.100 C 
ATOM      4  C   LIG    1        0.146   0.076   0.118  0.00  0.00    +0.530 C 
ATOM      5  O   LIG    1       -0.772  -0.605   0.526  0.00  0.00    -0.510 OA
ATOM      6  N   LIG    1        1.337  -0.398  -0.284  0.00  0.00    -0.580 N 
ENDROOT
BRANCH   2   7
ATOM      7  C   LIG    1        2.203   2.319   1.187  0.00  0.00    +0.550 C 
ATOM      8  N   LIG    1        3.197   3.225   1.271  0.00  0.00    -0.390 N 
ATOM      9  C   LIG    1        3.891   3.670   2.491  0.00  0.00    +0.320 C 
ATOM     10  C   LIG    1        4.903   4.684   2.007  0.00  0.00    -0.250 C 
ATOM     11  C   LIG    1        4.773   4.776   0.689  0.00  0.00    +0.430 C 
ATOM     12  N   LIG    1        3.786   3.933   0.214  0.00  0.00    -0.560 N 
ATOM     13  H   LIG    1        3.534   3.845  -0.719  0.00  0.00    +0.420 HD
ATOM     14  O   LIG    1        1.792   1.776   2.190  0.00  0.00    -0.510 OA
BRANCH  11  15
ATOM     15  N   LIG    1        5.537   5.613  -0.115  0.00  0.00    -0.860 N 
ATOM     16  H   LIG    1        5.390   5.633  -1.073  0.00  0.00    +0.400 HD
ATOM     17  H   LIG    1        6.218   6.178   0.283  0.00  0.00    +0.420 HD
ENDBRANCH  11  15
ENDBRANCH   2   7
BRANCH   1  22
ATOM     18  C   LIG    1        5.988   0.655  -0.423  0.00  0.00    +0.130 A 
ATOM     19  C   LIG    1        6.157   0.111   0.841  0.00  0.00    -0.060 A 
ATOM     20  C   LIG    1        5.053  -0.244   1.593  0.00  0.00    +0.040 A 
ATOM     21  C   LIG    1        3.781  -0.053   1.087  0.00  0.00    +0.010 A 
ATOM     22  C   LIG    1        3.610   0.484  -0.176  0.00  0.00    -0.080 A 
ATOM     23  C   LIG    1        4.710   0.841  -0.931  0.00  0.00    +0.000 A 
BRANCH  18  25
ATOM     24  C   LIG    1        8.357   0.785  -0.579  0.00  0.00    +0.250 C 
ATOM     25  O   LIG    1        7.072   1.005  -1.165  0.00  0.00    -0.320 OA
ENDBRANCH  18  25
ENDBRANCH   1  22
BRANCH   6  26
ATOM     26  C   LIG    1        1.705  -1.816  -0.282  0.00  0.00    +0.210 C 
ATOM     27  C   LIG    1        0.601  -2.833   0.015  0.00  0.00    +0.040 C 
ATOM     28  C   LIG    1        1.683  -2.550   1.060  0.00  0.00    +0.010 C 
ENDBRANCH   6  26
TORSDOF 5
