REMARK  Name = ZINCtj0000001pI3.1
REMARK                            x       y       z     vdW  Elec       q    Type
REMARK                         _______ _______ _______ _____ _____    ______ ____
ROOT
ATOM      1  C   LIG    1        4.290   5.590   2.753  0.00  0.00    +0.360 C 
ENDROOT
BRANCH   1   2
ATOM      2  N   LIG    1        3.947   4.532   1.800  0.00  0.00    -0.570 N 
ATOM      3  C   LIG    1        3.619   4.749   0.519  0.00  0.00    +0.710 C 
ATOM      4  N   LIG    1        3.346   3.606  -0.142  0.00  0.00    -0.710 N 
ATOM      5  H   LIG    1        3.087   3.518  -1.073  0.00  0.00    +0.450 HD
ATOM      6  C   LIG    1        3.519   2.523   0.827  0.00  0.00    +0.170 C 
ATOM      7  C   LIG    1        4.596   1.530   0.371  0.00  0.00    +0.080 C 
ATOM      8  C   LIG    1        4.071   0.194   0.942  0.00  0.00    +0.090 C 
ATOM      9  C   LIG    1        2.572   0.375   1.065  0.00  0.00    -0.070 A 
ATOM     10  C   LIG    1        1.566  -0.561   1.222  0.00  0.00    +0.020 A 
ATOM     11  C   LIG    1        0.248  -0.159   1.313  0.00  0.00    +0.040 A 
ATOM     12  C   LIG    1       -0.068   1.185   1.258  0.00  0.00    +0.010 A 
ATOM     13  C   LIG    1        0.935   2.123   1.101  0.00  0.00    +0.040 A 
ATOM     14  C   LIG    1        2.257   1.723   1.003  0.00  0.00    -0.120 A 
ATOM     15  O   LIG    1        3.572   5.852   0.011  0.00  0.00    -0.540 OA
ATOM     16  C   LIG    1        3.921   3.216   2.103  0.00  0.00    +0.550 C 
ATOM     17  O   LIG    1        4.168   2.702   3.173  0.00  0.00    -0.450 OA
ENDBRANCH   1   2
BRANCH   1  20
ATOM     18  N   LIG    1        6.324   6.779   3.509  0.00  0.00    -0.750 N 
ATOM     19  H   LIG    1        5.762   7.292   4.111  0.00  0.00    +0.400 HD
ATOM     20  C   LIG    1        5.776   5.841   2.711  0.00  0.00    +0.510 C 
ATOM     21  O   LIG    1        6.478   5.199   1.959  0.00  0.00    -0.500 OA
BRANCH  18  22
ATOM     22  C   LIG    1        7.768   7.022   3.469  0.00  0.00    +0.330 C 
BRANCH  22  23
ATOM     23  C   LIG    1        8.109   8.212   4.368  0.00  0.00    +0.310 C 
BRANCH  23  24
ATOM     24  C   LIG    1        7.815   7.858   5.803  0.00  0.00    -0.110 A 
ATOM     25  C   LIG    1        8.721   7.472   6.719  0.00  0.00    +0.040 A 
ATOM     26  C   LIG    1        8.014   7.243   7.922  0.00  0.00    -0.050 A 
ATOM     27  C   LIG    1        6.719   7.502   7.669  0.00  0.00    +0.230 A 
ATOM     28  O   LIG    1        6.605   7.880   6.385  0.00  0.00    -0.190 OA
ENDBRANCH  23  24
BRANCH  23  30
ATOM     29  C   LIG    1        7.621  10.512   4.843  0.00  0.00    +0.330 C 
ATOM     30  N   LIG    1        7.299   9.373   3.974  0.00  0.00    -0.390 N 
ATOM     31  C   LIG    1        7.592   9.723   2.578  0.00  0.00    +0.340 C 
ATOM     32  H   LIG    1        6.320   9.146   4.065  0.00  0.00    +0.420 HD
ENDBRANCH  23  30
ENDBRANCH  22  23
ENDBRANCH  18  22
ENDBRANCH   1  20
TORSDOF 6
