REMARK  Name = ZINCrD0000074uAK.0
REMARK                            x       y       z     vdW  Elec       q    Type
REMARK                         _______ _______ _______ _____ _____    ______ ____
ROOT
ATOM      1  C   LIG    1        0.008   7.816  -0.172  0.00  0.00    +0.200 C 
ATOM      2  C   LIG    1        0.676   8.305   1.115  0.00  0.00    +0.080 C 
ENDROOT
BRANCH   1   3
ATOM      3  C   LIG    1       -0.272   6.339  -0.063  0.00  0.00    +0.520 C 
ATOM      4  N   LIG    1        0.750   5.465   0.024  0.00  0.00    -0.660 N 
ATOM      5  H   LIG    1        1.661   5.789   0.094  0.00  0.00    +0.420 HD
ATOM      6  O   LIG    1       -1.417   5.938  -0.054  0.00  0.00    -0.490 OA
BRANCH   4   7
ATOM      7  C   LIG    1        0.495   4.087   0.014  0.00  0.00    +0.160 A 
ATOM      8  C   LIG    1        1.301   3.227   0.746  0.00  0.00    +0.010 A 
ATOM      9  C   LIG    1        1.048   1.868   0.742  0.00  0.00    +0.060 A 
ATOM     10  C   LIG    1       -0.004   1.360  -0.002  0.00  0.00    +0.020 A 
ATOM     11  O   LIG    1       -0.455   0.082  -0.175  0.00  0.00    -0.310 OA
ATOM     12  C   LIG    1       -1.293   0.125  -1.345  0.00  0.00    +0.430 C 
ATOM     13  O   LIG    1       -1.773   1.483  -1.372  0.00  0.00    -0.310 OA
ATOM     14  C   LIG    1       -0.815   2.221  -0.739  0.00  0.00    +0.060 A 
ATOM     15  C   LIG    1       -0.564   3.582  -0.729  0.00  0.00    +0.040 A 
ENDBRANCH   4   7
ENDBRANCH   1   3
BRANCH   1  16
ATOM     16  O   LIG    1       -1.240   8.532  -0.371  0.00  0.00    -0.320 OA
BRANCH  16  17
ATOM     17  C   LIG    1       -1.182   9.673  -1.076  0.00  0.00    +0.470 C 
ATOM     18  O   LIG    1       -0.124  10.061  -1.512  0.00  0.00    -0.480 OA
BRANCH  17  19
ATOM     19  C   LIG    1       -2.437  10.470  -1.323  0.00  0.00    +0.290 C 
BRANCH  19  20
ATOM     20  O   LIG    1       -2.119  11.633  -2.090  0.00  0.00    -0.290 OA
BRANCH  20  28
ATOM     21  C   LIG    1       -1.512  13.937  -3.606  0.00  0.00    +0.110 C 
ATOM     22  C   LIG    1       -2.910  13.613  -3.145  0.00  0.00    -0.090 A 
ATOM     23  C   LIG    1       -3.955  14.459  -3.462  0.00  0.00    +0.070 A 
ATOM     24  C   LIG    1       -5.239  14.161  -3.039  0.00  0.00    -0.060 A 
ATOM     25  C   LIG    1       -5.477  13.018  -2.298  0.00  0.00    +0.070 A 
ATOM     26  C   LIG    1       -4.435  12.167  -1.984  0.00  0.00    -0.050 A 
ATOM     27 CL   LIG    1       -6.551  15.225  -3.438  0.00  0.00    -0.070 Cl
ATOM     28  C   LIG    1       -3.147  12.466  -2.402  0.00  0.00    +0.130 A 
ENDBRANCH  20  28
ENDBRANCH  19  20
ENDBRANCH  17  19
ENDBRANCH  16  17
ENDBRANCH   1  16
TORSDOF 7
