REMARK  Name = ZINCvU0000000AL7.0
REMARK                            x       y       z     vdW  Elec       q    Type
REMARK                         _______ _______ _______ _____ _____    ______ ____
ROOT
ATOM      1  C   LIG    1       -2.412   4.829  -2.116  0.00  0.00    +0.160 C 
ATOM      2  C   LIG    1       -1.146   5.619  -2.321  0.00  0.00    +0.130 A 
ATOM      3  N   LIG    1       -0.815   6.266  -3.413  0.00  0.00    -0.280 NA
ATOM      4  N   LIG    1        0.431   6.875  -3.220  0.00  0.00    -0.320 N 
ATOM      5  C   LIG    1        0.854   6.573  -1.954  0.00  0.00    +0.350 A 
ATOM      6  N   LIG    1        1.964   6.893  -1.256  0.00  0.00    -0.590 NA
ATOM      7  C   LIG    1        2.213   6.507  -0.019  0.00  0.00    +0.490 A 
ATOM      8  C   LIG    1        3.429   6.924   0.584  0.00  0.00    +0.020 A 
ATOM      9  C   LIG    1        3.734   6.559   1.848  0.00  0.00    +0.130 A 
ATOM     10  C   LIG    1        2.792   5.721   2.596  0.00  0.00    -0.120 A 
ATOM     11  C   LIG    1        3.067   5.320   3.906  0.00  0.00    +0.080 A 
ATOM     12  C   LIG    1        2.160   4.533   4.581  0.00  0.00    -0.020 A 
ATOM     13  C   LIG    1        0.980   4.138   3.968  0.00  0.00    +0.070 A 
ATOM     14  C   LIG    1        0.695   4.525   2.675  0.00  0.00    -0.030 A 
ATOM     15  C   LIG    1        1.595   5.320   1.975  0.00  0.00    +0.210 A 
ATOM     16  N   LIG    1        1.330   5.720   0.682  0.00  0.00    -0.500 N 
ATOM     17  C   LIG    1        0.077   5.302   0.029  0.00  0.00    +0.380 C 
ATOM     18  C   LIG    1       -0.129   5.785  -1.388  0.00  0.00    -0.330 A 
ENDROOT
BRANCH   4  19
ATOM     19  C   LIG    1        1.121   7.656  -4.156  0.00  0.00    +0.170 A 
ATOM     20  C   LIG    1        1.875   8.743  -3.734  0.00  0.00    +0.040 A 
ATOM     21  C   LIG    1        2.560   9.508  -4.658  0.00  0.00    +0.050 A 
ATOM     22  C   LIG    1        2.485   9.199  -6.005  0.00  0.00    -0.040 A 
ATOM     23  C   LIG    1        1.730   8.120  -6.429  0.00  0.00    +0.050 A 
ATOM     24 CL   LIG    1        3.340  10.167  -7.165  0.00  0.00    -0.060 Cl
ATOM     25  C   LIG    1        1.048   7.348  -5.508  0.00  0.00    +0.040 A 
ENDBRANCH   4  19
BRANCH  17  26
ATOM     26  C   LIG    1        0.033   3.795   0.022  0.00  0.00    +0.110 A 
ATOM     27  C   LIG    1       -1.188   3.148   0.030  0.00  0.00    -0.030 A 
ATOM     28  C   LIG    1       -1.217   1.761   0.017  0.00  0.00    +0.070 A 
ATOM     29  C   LIG    1       -0.013   1.076   0.008  0.00  0.00    -0.030 A 
ATOM     30  C   LIG    1        1.170   1.792   0.001  0.00  0.00    +0.270 A 
ATOM     31  N   LIG    1        1.160   3.110   0.007  0.00  0.00    -0.470 NA
ENDBRANCH  17  26
TORSDOF 2
