REMARK  Name = ZINCrg00000SjSBM.0
REMARK                            x       y       z     vdW  Elec       q    Type
REMARK                         _______ _______ _______ _____ _____    ______ ____
ROOT
ATOM      1  C   LIG    1        3.664   2.244  -0.267  0.00  0.00    +0.220 C 
ENDROOT
BRANCH   1   2
ATOM      2  C   LIG    1        2.366   1.507  -0.057  0.00  0.00    +0.020 A 
ATOM      3  C   LIG    1        1.177   2.209   0.020  0.00  0.00    +0.030 A 
ATOM      4  C   LIG    1       -0.013   1.533   0.213  0.00  0.00    +0.080 A 
ATOM      5  C   LIG    1       -0.015   0.156   0.330  0.00  0.00    +0.000 A 
ATOM      6  C   LIG    1        1.173  -0.546   0.253  0.00  0.00    +0.090 A 
ATOM      7  C   LIG    1        2.364   0.130   0.060  0.00  0.00    -0.670 A 
BRANCH   7   8
ATOM      8  S   LIG    1        3.878  -0.765  -0.037  0.00  0.00    +2.680 S 
ATOM      9  O   LIG    1        4.760  -0.165   0.902  0.00  0.00    -0.950 OA
ATOM     10  O   LIG    1        4.184  -0.889  -1.419  0.00  0.00    -0.940 OA
BRANCH   8  11
ATOM     11  N   LIG    1        3.579  -2.297   0.515  0.00  0.00    -1.000 NA
ATOM     12  C   LIG    1        3.603  -2.602   1.954  0.00  0.00    +0.270 C 
ATOM     13  C   LIG    1        2.305  -3.347   2.308  0.00  0.00    +0.210 C 
ATOM     14  O   LIG    1        2.150  -4.462   1.426  0.00  0.00    -0.370 OA
ATOM     15  C   LIG    1        2.011  -4.104   0.049  0.00  0.00    +0.210 C 
ATOM     16  C   LIG    1        3.287  -3.396  -0.420  0.00  0.00    +0.280 C 
ENDBRANCH   8  11
ENDBRANCH   7   8
ENDBRANCH   1   2
BRANCH   1  17
ATOM     17  N   LIG    1        4.051   2.160  -1.682  0.00  0.00    -0.660 NA
ATOM     18  H   LIG    1        4.030   1.205  -2.006  0.00  0.00    +0.360 HD
BRANCH  17  19
ATOM     19  C   LIG    1        5.372   2.763  -1.902  0.00  0.00    +0.190 C 
BRANCH  19  20
ATOM     20  C   LIG    1        6.023   2.122  -3.101  0.00  0.00    -0.100 A 
ATOM     21  C   LIG    1        5.298   1.931  -4.262  0.00  0.00    +0.040 A 
ATOM     22  C   LIG    1        5.896   1.347  -5.363  0.00  0.00    +0.010 A 
ATOM     23  C   LIG    1        7.217   0.945  -5.300  0.00  0.00    +0.010 A 
ATOM     24  C   LIG    1        7.941   1.131  -4.137  0.00  0.00    +0.010 A 
ATOM     25  C   LIG    1        7.344   1.718  -3.037  0.00  0.00    +0.010 A 
ENDBRANCH  19  20
BRANCH  19  29
ATOM     26  N   LIG    1        6.303   5.005  -2.374  0.00  0.00    -0.850 N 
ATOM     27  H   LIG    1        6.202   5.957  -2.531  0.00  0.00    +0.400 HD
ATOM     28  H   LIG    1        7.185   4.603  -2.381  0.00  0.00    +0.400 HD
ATOM     29  C   LIG    1        5.216   4.241  -2.146  0.00  0.00    +0.530 C 
ATOM     30  O   LIG    1        4.112   4.744  -2.138  0.00  0.00    -0.520 OA
ENDBRANCH  19  29
ENDBRANCH  17  19
ENDBRANCH   1  17
TORSDOF 7
