REMARK  Name = ZINCpk00000y40OP.0
REMARK                            x       y       z     vdW  Elec       q    Type
REMARK                         _______ _______ _______ _____ _____    ______ ____
ROOT
ATOM      1  O   LIG    1       -4.148  -0.215   3.683  0.00  0.00    -0.510 OA
ATOM      2  C   LIG    1       -4.664  -0.538   2.630  0.00  0.00    +0.610 C 
ATOM      3  N   LIG    1       -4.103  -0.166   1.463  0.00  0.00    -0.710 N 
ATOM      4  H   LIG    1       -4.515  -0.424   0.623  0.00  0.00    +0.410 HD
ENDROOT
BRANCH   2   5
ATOM      5  C   LIG    1       -5.907  -1.338   2.632  0.00  0.00    +0.060 A 
ATOM      6  N   LIG    1       -6.565  -1.745   1.556  0.00  0.00    -0.290 NA
ATOM      7  N   LIG    1       -7.687  -2.478   1.964  0.00  0.00    -0.260 N 
ATOM      8  C   LIG    1       -8.676  -3.108   1.264  0.00  0.00    +0.270 A 
ATOM      9  C   LIG    1       -9.670  -3.754   1.907  0.00  0.00    +0.010 A 
ATOM     10  C   LIG    1       -9.706  -3.789   3.311  0.00  0.00    +0.070 A 
ATOM     11  C   LIG    1       -8.729  -3.167   4.024  0.00  0.00    +0.040 A 
ATOM     12  C   LIG    1       -7.697  -2.496   3.337  0.00  0.00    +0.100 A 
ATOM     13  C   LIG    1       -6.588  -1.786   3.768  0.00  0.00    -0.050 A 
ENDBRANCH   2   5
BRANCH   3  14
ATOM     14  C   LIG    1       -2.871   0.627   1.461  0.00  0.00    +0.260 C 
BRANCH  14  15
ATOM     15  C   LIG    1       -2.449   0.911   0.018  0.00  0.00    +0.300 C 
BRANCH  15  16
ATOM     16  N   LIG    1       -1.217   1.704   0.017  0.00  0.00    -0.550 N 
ATOM     17  C   LIG    1       -0.013   1.076   0.008  0.00  0.00    +0.570 A 
ATOM     18  N   LIG    1        1.122   1.707   0.001  0.00  0.00    -0.520 NA
ATOM     19  C   LIG    1        1.182   3.062   0.007  0.00  0.00    +0.150 A 
ATOM     20  C   LIG    1        2.401   3.742  -0.001  0.00  0.00    +0.030 A 
ATOM     21  C   LIG    1        2.415   5.119   0.006  0.00  0.00    +0.070 A 
ATOM     22  C   LIG    1        1.229   5.842   0.021  0.00  0.00    +0.000 A 
ATOM     23  C   LIG    1        0.013   5.194   0.029  0.00  0.00    +0.100 A 
ATOM     24  C   LIG    1       -0.022   3.801   0.023  0.00  0.00    -0.190 A 
ATOM     25  C   LIG    1       -1.290   3.055   0.031  0.00  0.00    +0.550 A 
ATOM     26  O   LIG    1       -2.362   3.631   0.044  0.00  0.00    -0.500 OA
ENDBRANCH  15  16
ENDBRANCH  14  15
ENDBRANCH   3  14
TORSDOF 4
