REMARK  Name = ZINCqH0000006RhX.0
REMARK                            x       y       z     vdW  Elec       q    Type
REMARK                         _______ _______ _______ _____ _____    ______ ____
ROOT
ATOM      1  N   LIG    1       -1.897   2.399   3.529  0.00  0.00    -0.660 N 
ATOM      2  H   LIG    1       -2.232   2.727   2.679  0.00  0.00    +0.420 HD
ATOM      3  C   LIG    1       -2.533   2.720   4.673  0.00  0.00    +0.520 C 
ATOM      4  O   LIG    1       -2.059   2.396   5.741  0.00  0.00    -0.510 OA
ENDROOT
BRANCH   1   7
ATOM      5  C   LIG    1        0.583  -0.075   4.662  0.00  0.00    +0.130 A 
ATOM      6  C   LIG    1       -0.553   0.718   4.625  0.00  0.00    -0.010 A 
ATOM      7  C   LIG    1       -0.752   1.591   3.566  0.00  0.00    +0.170 A 
ATOM      8  C   LIG    1        0.184   1.661   2.537  0.00  0.00    +0.070 A 
ATOM      9  C   LIG    1        1.318   0.866   2.579  0.00  0.00    +0.010 A 
ATOM     10  C   LIG    1        1.518  -0.000   3.639  0.00  0.00    -0.050 A 
ATOM     11 CL   LIG    1        2.939  -0.995   3.688  0.00  0.00    -0.050 Cl
BRANCH   5  13
ATOM     12  C   LIG    1       -0.220  -0.954   6.722  0.00  0.00    +0.240 C 
ATOM     13  O   LIG    1        0.782  -0.928   5.703  0.00  0.00    -0.300 OA
ENDBRANCH   5  13
BRANCH   8  14
ATOM     14  O   LIG    1       -0.012   2.513   1.495  0.00  0.00    -0.320 OA
ATOM     15  C   LIG    1        0.992   2.536   0.478  0.00  0.00    +0.250 C 
ENDBRANCH   8  14
ENDBRANCH   1   7
BRANCH   3  16
ATOM     16  C   LIG    1       -3.832   3.483   4.625  0.00  0.00    +0.070 C 
BRANCH  16  17
ATOM     17  C   LIG    1       -4.339   3.717   6.049  0.00  0.00    +0.290 C 
BRANCH  17  18
ATOM     18  N   LIG    1       -5.602   4.458   6.002  0.00  0.00    -0.730 N 
ATOM     19  H   LIG    1       -5.980   4.718   5.148  0.00  0.00    +0.400 HD
ATOM     20  C   LIG    1       -6.237   4.780   7.146  0.00  0.00    +0.560 C 
ATOM     21  O   LIG    1       -5.763   4.454   8.217  0.00  0.00    -0.520 OA
BRANCH  20  22
ATOM     22  C   LIG    1       -7.511   5.527   7.099  0.00  0.00    -0.130 A 
ATOM     23  C   LIG    1       -8.056   5.907   5.871  0.00  0.00    +0.070 A 
ATOM     24  C   LIG    1       -9.246   6.602   5.833  0.00  0.00    +0.020 A 
ATOM     25  C   LIG    1       -9.898   6.930   7.011  0.00  0.00    -0.010 A 
ATOM     26  C   LIG    1       -9.360   6.560   8.232  0.00  0.00    +0.020 A 
ATOM     27 CL   LIG    1      -11.393   7.810   6.955  0.00  0.00    -0.060 Cl
ATOM     28  C   LIG    1       -8.172   5.862   8.283  0.00  0.00    +0.100 A 
ENDBRANCH  20  22
ENDBRANCH  17  18
ENDBRANCH  16  17
ENDBRANCH   3  16
TORSDOF 7
