REMARK  Name = ZINCrg00001JduZX.0
REMARK                            x       y       z     vdW  Elec       q    Type
REMARK                         _______ _______ _______ _____ _____    ______ ____
ROOT
ATOM      1  C   LIG    1       -2.931   4.372   7.233  0.00  0.00    -0.010 C 
ATOM      2  C   LIG    1       -4.051   3.885   6.310  0.00  0.00    +0.070 C 
ATOM      3  C   LIG    1       -3.460   2.964   5.240  0.00  0.00    +0.220 C 
ATOM      4  N   LIG    1       -2.448   3.696   4.468  0.00  0.00    -0.450 N 
ATOM      5  C   LIG    1       -1.339   4.133   5.325  0.00  0.00    +0.200 C 
ATOM      6  C   LIG    1       -1.867   5.089   6.397  0.00  0.00    +0.070 C 
ENDROOT
BRANCH   4   7
ATOM      7  C   LIG    1       -1.985   2.933   3.407  0.00  0.00    +0.250 A 
ATOM      8  N   LIG    1       -2.386   1.732   3.126  0.00  0.00    -0.530 NA
ATOM      9  C   LIG    1       -1.840   1.152   2.071  0.00  0.00    +0.410 A 
ATOM     10  C   LIG    1       -0.930   1.894   1.440  0.00  0.00    -0.870 A 
ATOM     11  S   LIG    1       -0.804   3.438   2.279  0.00  0.00    +0.250 S 
BRANCH  10  12
ATOM     12  S   LIG    1       -0.017   1.417   0.010  0.00  0.00    +2.740 S 
ATOM     13  O   LIG    1        1.162   2.210   0.003  0.00  0.00    -0.950 OA
ATOM     14  O   LIG    1        0.002  -0.004   0.002  0.00  0.00    -0.950 OA
BRANCH  12  15
ATOM     15  N   LIG    1       -0.900   1.880  -1.312  0.00  0.00    -1.240 NA
ATOM     16  H   LIG    1       -1.118   2.815  -1.446  0.00  0.00    +0.420 HD
ATOM     17  H   LIG    1       -1.199   1.215  -1.953  0.00  0.00    +0.420 HD
ENDBRANCH  12  15
ENDBRANCH  10  12
ENDBRANCH   4   7
BRANCH   1  20
ATOM     18  N   LIG    1       -2.689   5.886   9.175  0.00  0.00    -0.730 N 
ATOM     19  H   LIG    1       -1.742   5.674   9.182  0.00  0.00    +0.400 HD
ATOM     20  C   LIG    1       -3.497   5.327   8.252  0.00  0.00    +0.520 C 
ATOM     21  O   LIG    1       -4.681   5.593   8.242  0.00  0.00    -0.530 OA
BRANCH  18  22
ATOM     22  C   LIG    1       -3.240   6.814  10.165  0.00  0.00    +0.250 C 
BRANCH  22  23
ATOM     23  C   LIG    1       -2.119   7.300  11.087  0.00  0.00    +0.100 C 
BRANCH  23  24
ATOM     24  C   LIG    1       -2.695   8.270  12.121  0.00  0.00    +0.030 C 
ATOM     25  N   LIG    1       -4.093   8.111  12.529  0.00  0.00    -0.120 NA
ATOM     26  N   LIG    1       -3.873   9.062  11.761  0.00  0.00    -0.120 NA
BRANCH  24  27
ATOM     27  C   LIG    1       -1.700   8.853  13.127  0.00  0.00    +0.120 C 
BRANCH  27  28
ATOM     28  C   LIG    1       -2.435   9.795  14.083  0.00  0.00    +0.160 C 
BRANCH  28  30
ATOM     29  C   LIG    1       -0.715  10.804  15.822  0.00  0.00    +0.030 C 
ATOM     30  C   LIG    1       -1.478  10.357  15.051  0.00  0.00    -0.200 C 
ENDBRANCH  28  30
ENDBRANCH  27  28
ENDBRANCH  24  27
ENDBRANCH  23  24
ENDBRANCH  22  23
ENDBRANCH  18  22
ENDBRANCH   1  20
TORSDOF 10
