REMARK  Name = ZINCpk00000KfLGO.0
REMARK                            x       y       z     vdW  Elec       q    Type
REMARK                         _______ _______ _______ _____ _____    ______ ____
ROOT
ATOM      1  C   LIG    1        4.225  -5.234  -3.278  0.00  0.00    +0.100 C 
ATOM      2  C   LIG    1        4.696  -6.233  -2.219  0.00  0.00    +0.040 C 
ATOM      3  C   LIG    1        4.403  -5.676  -0.824  0.00  0.00    +0.030 C 
ATOM      4  C   LIG    1        5.179  -4.364  -0.629  0.00  0.00    +0.270 C 
ATOM      5  N   LIG    1        4.835  -3.451  -1.728  0.00  0.00    -0.610 N 
ATOM      6  C   LIG    1        4.389  -2.206  -1.471  0.00  0.00    +0.500 C 
ATOM      7  O   LIG    1        4.113  -1.460  -2.387  0.00  0.00    -0.520 OA
ATOM      8  C   LIG    1        4.993  -3.919  -3.112  0.00  0.00    +0.300 C 
ENDROOT
BRANCH   1  12
ATOM      9  C   LIG    1        3.645  -6.958  -7.944  0.00  0.00    +0.250 C 
ATOM     10  C   LIG    1        4.225  -6.524  -6.622  0.00  0.00    +0.180 A 
ATOM     11  N   LIG    1        3.561  -6.043  -5.598  0.00  0.00    -0.480 NA
ATOM     12  C   LIG    1        4.484  -5.798  -4.652  0.00  0.00    +0.180 A 
ATOM     13  N   LIG    1        5.641  -6.130  -5.141  0.00  0.00    -0.380 NA
ATOM     14  O   LIG    1        5.513  -6.555  -6.270  0.00  0.00    +0.080 OA
ENDBRANCH   1  12
BRANCH   6  15
ATOM     15  C   LIG    1        4.232  -1.740  -0.046  0.00  0.00    +0.370 C 
BRANCH  15  16
ATOM     16  N   LIG    1        3.736  -0.362  -0.035  0.00  0.00    -0.520 N 
ATOM     17  C   LIG    1        4.496   0.749  -0.036  0.00  0.00    +0.690 A 
ATOM     18  N   LIG    1        3.706   1.839  -0.024  0.00  0.00    -0.640 N 
ATOM     19  H   LIG    1        4.010   2.760  -0.022  0.00  0.00    +0.440 HD
ATOM     20  C   LIG    1        2.378   1.419  -0.013  0.00  0.00    +0.090 A 
ATOM     21  C   LIG    1        1.167   2.093   0.002  0.00  0.00    +0.030 A 
ATOM     22  C   LIG    1       -0.017   1.380   0.010  0.00  0.00    +0.020 A 
ATOM     23  C   LIG    1        0.002  -0.004   0.002  0.00  0.00    +0.020 A 
ATOM     24  C   LIG    1        1.204  -0.684  -0.013  0.00  0.00    +0.030 A 
ATOM     25  O   LIG    1        5.713   0.766  -0.048  0.00  0.00    -0.550 OA
ATOM     26  C   LIG    1        2.397   0.022  -0.020  0.00  0.00    +0.100 A 
ENDBRANCH  15  16
ENDBRANCH   6  15
TORSDOF 3
