REMARK  Name = ZINCpe00000MJKgQ.0
REMARK                            x       y       z     vdW  Elec       q    Type
REMARK                         _______ _______ _______ _____ _____    ______ ____
ROOT
ATOM      1  C   LIG    1       -3.699   7.301  -0.788  0.00  0.00    +0.260 C 
ATOM      2  C   LIG    1       -4.589   8.427  -0.203  0.00  0.00    +0.070 C 
ATOM      3  C   LIG    1       -4.425   8.238   1.323  0.00  0.00    +0.040 C 
ATOM      4  C   LIG    1       -3.102   7.470   1.493  0.00  0.00    +0.190 C 
ATOM      5  N   LIG    1       -2.541   7.267   0.140  0.00  0.00    -0.490 NA
ENDROOT
BRANCH   1   9
ATOM      6  C   LIG    1       -2.975   7.703  -4.286  0.00  0.00    +0.130 A 
ATOM      7  N   LIG    1       -2.249   8.636  -3.730  0.00  0.00    -0.350 NA
ATOM      8  O   LIG    1       -2.401   8.622  -2.527  0.00  0.00    +0.120 OA
ATOM      9  C   LIG    1       -3.252   7.649  -2.185  0.00  0.00    +0.200 A 
ATOM     10  N   LIG    1       -3.628   7.060  -3.292  0.00  0.00    -0.440 NA
BRANCH   6  14
ATOM     11  N   LIG    1       -2.355   8.133  -6.621  0.00  0.00    -0.830 N 
ATOM     12  H   LIG    1       -2.414   7.938  -7.569  0.00  0.00    +0.420 HD
ATOM     13  H   LIG    1       -1.783   8.852  -6.308  0.00  0.00    +0.410 HD
ATOM     14  C   LIG    1       -3.066   7.405  -5.737  0.00  0.00    +0.620 C 
ATOM     15  O   LIG    1       -3.782   6.505  -6.128  0.00  0.00    -0.500 OA
ENDBRANCH   6  14
ENDBRANCH   1   9
BRANCH   5  16
ATOM     16  C   LIG    1       -1.833   5.983   0.051  0.00  0.00    +0.210 C 
BRANCH  16  17
ATOM     17  C   LIG    1       -0.614   6.018   0.937  0.00  0.00    +0.530 C 
ATOM     18  N   LIG    1        0.174   4.930   1.043  0.00  0.00    -0.550 N 
ATOM     19  C   LIG    1        1.381   4.844   1.869  0.00  0.00    +0.290 C 
ATOM     20  C   LIG    1        1.917   3.419   1.653  0.00  0.00    +0.090 C 
ATOM     21  C   LIG    1        0.936   2.785   0.693  0.00  0.00    -0.130 A 
ATOM     22  C   LIG    1        0.905   1.523   0.132  0.00  0.00    +0.060 A 
ATOM     23  C   LIG    1       -0.110   1.175  -0.740  0.00  0.00    -0.010 A 
ATOM     24  C   LIG    1       -1.092   2.096  -1.054  0.00  0.00    +0.050 A 
ATOM     25  C   LIG    1       -1.062   3.359  -0.501  0.00  0.00    -0.030 A 
ATOM     26  C   LIG    1       -0.040   3.717   0.380  0.00  0.00    +0.140 A 
ATOM     27  O   LIG    1       -0.343   7.026   1.555  0.00  0.00    -0.490 OA
ENDBRANCH  16  17
ENDBRANCH   5  16
TORSDOF 4
