REMARK  Name = ZINCpe000000YBJ9.0
REMARK                            x       y       z     vdW  Elec       q    Type
REMARK                         _______ _______ _______ _____ _____    ______ ____
ROOT
ATOM      1  C   LIG    1        2.499   4.029  -0.101  0.00  0.00    +0.330 A 
ATOM      2  N   LIG    1        3.650   3.399  -0.016  0.00  0.00    -0.430 NA
ATOM      3  C   LIG    1        3.730   2.069   0.080  0.00  0.00    +0.130 A 
ATOM      4  C   LIG    1        4.975   1.422   0.169  0.00  0.00    +0.050 A 
ATOM      5  C   LIG    1        5.026   0.064   0.266  0.00  0.00    +0.040 A 
ATOM      6  C   LIG    1        3.861  -0.699   0.279  0.00  0.00    +0.020 A 
ATOM      7  C   LIG    1        2.636  -0.105   0.193  0.00  0.00    +0.060 A 
ATOM      8  C   LIG    1        2.549   1.287   0.094  0.00  0.00    -0.070 A 
ATOM      9  C   LIG    1        1.256   1.968   0.001  0.00  0.00    -0.060 A 
ATOM     10  C   LIG    1        1.272   3.351  -0.101  0.00  0.00    -0.020 A 
ENDROOT
BRANCH   1  13
ATOM     11  C   LIG    1        2.094   7.375  -1.604  0.00  0.00    +0.180 C 
ATOM     12  C   LIG    1        2.021   5.848  -1.519  0.00  0.00    +0.200 C 
ATOM     13  N   LIG    1        2.500   5.412  -0.199  0.00  0.00    -0.490 N 
ATOM     14  C   LIG    1        1.694   6.016   0.873  0.00  0.00    +0.170 C 
ATOM     15  C   LIG    1        1.770   7.541   0.763  0.00  0.00    +0.240 C 
ATOM     16  O   LIG    1        1.331   7.944  -0.537  0.00  0.00    -0.350 OA
BRANCH  11  20
ATOM     17  N   LIG    1        2.155   7.503  -4.074  0.00  0.00    -0.850 N 
ATOM     18  H   LIG    1        1.794   7.798  -4.924  0.00  0.00    +0.410 HD
ATOM     19  H   LIG    1        2.965   6.970  -4.050  0.00  0.00    +0.400 HD
ATOM     20  C   LIG    1        1.532   7.833  -2.925  0.00  0.00    +0.530 C 
ATOM     21  O   LIG    1        0.520   8.500  -2.955  0.00  0.00    -0.510 OA
ENDBRANCH  11  20
ENDBRANCH   1  13
BRANCH   9  22
ATOM     22  C   LIG    1       -0.014   1.211   0.009  0.00  0.00    +0.570 C 
ATOM     23  N   LIG    1       -1.191   1.869   0.026  0.00  0.00    -0.690 N 
ATOM     24  H   LIG    1       -1.204   2.839   0.037  0.00  0.00    +0.400 HD
ATOM     25  O   LIG    1        0.002  -0.004  -0.005  0.00  0.00    -0.520 OA
BRANCH  23  26
ATOM     26  C   LIG    1       -2.449   1.119   0.028  0.00  0.00    +0.210 C 
ATOM     27  C   LIG    1       -3.566   1.611  -0.896  0.00  0.00    +0.020 C 
ATOM     28  C   LIG    1       -3.681   1.809   0.618  0.00  0.00    +0.020 C 
ENDBRANCH  23  26
ENDBRANCH   9  22
TORSDOF 4
