REMARK  Name = ZINCpk00000xI2re.0
REMARK                            x       y       z     vdW  Elec       q    Type
REMARK                         _______ _______ _______ _____ _____    ______ ____
ROOT
ATOM      1  C   LIG    1       -1.035  -2.333   3.133  0.00  0.00    +0.290 C 
ENDROOT
BRANCH   1   2
ATOM      2  C   LIG    1       -2.053  -2.281   4.243  0.00  0.00    -0.200 A 
ATOM      3  C   LIG    1       -1.820  -2.542   5.559  0.00  0.00    +0.250 A 
ATOM      4  N   LIG    1       -2.989  -2.385   6.220  0.00  0.00    -0.390 N 
ATOM      5  N   LIG    1       -3.966  -2.018   5.286  0.00  0.00    -0.290 NA
ATOM      6  C   LIG    1       -3.197  -2.567   7.659  0.00  0.00    +0.340 C 
ATOM      7  C   LIG    1       -3.404  -1.950   4.106  0.00  0.00    +0.100 A 
ATOM      8  C   LIG    1       -4.097  -1.582   2.819  0.00  0.00    +0.150 C 
BRANCH   3   9
ATOM      9  N   LIG    1       -0.599  -2.906   6.121  0.00  0.00    -0.460 N 
ATOM     10  C   LIG    1       -0.625  -4.303   6.577  0.00  0.00    +0.150 C 
ATOM     11  C   LIG    1        0.752  -4.678   7.133  0.00  0.00    +0.240 C 
ATOM     12  O   LIG    1        1.099  -3.772   8.183  0.00  0.00    -0.380 OA
ATOM     13  C   LIG    1        1.134  -2.402   7.774  0.00  0.00    +0.240 C 
ATOM     14  C   LIG    1       -0.239  -2.004   7.225  0.00  0.00    +0.150 C 
ENDBRANCH   3   9
ENDBRANCH   1   2
BRANCH   1  15
ATOM     15  N   LIG    1       -1.004  -3.685   2.560  0.00  0.00    -0.650 NA
ATOM     16  H   LIG    1       -0.819  -4.376   3.273  0.00  0.00    +0.350 HD
BRANCH  15  17
ATOM     17  C   LIG    1       -0.020  -3.774   1.473  0.00  0.00    +0.180 C 
ATOM     18  C   LIG    1        1.425  -3.961   1.964  0.00  0.00    +0.000 C 
ATOM     19  C   LIG    1        1.160  -5.477   1.916  0.00  0.00    +0.020 C 
ATOM     20  C   LIG    1        0.089  -5.177   0.854  0.00  0.00    +0.050 C 
BRANCH  17  24
ATOM     21  C   LIG    1       -0.519   0.702  -0.717  0.00  0.00    +0.250 C 
ATOM     22  C   LIG    1       -0.385  -0.777  -0.459  0.00  0.00    +0.180 A 
ATOM     23  N   LIG    1       -0.262  -1.357   0.711  0.00  0.00    -0.480 NA
ATOM     24  C   LIG    1       -0.174  -2.675   0.454  0.00  0.00    +0.200 A 
ATOM     25  N   LIG    1       -0.247  -2.825  -0.835  0.00  0.00    -0.370 NA
ATOM     26  O   LIG    1       -0.374  -1.747  -1.377  0.00  0.00    +0.080 OA
ENDBRANCH  17  24
ENDBRANCH  15  17
ENDBRANCH   1  15
TORSDOF 5
