REMARK  Name = ZINCrg00000BljXk.0
REMARK                            x       y       z     vdW  Elec       q    Type
REMARK                         _______ _______ _______ _____ _____    ______ ____
ROOT
ATOM      1  C   LIG    1       -1.306   0.551  -4.541  0.00  0.00    +0.240 C 
ATOM      2  C   LIG    1       -0.992   1.746  -3.643  0.00  0.00    +0.270 C 
ATOM      3  N   LIG    1       -0.288   1.272  -2.443  0.00  0.00    -0.620 N 
ATOM      4  C   LIG    1        0.915   0.446  -2.610  0.00  0.00    +0.290 C 
ATOM      5  C   LIG    1        0.576  -0.740  -3.519  0.00  0.00    -0.000 C 
ATOM      6  C   LIG    1       -0.742   1.585  -1.213  0.00  0.00    +0.510 C 
ATOM      7  O   LIG    1       -1.736   2.268  -1.088  0.00  0.00    -0.520 OA
ATOM      8  C   LIG    1       -0.015  -0.219  -4.831  0.00  0.00    +0.160 C 
ENDROOT
BRANCH   1  11
ATOM      9  O   LIG    1       -3.920   1.092  -4.912  0.00  0.00    -0.520 OA
ATOM     10  C   LIG    1       -3.211   1.265  -5.881  0.00  0.00    +0.520 C 
ATOM     11  N   LIG    1       -1.888   1.022  -5.800  0.00  0.00    -0.720 N 
ATOM     12  H   LIG    1       -1.321   1.161  -6.574  0.00  0.00    +0.400 HD
BRANCH  10  13
ATOM     13  C   LIG    1       -3.810   1.750  -7.176  0.00  0.00    +0.120 C 
BRANCH  13  14
ATOM     14  C   LIG    1       -5.294   1.942  -7.003  0.00  0.00    -0.040 A 
ATOM     15  C   LIG    1       -6.162   0.899  -7.266  0.00  0.00    +0.040 A 
ATOM     16  C   LIG    1       -7.523   1.071  -7.102  0.00  0.00    +0.070 A 
ATOM     17  C   LIG    1       -8.020   2.292  -6.684  0.00  0.00    -0.070 A 
ATOM     18  C   LIG    1       -7.152   3.341  -6.425  0.00  0.00    +0.110 A 
ATOM     19  F   LIG    1       -7.635   4.534  -6.016  0.00  0.00    -0.130 F 
ATOM     20 CL   LIG    1       -9.730   2.512  -6.484  0.00  0.00    -0.050 Cl
ATOM     21  C   LIG    1       -5.788   3.164  -6.585  0.00  0.00    +0.010 A 
ENDBRANCH  13  14
ENDBRANCH  10  13
ENDBRANCH   1  11
BRANCH   8  22
ATOM     22  O   LIG    1       -0.303  -1.321  -5.694  0.00  0.00    -0.560 OA
ATOM     23  H   LIG    1        0.471  -1.854  -5.922  0.00  0.00    +0.380 HD
ENDBRANCH   8  22
BRANCH   6  24
ATOM     24  C   LIG    1       -0.013   1.086   0.008  0.00  0.00    +0.140 C 
BRANCH  24  25
ATOM     25  C   LIG    1       -0.718   1.572   1.248  0.00  0.00    -0.230 A 
ATOM     26  C   LIG    1       -1.710   0.927   1.904  0.00  0.00    +0.250 A 
ATOM     27  N   LIG    1       -2.070   1.689   2.958  0.00  0.00    -0.470 N 
ATOM     28  H   LIG    1       -2.759   1.477   3.607  0.00  0.00    +0.440 HD
ATOM     29  N   LIG    1       -1.273   2.841   2.949  0.00  0.00    -0.290 NA
ATOM     30  C   LIG    1       -0.459   2.767   1.927  0.00  0.00    +0.250 A 
ENDBRANCH  24  25
ENDBRANCH   6  24
TORSDOF 6
