REMARK  Name = ZINCnE000001Hxbs.0
REMARK                            x       y       z     vdW  Elec       q    Type
REMARK                         _______ _______ _______ _____ _____    ______ ____
ROOT
ATOM      1  C   LIG    1        1.701   3.445  -1.927  0.00  0.00    +0.510 C 
ATOM      2  N   LIG    1        0.500   2.840  -1.848  0.00  0.00    -0.720 N 
ATOM      3  H   LIG    1       -0.027   2.702  -2.651  0.00  0.00    +0.390 HD
ATOM      4  O   LIG    1        2.400   3.536  -0.940  0.00  0.00    -0.540 OA
ENDROOT
BRANCH   2   5
ATOM      5  C   LIG    1       -0.010   2.390  -0.551  0.00  0.00    +0.260 C 
ATOM      6  C   LIG    1       -0.923   3.473   0.062  0.00  0.00    +0.000 C 
ATOM      7  C   LIG    1       -2.353   3.039  -0.345  0.00  0.00    +0.000 C 
ATOM      8  C   LIG    1       -2.290   1.496  -0.224  0.00  0.00    +0.030 C 
ATOM      9  C   LIG    1       -0.880   1.134  -0.733  0.00  0.00    -0.140 C 
ATOM     10  C   LIG    1       -0.940   0.747  -2.212  0.00  0.00    +0.030 C 
BRANCH   9  11
ATOM     11  C   LIG    1       -0.317  -0.006   0.076  0.00  0.00    +0.500 C 
ATOM     12  O   LIG    1        0.705   0.152   0.724  0.00  0.00    -0.690 OA
ATOM     13  O   LIG    1       -0.882  -1.086   0.084  0.00  0.00    -0.700 OA
ENDBRANCH   9  11
ENDBRANCH   2   5
BRANCH   1  14
ATOM     14  C   LIG    1        2.177   4.009  -3.241  0.00  0.00    -0.030 C 
BRANCH  14  16
ATOM     15  C   LIG    1        3.997   2.310  -3.446  0.00  0.00    +0.000 C 
ATOM     16  C   LIG    1        3.688   3.806  -3.366  0.00  0.00    +0.040 C 
ENDBRANCH  14  16
BRANCH  14  17
ATOM     17  C   LIG    1        1.856   5.504  -3.301  0.00  0.00    +0.040 C 
BRANCH  17  18
ATOM     18  C   LIG    1        2.224   6.050  -4.682  0.00  0.00    +0.070 C 
BRANCH  18  19
ATOM     19  C   LIG    1        1.908   7.522  -4.741  0.00  0.00    -0.080 A 
ATOM     20  C   LIG    1        0.663   7.945  -5.167  0.00  0.00    +0.000 A 
ATOM     21  C   LIG    1        0.372   9.296  -5.217  0.00  0.00    +0.000 A 
ATOM     22  C   LIG    1        1.329  10.223  -4.849  0.00  0.00    -0.010 A 
ATOM     23  C   LIG    1        2.576   9.800  -4.428  0.00  0.00    +0.000 A 
ATOM     24  C   LIG    1        2.866   8.449  -4.374  0.00  0.00    +0.000 A 
ENDBRANCH  18  19
ENDBRANCH  17  18
ENDBRANCH  14  17
ENDBRANCH   1  14
TORSDOF 7
