REMARK  Name = ZINCpe00000gMYSB.0
REMARK                            x       y       z     vdW  Elec       q    Type
REMARK                         _______ _______ _______ _____ _____    ______ ____
ROOT
ATOM      1  C   LIG    1       -3.499   1.480   0.489  0.00  0.00    +0.240 A 
ATOM      2  C   LIG    1       -2.375   0.701   0.696  0.00  0.00    -0.060 A 
ATOM      3  C   LIG    1       -1.110   1.268   0.592  0.00  0.00    +0.270 A 
ATOM      4  C   LIG    1       -0.971   2.620   0.285  0.00  0.00    -0.050 A 
ATOM      5  C   LIG    1       -2.074   3.397   0.073  0.00  0.00    +0.160 A 
ATOM      6  C   LIG    1       -3.353   2.841   0.174  0.00  0.00    -0.170 A 
ENDROOT
BRANCH   1  12
ATOM      7  C   LIG    1       -4.548  -0.910  -1.177  0.00  0.00    +0.220 C 
ATOM      8  C   LIG    1       -5.271  -0.125  -0.113  0.00  0.00    +0.260 A 
ATOM      9  N   LIG    1       -6.496  -0.324   0.298  0.00  0.00    -0.330 NA
ATOM     10  N   LIG    1       -6.808   0.519   1.216  0.00  0.00    -0.040 NA
ATOM     11  N   LIG    1       -5.813   1.305   1.456  0.00  0.00    -0.040 NA
ATOM     12  N   LIG    1       -4.775   0.916   0.592  0.00  0.00    -0.340 N 
ENDBRANCH   1  12
BRANCH   3  13
ATOM     13  N   LIG    1        0.020   0.485   0.799  0.00  0.00    -0.850 N 
ATOM     14  H   LIG    1        0.903   0.878   0.723  0.00  0.00    +0.410 HD
ATOM     15  H   LIG    1       -0.075  -0.455   1.017  0.00  0.00    +0.410 HD
ENDBRANCH   3  13
BRANCH   6  16
ATOM     16  C   LIG    1       -4.542   3.680  -0.048  0.00  0.00    +0.510 C 
ATOM     17  O   LIG    1       -5.646   3.174  -0.072  0.00  0.00    -0.490 OA
BRANCH  16  18
ATOM     18  O   LIG    1       -4.405   5.009  -0.225  0.00  0.00    -0.320 OA
BRANCH  18  19
ATOM     19  C   LIG    1       -5.621   5.774  -0.440  0.00  0.00    +0.180 C 
ATOM     20  C   LIG    1       -6.172   6.244   0.908  0.00  0.00    +0.060 C 
BRANCH  19  21
ATOM     21  C   LIG    1       -5.316   6.971  -1.303  0.00  0.00    +0.520 C 
ATOM     22  N   LIG    1       -6.300   7.830  -1.636  0.00  0.00    -0.720 N 
ATOM     23  H   LIG    1       -7.204   7.678  -1.319  0.00  0.00    +0.400 HD
ATOM     24  O   LIG    1       -4.185   7.160  -1.699  0.00  0.00    -0.520 OA
BRANCH  22  25
ATOM     25  C   LIG    1       -6.003   8.993  -2.475  0.00  0.00    +0.260 C 
BRANCH  25  26
ATOM     26  C   LIG    1       -7.284   9.799  -2.701  0.00  0.00    -0.030 C 
ATOM     27  C   LIG    1       -7.002  10.942  -3.678  0.00  0.00    +0.030 C 
ATOM     28  C   LIG    1       -7.767  10.374  -1.368  0.00  0.00    +0.020 C 
ENDBRANCH  25  26
ENDBRANCH  22  25
ENDBRANCH  19  21
ENDBRANCH  18  19
ENDBRANCH  16  18
ENDBRANCH   6  16
TORSDOF 8
