REMARK  Name = ZINCqH0000003bKc.0
REMARK                            x       y       z     vdW  Elec       q    Type
REMARK                         _______ _______ _______ _____ _____    ______ ____
ROOT
ATOM      1  N   LIG    1       -2.288   6.102  -0.107  0.00  0.00    -0.720 N 
ATOM      2  H   LIG    1       -1.458   6.512  -0.396  0.00  0.00    +0.400 HD
ATOM      3  C   LIG    1       -2.311   4.801   0.242  0.00  0.00    +0.540 C 
ATOM      4  O   LIG    1       -3.349   4.288   0.603  0.00  0.00    -0.510 OA
ENDROOT
BRANCH   1   5
ATOM      5  C   LIG    1       -3.517   6.898  -0.050  0.00  0.00    +0.310 C 
BRANCH   5   6
ATOM      6  C   LIG    1       -3.217   8.331  -0.493  0.00  0.00    -0.090 C 
ATOM      7  C   LIG    1       -2.683   8.320  -1.927  0.00  0.00    +0.070 C 
ATOM      8  C   LIG    1       -2.169   8.944   0.437  0.00  0.00    +0.070 C 
BRANCH   6  11
ATOM      9  N   LIG    1       -4.458  10.451  -0.783  0.00  0.00    -0.730 N 
ATOM     10  H   LIG    1       -3.628  10.861  -1.072  0.00  0.00    +0.400 HD
ATOM     11  C   LIG    1       -4.481   9.149  -0.434  0.00  0.00    +0.530 C 
ATOM     12  O   LIG    1       -5.519   8.637  -0.073  0.00  0.00    -0.530 OA
BRANCH   9  14
ATOM     13  C   LIG    1       -5.388  12.680  -1.169  0.00  0.00    +0.030 C 
ATOM     14  C   LIG    1       -5.687  11.247  -0.726  0.00  0.00    +0.250 C 
ENDBRANCH   9  14
ENDBRANCH   6  11
ENDBRANCH   5   6
ENDBRANCH   1   5
BRANCH   3  15
ATOM     15  C   LIG    1       -1.047   3.982   0.183  0.00  0.00    +0.050 C 
BRANCH  15  16
ATOM     16  C   LIG    1       -0.271   4.162   1.462  0.00  0.00    -0.090 A 
ATOM     17  C   LIG    1       -0.830   3.782   2.668  0.00  0.00    +0.040 A 
ATOM     18  C   LIG    1       -0.117   3.943   3.842  0.00  0.00    +0.010 A 
ATOM     19  C   LIG    1        1.151   4.493   3.810  0.00  0.00    +0.010 A 
ATOM     20  C   LIG    1        1.707   4.878   2.605  0.00  0.00    +0.000 A 
ATOM     21  C   LIG    1        0.996   4.713   1.431  0.00  0.00    +0.020 A 
ENDBRANCH  15  16
BRANCH  15  22
ATOM     22  S   LIG    1       -1.470   2.231  -0.027  0.00  0.00    -0.060 S 
BRANCH  22  23
ATOM     23  C   LIG    1        0.099   1.474  -0.294  0.00  0.00    -0.140 A 
ATOM     24  C   LIG    1        0.649   1.442  -1.570  0.00  0.00    +0.060 A 
ATOM     25  C   LIG    1        1.875   0.843  -1.777  0.00  0.00    +0.000 A 
ATOM     26  C   LIG    1        2.557   0.274  -0.717  0.00  0.00    +0.040 A 
ATOM     27  C   LIG    1        2.013   0.303   0.555  0.00  0.00    +0.000 A 
ATOM     28  C   LIG    1        0.786   0.901   0.769  0.00  0.00    +0.070 A 
ENDBRANCH  22  23
ENDBRANCH  15  22
ENDBRANCH   3  15
TORSDOF 8
