REMARK  Name = ZINCAx00000008Am.0
REMARK                            x       y       z     vdW  Elec       q    Type
REMARK                         _______ _______ _______ _____ _____    ______ ____
ROOT
ATOM      1  O   LIG    1       -0.904  -4.696  -1.973  0.00  0.00    -0.530 OA
ATOM      2  C   LIG    1       -1.402  -4.528  -0.880  0.00  0.00    +0.530 C 
ATOM      3  N   LIG    1       -1.353  -3.313  -0.297  0.00  0.00    -0.720 N 
ATOM      4  H   LIG    1       -1.751  -3.179   0.577  0.00  0.00    +0.410 HD
ENDROOT
BRANCH   3   5
ATOM      5  C   LIG    1       -0.698  -2.197  -0.984  0.00  0.00    +0.260 C 
ATOM      6  C   LIG    1        0.820  -2.179  -0.688  0.00  0.00    +0.070 C 
ATOM      7  C   LIG    1        1.161  -0.709  -0.588  0.00  0.00    +0.520 C 
ATOM      8  N   LIG    1        0.040   0.016  -0.429  0.00  0.00    -0.560 N 
ATOM      9  O   LIG    1        2.283  -0.251  -0.643  0.00  0.00    -0.500 OA
ATOM     10  C   LIG    1       -1.149  -0.843  -0.388  0.00  0.00    +0.280 C 
BRANCH   8  11
ATOM     11  C   LIG    1        0.012   1.412  -0.312  0.00  0.00    +0.170 A 
ATOM     12  C   LIG    1       -1.204   2.081  -0.278  0.00  0.00    -0.010 A 
ATOM     13  C   LIG    1       -1.232   3.456  -0.157  0.00  0.00    +0.040 A 
ATOM     14  C   LIG    1       -0.045   4.170  -0.082  0.00  0.00    +0.060 A 
ATOM     15  C   LIG    1        1.171   3.502  -0.121  0.00  0.00    +0.050 A 
ATOM     16  C   LIG    1        1.199   2.127  -0.236  0.00  0.00    +0.020 A 
BRANCH  14  17
ATOM     17  O   LIG    1       -0.073   5.525   0.032  0.00  0.00    -0.260 OA
BRANCH  17  18
ATOM     18  C   LIG    1       -0.403   6.058   1.237  0.00  0.00    +0.120 A 
ATOM     19  C   LIG    1       -0.596   5.229   2.334  0.00  0.00    -0.060 A 
ATOM     20  C   LIG    1       -0.926   5.774   3.559  0.00  0.00    +0.050 A 
ATOM     21  C   LIG    1       -1.076   7.143   3.691  0.00  0.00    -0.020 A 
ATOM     22  C   LIG    1       -0.890   7.969   2.599  0.00  0.00    +0.050 A 
ATOM     23  C   LIG    1       -0.554   7.430   1.372  0.00  0.00    -0.020 A 
ENDBRANCH  17  18
ENDBRANCH  14  17
ENDBRANCH   8  11
ENDBRANCH   3   5
BRANCH   2  24
ATOM     24  C   LIG    1       -2.076  -5.676  -0.174  0.00  0.00    +0.050 C 
BRANCH  24  25
ATOM     25  C   LIG    1       -1.992  -6.930  -1.046  0.00  0.00    +0.350 C 
BRANCH  25  26
ATOM     26  N   LIG    1       -2.647  -8.047  -0.359  0.00  0.00    -0.540 N 
ATOM     27  C   LIG    1       -1.930  -8.841   0.454  0.00  0.00    +0.700 A 
ATOM     28  N   LIG    1       -2.466  -9.877   1.118  0.00  0.00    -0.660 N 
ATOM     29  H   LIG    1       -1.903 -10.415   1.696  0.00  0.00    +0.430 HD
ATOM     30  C   LIG    1       -3.775 -10.187   0.994  0.00  0.00    +0.570 A 
ATOM     31  C   LIG    1       -4.609  -9.354   0.110  0.00  0.00    -0.200 A 
ATOM     32  C   LIG    1       -5.966  -9.609  -0.072  0.00  0.00    +0.140 A 
ATOM     33  C   LIG    1       -6.704  -8.800  -0.910  0.00  0.00    -0.010 A 
ATOM     34  C   LIG    1       -6.103  -7.739  -1.570  0.00  0.00    +0.100 A 
ATOM     35  C   LIG    1       -4.758  -7.474  -1.398  0.00  0.00    -0.030 A 
ATOM     36  O   LIG    1       -4.252 -11.130   1.595  0.00  0.00    -0.490 OA
ATOM     37  O   LIG    1       -0.745  -8.608   0.598  0.00  0.00    -0.540 OA
ATOM     38  C   LIG    1       -4.001  -8.277  -0.559  0.00  0.00    +0.200 A 
ENDBRANCH  25  26
ENDBRANCH  24  25
ENDBRANCH   2  24
TORSDOF 7
