REMARK  Name = ZINCpk000000obi2.0
REMARK                            x       y       z     vdW  Elec       q    Type
REMARK                         _______ _______ _______ _____ _____    ______ ____
ROOT
ATOM      1  S   LIG    1        0.487   0.507  -1.279  0.00  0.00    +2.690 S 
ATOM      2  O   LIG    1        0.405   1.925  -1.310  0.00  0.00    -0.950 OA
ATOM      3  O   LIG    1       -0.076  -0.281  -0.239  0.00  0.00    -0.930 OA
ENDROOT
BRANCH   1   4
ATOM      4  C   LIG    1        2.202   0.106  -1.335  0.00  0.00    -0.700 A 
ATOM      5  C   LIG    1        3.104   1.006  -1.870  0.00  0.00    +0.190 A 
ATOM      6  C   LIG    1        4.450   0.691  -1.913  0.00  0.00    -0.010 A 
ATOM      7  C   LIG    1        4.892  -0.523  -1.424  0.00  0.00    +0.190 A 
ATOM      8  C   LIG    1        3.989  -1.423  -0.888  0.00  0.00    -0.700 A 
ATOM      9  C   LIG    1        2.644  -1.108  -0.844  0.00  0.00    +0.230 A 
BRANCH   8  10
ATOM     10  S   LIG    1        4.553  -2.970  -0.262  0.00  0.00    +2.700 S 
ATOM     11  O   LIG    1        3.576  -3.404   0.675  0.00  0.00    -0.950 OA
ATOM     12  O   LIG    1        5.924  -2.793   0.070  0.00  0.00    -0.960 OA
BRANCH  10  13
ATOM     13  N   LIG    1        4.511  -4.051  -1.516  0.00  0.00    -1.250 NA
ATOM     14  H   LIG    1        3.855  -3.948  -2.223  0.00  0.00    +0.420 HD
ATOM     15  H   LIG    1        5.143  -4.787  -1.544  0.00  0.00    +0.420 HD
ENDBRANCH  10  13
ENDBRANCH   8  10
ENDBRANCH   1   4
BRANCH   1  16
ATOM     16  N   LIG    1       -0.189  -0.032  -2.692  0.00  0.00    -1.100 NA
ATOM     17  H   LIG    1       -0.557   0.603  -3.326  0.00  0.00    +0.420 HD
BRANCH  16  19
ATOM     18  C   LIG    1       -1.578  -2.125  -2.646  0.00  0.00    -0.080 C 
ATOM     19  C   LIG    1       -0.230  -1.466  -2.984  0.00  0.00    +0.250 C 
ATOM     20  C   LIG    1       -0.530  -1.787  -4.458  0.00  0.00    -0.040 C 
ATOM     21  C   LIG    1       -1.308  -0.684  -5.179  0.00  0.00    +0.050 C 
ATOM     22  C   LIG    1       -1.419  -2.934  -3.944  0.00  0.00    +0.160 C 
BRANCH  18  24
ATOM     23  C   LIG    1       -2.871  -3.723  -1.226  0.00  0.00    +0.000 C 
ATOM     24  C   LIG    1       -1.540  -2.984  -1.380  0.00  0.00    +0.040 C 
ENDBRANCH  18  24
BRANCH  18  25
ATOM     25  C   LIG    1       -2.759  -1.152  -2.668  0.00  0.00    +0.040 C 
ATOM     26  C   LIG    1       -2.824  -0.398  -1.339  0.00  0.00    +0.000 C 
ENDBRANCH  18  25
BRANCH  22  27
ATOM     27  O   LIG    1       -0.717  -4.166  -3.769  0.00  0.00    -0.360 OA
ATOM     28  C   LIG    1       -1.111  -5.194  -4.679  0.00  0.00    +0.200 C 
ENDBRANCH  22  27
ENDBRANCH  16  19
ENDBRANCH   1  16
TORSDOF 8
