REMARK  Name = ZINCvU00000008Up.0
REMARK                            x       y       z     vdW  Elec       q    Type
REMARK                         _______ _______ _______ _____ _____    ______ ____
ROOT
ATOM      1  C   LIG    1        1.271   2.021  -0.471  0.00  0.00    +0.230 C 
ATOM      2  C   LIG    1        2.056   0.750  -0.868  0.00  0.00    +0.060 C 
ATOM      3  C   LIG    1        0.924  -0.224  -1.318  0.00  0.00    +0.020 C 
ATOM      4  C   LIG    1        0.524   0.197  -2.734  0.00  0.00    +0.000 C 
ATOM      5  C   LIG    1       -0.830  -0.400  -3.111  0.00  0.00    +0.000 C 
ATOM      6  C   LIG    1       -1.891   0.142  -2.148  0.00  0.00    +0.020 C 
ATOM      7  C   LIG    1       -1.550  -0.334  -0.736  0.00  0.00    +0.030 C 
ATOM      8  C   LIG    1       -0.181   0.146  -0.311  0.00  0.00    +0.220 C 
ATOM      9  N   LIG    1       -0.107   1.601  -0.159  0.00  0.00    -0.590 N 
ATOM     10  C   LIG    1       -1.121   2.414   0.198  0.00  0.00    +0.590 C 
ATOM     11  O   LIG    1       -2.232   1.955   0.382  0.00  0.00    -0.520 OA
ENDROOT
BRANCH  10  12
ATOM     12  C   LIG    1       -0.883   3.863   0.367  0.00  0.00    -0.110 A 
ATOM     13  C   LIG    1        0.416   4.371   0.316  0.00  0.00    +0.010 A 
ATOM     14  C   LIG    1        0.631   5.725   0.469  0.00  0.00    +0.000 A 
ATOM     15  C   LIG    1       -0.436   6.578   0.683  0.00  0.00    +0.040 A 
ATOM     16  C   LIG    1       -1.726   6.081   0.741  0.00  0.00    +0.010 A 
ATOM     17  C   LIG    1       -1.956   4.729   0.584  0.00  0.00    +0.080 A 
ENDBRANCH  10  12
BRANCH   1  19
ATOM     18  O   LIG    1        0.217   3.281  -2.166  0.00  0.00    -0.480 OA
ATOM     19  C   LIG    1        1.262   2.997  -1.620  0.00  0.00    +0.510 C 
ATOM     20  N   LIG    1        2.416   3.554  -2.039  0.00  0.00    -0.670 N 
ATOM     21  H   LIG    1        3.260   3.266  -1.659  0.00  0.00    +0.420 HD
BRANCH  20  22
ATOM     22  C   LIG    1        2.395   4.549  -3.025  0.00  0.00    +0.120 A 
ATOM     23  C   LIG    1        1.439   4.512  -4.030  0.00  0.00    +0.110 A 
ATOM     24  C   LIG    1        1.420   5.495  -5.001  0.00  0.00    -0.170 A 
ATOM     25  C   LIG    1        2.352   6.516  -4.973  0.00  0.00    +0.100 A 
ATOM     26  C   LIG    1        3.307   6.557  -3.973  0.00  0.00    +0.020 A 
ATOM     27  C   LIG    1        3.329   5.579  -2.995  0.00  0.00    +0.110 A 
ATOM     28  F   LIG    1        4.258   5.622  -2.016  0.00  0.00    -0.130 F 
BRANCH  24  29
ATOM     29  C   LIG    1        0.382   5.455  -6.092  0.00  0.00    +0.510 C 
ATOM     30  F   LIG    1        0.031   4.126  -6.354  0.00  0.00    -0.170 F 
ATOM     31  F   LIG    1        0.902   6.037  -7.253  0.00  0.00    -0.170 F 
ATOM     32  F   LIG    1       -0.753   6.165  -5.683  0.00  0.00    -0.170 F 
ENDBRANCH  24  29
ENDBRANCH  20  22
ENDBRANCH   1  19
TORSDOF 4
