REMARK  Name = ZINCqH00000076kG.0
REMARK                            x       y       z     vdW  Elec       q    Type
REMARK                         _______ _______ _______ _____ _____    ______ ____
ROOT
ATOM      1  N   LIG    1       -2.443   1.712   0.024  0.00  0.00    -0.720 N 
ATOM      2  H   LIG    1       -2.538   0.746   0.020  0.00  0.00    +0.400 HD
ATOM      3  C   LIG    1       -1.215   2.268   0.020  0.00  0.00    +0.600 C 
ATOM      4  O   LIG    1       -1.096   3.478   0.026  0.00  0.00    -0.550 OA
ENDROOT
BRANCH   3   5
ATOM      5  C   LIG    1       -0.017   1.409   0.010  0.00  0.00    -0.300 A 
ATOM      6  C   LIG    1        1.296   1.834  -0.001  0.00  0.00    +0.320 A 
ATOM      7  N   LIG    1        2.073   0.739  -0.014  0.00  0.00    -0.350 N 
ATOM      8  N   LIG    1        1.248  -0.391  -0.012  0.00  0.00    -0.280 NA
ATOM      9  C   LIG    1        0.002  -0.004   0.002  0.00  0.00    +0.270 A 
BRANCH   7  10
ATOM     10  C   LIG    1        3.538   0.729  -0.028  0.00  0.00    +0.380 C 
BRANCH  10  11
ATOM     11  C   LIG    1        4.046  -0.095   1.126  0.00  0.00    -0.120 A 
ATOM     12  C   LIG    1        4.298   0.505   2.346  0.00  0.00    +0.020 A 
ATOM     13  C   LIG    1        4.760  -0.252   3.407  0.00  0.00    +0.000 A 
ATOM     14  C   LIG    1        4.979  -1.607   3.244  0.00  0.00    +0.010 A 
ATOM     15  C   LIG    1        4.732  -2.206   2.023  0.00  0.00    +0.010 A 
ATOM     16  C   LIG    1        4.266  -1.450   0.964  0.00  0.00    +0.050 A 
ENDBRANCH  10  11
ENDBRANCH   7  10
ENDBRANCH   3   5
BRANCH   1  17
ATOM     17  C   LIG    1       -3.634   2.565   0.035  0.00  0.00    +0.300 C 
ATOM     18  C   LIG    1       -3.967   2.957   1.475  0.00  0.00    +0.050 C 
BRANCH  17  25
ATOM     19  C   LIG    1       -5.852   2.510  -1.133  0.00  0.00    +0.130 A 
ATOM     20  C   LIG    1       -6.918   1.816  -1.688  0.00  0.00    -0.070 A 
ATOM     21  C   LIG    1       -6.929   0.434  -1.662  0.00  0.00    +0.050 A 
ATOM     22  C   LIG    1       -5.877  -0.256  -1.089  0.00  0.00    -0.120 A 
ATOM     23  C   LIG    1       -4.811   0.433  -0.541  0.00  0.00    +0.050 A 
ATOM     24  C   LIG    1       -5.891  -1.763  -1.063  0.00  0.00    +0.100 C 
ATOM     25  C   LIG    1       -4.795   1.814  -0.564  0.00  0.00    -0.120 A 
BRANCH  19  27
ATOM     26  C   LIG    1       -6.963   4.518  -1.754  0.00  0.00    +0.250 C 
ATOM     27  O   LIG    1       -5.842   3.869  -1.152  0.00  0.00    -0.310 OA
ENDBRANCH  19  27
ENDBRANCH  17  25
ENDBRANCH   1  17
TORSDOF 6
