REMARK  Name = ZINCrD00000fNfRK.0
REMARK                            x       y       z     vdW  Elec       q    Type
REMARK                         _______ _______ _______ _____ _____    ______ ____
ROOT
ATOM      1  N   LIG    1        0.002  -0.004   0.002  0.00  0.00    -0.560 NA
ATOM      2  C   LIG    1       -0.018   1.465   0.010  0.00  0.00    +0.200 C 
ATOM      3  C   LIG    1        1.419   1.992  -0.001  0.00  0.00    +0.210 C 
ATOM      4  N   LIG    1        2.138   1.472   1.171  0.00  0.00    -0.490 N 
ATOM      5  C   LIG    1        2.158   0.003   1.162  0.00  0.00    +0.200 C 
ATOM      6  C   LIG    1        0.721  -0.525   1.173  0.00  0.00    +0.190 C 
ENDROOT
BRANCH   4   7
ATOM      7  C   LIG    1        3.433   1.990   1.233  0.00  0.00    +0.110 A 
ATOM      8  C   LIG    1        4.525   1.131   1.278  0.00  0.00    +0.000 A 
ATOM      9  C   LIG    1        5.805   1.647   1.340  0.00  0.00    +0.050 A 
ATOM     10  C   LIG    1        6.000   3.016   1.357  0.00  0.00    +0.040 A 
ATOM     11  C   LIG    1        4.916   3.873   1.312  0.00  0.00    -0.160 A 
ATOM     12  C   LIG    1        3.634   3.364   1.245  0.00  0.00    +0.050 A 
BRANCH  11  13
ATOM     13  C   LIG    1        5.134   5.364   1.330  0.00  0.00    +0.510 C 
ATOM     14  F   LIG    1        4.498   5.915   2.447  0.00  0.00    -0.180 F 
ATOM     15  F   LIG    1        4.602   5.927   0.165  0.00  0.00    -0.180 F 
ATOM     16  F   LIG    1        6.506   5.634   1.393  0.00  0.00    -0.180 F 
ENDBRANCH  11  13
ENDBRANCH   4   7
BRANCH   1  17
ATOM     17  C   LIG    1       -1.361  -0.549  -0.064  0.00  0.00    +0.490 C 
BRANCH  17  27
ATOM     18  O   LIG    1       -1.582  -1.375  -2.859  0.00  0.00    -0.480 OA
ATOM     19  C   LIG    1       -1.433  -2.186  -1.965  0.00  0.00    +0.640 A 
ATOM     20  O   LIG    1       -1.350  -3.515  -2.131  0.00  0.00    -0.240 OA
ATOM     21  C   LIG    1       -1.193  -4.106  -0.921  0.00  0.00    +0.040 A 
ATOM     22  C   LIG    1       -1.062  -5.427  -0.524  0.00  0.00    +0.060 A 
ATOM     23  C   LIG    1       -0.912  -5.733   0.815  0.00  0.00    +0.030 A 
ATOM     24  C   LIG    1       -0.891  -4.725   1.763  0.00  0.00    +0.040 A 
ATOM     25  C   LIG    1       -1.021  -3.405   1.377  0.00  0.00    +0.020 A 
ATOM     26  C   LIG    1       -1.172  -3.091   0.036  0.00  0.00    +0.070 A 
ATOM     27  N   LIG    1       -1.323  -1.889  -0.655  0.00  0.00    -0.540 N 
ENDBRANCH  17  27
ENDBRANCH   1  17
TORSDOF 4
