REMARK  Name = ZINCvU0000000D7P.0
REMARK                            x       y       z     vdW  Elec       q    Type
REMARK                         _______ _______ _______ _____ _____    ______ ____
ROOT
ATOM      1  C   LIG    1       -2.648  -3.929   2.527  0.00  0.00    +0.200 C 
ATOM      2  C   LIG    1       -1.111  -3.921   2.548  0.00  0.00    +0.280 C 
ATOM      3  N   LIG    1       -0.640  -5.262   2.165  0.00  0.00    -0.600 N 
ATOM      4  C   LIG    1       -1.208  -6.422   2.871  0.00  0.00    +0.200 C 
ATOM      5  C   LIG    1       -2.736  -6.308   2.837  0.00  0.00    +0.220 C 
ATOM      6  C   LIG    1       -0.723  -6.431   4.322  0.00  0.00    +0.040 C 
ATOM      7  C   LIG    1        0.287  -5.422   1.201  0.00  0.00    +0.600 C 
ATOM      8  O   LIG    1        0.793  -4.448   0.675  0.00  0.00    -0.510 OA
ATOM      9  O   LIG    1       -3.123  -5.019   3.321  0.00  0.00    -0.360 OA
ENDROOT
BRANCH   1  16
ATOM     10  C   LIG    1       -2.928  -1.617   0.817  0.00  0.00    +0.090 C 
ATOM     11  C   LIG    1       -3.299  -1.525   2.275  0.00  0.00    -0.070 A 
ATOM     12  C   LIG    1       -3.772  -0.335   2.794  0.00  0.00    +0.010 A 
ATOM     13  C   LIG    1       -4.112  -0.251   4.131  0.00  0.00    +0.010 A 
ATOM     14  C   LIG    1       -3.980  -1.358   4.949  0.00  0.00    -0.010 A 
ATOM     15  C   LIG    1       -3.510  -2.549   4.429  0.00  0.00    +0.040 A 
ATOM     16  C   LIG    1       -3.165  -2.632   3.093  0.00  0.00    -0.090 A 
ENDBRANCH   1  16
BRANCH   7  17
ATOM     17  C   LIG    1        0.687  -6.769   0.786  0.00  0.00    -0.060 A 
ATOM     18  C   LIG    1        1.518  -7.077  -0.270  0.00  0.00    +0.060 A 
ATOM     19  C   LIG    1        1.631  -8.471  -0.301  0.00  0.00    +0.000 A 
ATOM     20  C   LIG    1        0.867  -8.958   0.721  0.00  0.00    +0.020 A 
ATOM     21  O   LIG    1        0.306  -7.925   1.370  0.00  0.00    -0.140 OA
BRANCH  20  22
ATOM     22  C   LIG    1        0.691 -10.385   1.059  0.00  0.00    +0.040 A 
ATOM     23  C   LIG    1        0.875 -10.822   2.372  0.00  0.00    +0.080 A 
ATOM     24  C   LIG    1        0.710 -12.156   2.682  0.00  0.00    +0.120 A 
ATOM     25  C   LIG    1        0.363 -13.061   1.694  0.00  0.00    -0.020 A 
ATOM     26  C   LIG    1        0.179 -12.636   0.391  0.00  0.00    +0.130 A 
ATOM     27  C   LIG    1        0.341 -11.304   0.066  0.00  0.00    -0.020 A 
ATOM     28 CL   LIG    1        0.111 -10.773  -1.570  0.00  0.00    -0.020 Cl
BRANCH  25  29
ATOM     29  N   LIG    1        0.188 -14.491   2.034  0.00  0.00    +0.020 N 
ATOM     30  O   LIG    1       -0.118 -15.291   1.168  0.00  0.00    -0.150 OA
ATOM     31  O   LIG    1        0.349 -14.869   3.181  0.00  0.00    -0.140 OA
ENDBRANCH  25  29
ENDBRANCH  20  22
ENDBRANCH   7  17
TORSDOF 4
