REMARK  Name = ZINCpk00000KfKgT.0
REMARK                            x       y       z     vdW  Elec       q    Type
REMARK                         _______ _______ _______ _____ _____    ______ ____
ROOT
ATOM      1  C   LIG    1       -0.126   0.936   2.457  0.00  0.00    +0.140 C 
ATOM      2  C   LIG    1       -0.755   1.357   3.787  0.00  0.00    +0.040 C 
ATOM      3  C   LIG    1       -2.257   1.061   3.752  0.00  0.00    +0.000 C 
ATOM      4  C   LIG    1       -2.888   1.803   2.570  0.00  0.00    +0.030 C 
ATOM      5  C   LIG    1       -2.197   1.369   1.275  0.00  0.00    +0.180 C 
ATOM      6  N   LIG    1       -0.763   1.673   1.358  0.00  0.00    -0.500 NA
ENDROOT
BRANCH   1   7
ATOM      7  C   LIG    1        1.371   1.248   2.480  0.00  0.00    +0.330 C 
BRANCH   7  11
ATOM      8  C   LIG    1        3.335  -0.104   6.894  0.00  0.00    +0.190 C 
ATOM      9  C   LIG    1        2.866  -0.105   5.462  0.00  0.00    +0.220 A 
ATOM     10  N   LIG    1        2.289   0.896   4.851  0.00  0.00    -0.310 NA
ATOM     11  N   LIG    1        2.016   0.470   3.541  0.00  0.00    -0.370 N 
ATOM     12  C   LIG    1        2.469  -0.793   3.452  0.00  0.00    +0.280 A 
ATOM     13  C   LIG    1        2.403  -1.673   2.230  0.00  0.00    +0.190 C 
ATOM     14  N   LIG    1        2.976  -1.125   4.612  0.00  0.00    -0.540 NA
ENDBRANCH   7  11
ENDBRANCH   1   7
BRANCH   6  15
ATOM     15  C   LIG    1       -0.091   1.398   0.081  0.00  0.00    +0.240 C 
BRANCH  15  16
ATOM     16  C   LIG    1       -0.264  -0.057  -0.274  0.00  0.00    +0.480 C 
ATOM     17  N   LIG    1        0.182  -0.518  -1.459  0.00  0.00    -0.720 N 
ATOM     18  H   LIG    1        0.614   0.085  -2.084  0.00  0.00    +0.400 HD
ATOM     19  O   LIG    1       -0.804  -0.811   0.506  0.00  0.00    -0.530 OA
BRANCH  17  20
ATOM     20  C   LIG    1        0.014  -1.932  -1.804  0.00  0.00    +0.350 C 
BRANCH  20  21
ATOM     21  C   LIG    1        0.593  -2.188  -3.172  0.00  0.00    +0.100 A 
ATOM     22  C   LIG    1        1.891  -2.646  -3.289  0.00  0.00    -0.010 A 
ATOM     23  C   LIG    1        2.413  -2.882  -4.552  0.00  0.00    +0.070 A 
ATOM     24  C   LIG    1        1.609  -2.638  -5.654  0.00  0.00    -0.020 A 
ATOM     25  C   LIG    1        0.322  -2.175  -5.460  0.00  0.00    +0.260 A 
ATOM     26  N   LIG    1       -0.143  -1.966  -4.244  0.00  0.00    -0.470 NA
ENDBRANCH  20  21
ENDBRANCH  17  20
ENDBRANCH  15  16
ENDBRANCH   6  15
TORSDOF 6
