REMARK  Name = ZINCpe000000SzoB.0
REMARK                            x       y       z     vdW  Elec       q    Type
REMARK                         _______ _______ _______ _____ _____    ______ ____
ROOT
ATOM      1  C   LIG    1        3.716   3.907   0.722  0.00  0.00    +0.470 C 
ATOM      2  N   LIG    1        4.222   5.155   0.699  0.00  0.00    -0.630 N 
ATOM      3  H   LIG    1        3.641   5.912   0.524  0.00  0.00    +0.420 HD
ATOM      4  O   LIG    1        4.443   2.961   0.942  0.00  0.00    -0.500 OA
ENDROOT
BRANCH   2   5
ATOM      5  C   LIG    1        5.575   5.359   0.927  0.00  0.00    +0.040 A 
ATOM      6  C   LIG    1        6.188   6.581   0.926  0.00  0.00    -0.210 A 
ATOM      7  C   LIG    1        7.613   6.510   1.193  0.00  0.00    -0.050 A 
ATOM      8  C   LIG    1        8.034   5.255   1.386  0.00  0.00    -0.240 A 
ATOM      9  C   LIG    1        9.470   4.871   1.684  0.00  0.00    +0.120 C 
ATOM     10  C   LIG    1       10.380   6.047   1.317  0.00  0.00    +0.020 C 
ATOM     11  C   LIG    1        9.827   7.324   1.958  0.00  0.00    +0.020 C 
ATOM     12  C   LIG    1        8.530   7.721   1.249  0.00  0.00    +0.100 C 
ATOM     13  S   LIG    1        6.698   4.122   1.253  0.00  0.00    +0.290 S 
BRANCH   6  14
ATOM     14  C   LIG    1        5.476   7.839   0.680  0.00  0.00    +0.590 C 
ATOM     15  O   LIG    1        4.991   8.456   1.611  0.00  0.00    -0.530 OA
ATOM     16  N   LIG    1        5.358   8.312  -0.577  0.00  0.00    -0.850 N 
ATOM     17  H   LIG    1        4.886   9.144  -0.739  0.00  0.00    +0.400 HD
ATOM     18  H   LIG    1        5.744   7.820  -1.318  0.00  0.00    +0.400 HD
ENDBRANCH   6  14
ENDBRANCH   2   5
BRANCH   1  19
ATOM     19  C   LIG    1        2.246   3.685   0.475  0.00  0.00    +0.280 C 
BRANCH  19  25
ATOM     20  C   LIG    1        3.568  -2.411  -0.486  0.00  0.00    +0.100 C 
ATOM     21  C   LIG    1        3.041  -1.677   0.720  0.00  0.00    +0.510 C 
ATOM     22  N   LIG    1        2.387  -0.508   0.564  0.00  0.00    -0.620 N 
ATOM     23  C   LIG    1        1.758   0.164   1.711  0.00  0.00    +0.290 C 
ATOM     24  C   LIG    1        2.230   1.621   1.740  0.00  0.00    +0.170 C 
ATOM     25  N   LIG    1        1.967   2.244   0.436  0.00  0.00    -0.510 NA
ATOM     26  C   LIG    1        2.735   1.588  -0.631  0.00  0.00    +0.180 C 
ATOM     27  C   LIG    1        2.284   0.129  -0.758  0.00  0.00    +0.290 C 
ATOM     28  O   LIG    1        3.204  -2.137   1.830  0.00  0.00    -0.550 OA
ENDBRANCH  19  25
ENDBRANCH   1  19
TORSDOF 4
