REMARK  Name = ZINCvU00000003RJ.0
REMARK                            x       y       z     vdW  Elec       q    Type
REMARK                         _______ _______ _______ _____ _____    ______ ____
ROOT
ATOM      1  C   LIG    1        1.319   1.932  -0.307  0.00  0.00    +0.290 A 
ATOM      2  C   LIG    1        1.236   3.289  -0.592  0.00  0.00    -0.080 A 
ATOM      3  C   LIG    1        0.003   3.919  -0.583  0.00  0.00    +0.190 A 
ATOM      4  C   LIG    1       -1.127   3.196  -0.288  0.00  0.00    -0.840 A 
ATOM      5  C   LIG    1       -1.063   1.836   0.003  0.00  0.00    +0.190 A 
ATOM      6  O   LIG    1       -2.177   1.145   0.316  0.00  0.00    -0.270 OA
ATOM      7  C   LIG    1       -3.413   1.497   0.004  0.00  0.00    +0.650 C 
ATOM      8  N   LIG    1       -3.862   2.736  -0.251  0.00  0.00    -0.930 N 
ATOM      9  O   LIG    1       -4.231   0.600  -0.060  0.00  0.00    -0.460 OA
ATOM     10  P   LIG    1       -2.772   3.975  -0.273  0.00  0.00    +2.560 P 
ATOM     11  O   LIG    1       -2.958   4.796  -1.491  0.00  0.00    -0.990 OA
ATOM     12  C   LIG    1        0.174   1.206  -0.008  0.00  0.00    -0.070 A 
ENDROOT
BRANCH   8  13
ATOM     13  C   LIG    1       -5.221   2.972  -0.491  0.00  0.00    +0.130 A 
ATOM     14  C   LIG    1       -6.102   3.110   0.573  0.00  0.00    +0.050 A 
ATOM     15  C   LIG    1       -7.442   3.348   0.333  0.00  0.00    +0.070 A 
ATOM     16  C   LIG    1       -7.909   3.437  -0.966  0.00  0.00    -0.010 A 
ATOM     17  C   LIG    1       -7.033   3.294  -2.030  0.00  0.00    -0.020 A 
ATOM     18 CL   LIG    1       -7.622   3.407  -3.659  0.00  0.00    -0.030 Cl
ATOM     19 CL   LIG    1       -9.594   3.730  -1.263  0.00  0.00    -0.030 Cl
ATOM     20  C   LIG    1       -5.691   3.062  -1.795  0.00  0.00    +0.100 A 
ENDBRANCH   8  13
BRANCH  10  21
ATOM     21  N   LIG    1       -2.949   4.928   1.103  0.00  0.00    -0.910 NA
ATOM     22  C   LIG    1       -2.967   4.101   2.318  0.00  0.00    +0.140 C 
ATOM     23  C   LIG    1       -3.070   5.010   3.546  0.00  0.00    +0.240 C 
ATOM     24  O   LIG    1       -4.236   5.829   3.431  0.00  0.00    -0.380 OA
ATOM     25  C   LIG    1       -4.251   6.649   2.259  0.00  0.00    +0.250 C 
ATOM     26  C   LIG    1       -4.160   5.756   1.018  0.00  0.00    +0.180 C 
ENDBRANCH  10  21
BRANCH   1  27
ATOM     27  N   LIG    1        2.561   1.294  -0.320  0.00  0.00    -0.610 N 
BRANCH  27  29
ATOM     28  C   LIG    1        4.366   2.627   0.655  0.00  0.00    +0.020 C 
ATOM     29  C   LIG    1        3.772   2.056  -0.635  0.00  0.00    +0.270 C 
ENDBRANCH  27  29
BRANCH  27  30
ATOM     30  C   LIG    1        2.654  -0.137  -0.019  0.00  0.00    +0.270 C 
ATOM     31  C   LIG    1        2.514  -0.940  -1.314  0.00  0.00    +0.020 C 
ENDBRANCH  27  30
ENDBRANCH   1  27
TORSDOF 5
