REMARK  Name = ZINCpk00000y6y6b.0
REMARK                            x       y       z     vdW  Elec       q    Type
REMARK                         _______ _______ _______ _____ _____    ______ ____
ROOT
ATOM      1  N   LIG    1        3.654  -4.914  -0.037  0.00  0.00    -0.630 N 
ATOM      2  H   LIG    1        4.484  -4.411  -0.037  0.00  0.00    +0.420 HD
ATOM      3  C   LIG    1        2.473  -4.266  -0.030  0.00  0.00    +0.550 C 
ATOM      4  O   LIG    1        1.432  -4.897  -0.031  0.00  0.00    -0.480 OA
ENDROOT
BRANCH   1   8
ATOM      5  N   LIG    1        4.342  -8.390  -0.061  0.00  0.00    -0.380 N 
ATOM      6  C   LIG    1        2.999  -8.364  -0.057  0.00  0.00    +0.510 A 
ATOM      7  N   LIG    1        2.615  -7.113  -0.048  0.00  0.00    -0.510 NA
ATOM      8  C   LIG    1        3.684  -6.311  -0.046  0.00  0.00    +0.450 A 
ATOM      9  N   LIG    1        4.767  -7.052  -0.059  0.00  0.00    -0.320 NA
BRANCH   5  10
ATOM     10  C   LIG    1        5.195  -9.581  -0.071  0.00  0.00    +0.430 C 
BRANCH  10  11
ATOM     11  C   LIG    1        6.147  -9.508  -1.237  0.00  0.00    +0.450 C 
ATOM     12  O   LIG    1        6.116  -8.558  -1.983  0.00  0.00    -0.480 OA
BRANCH  11  13
ATOM     13  O   LIG    1        7.030 -10.497  -1.447  0.00  0.00    -0.360 OA
BRANCH  13  15
ATOM     14  C   LIG    1        8.842 -11.574  -2.665  0.00  0.00    +0.070 C 
ATOM     15  C   LIG    1        7.915 -10.359  -2.589  0.00  0.00    +0.200 C 
ENDBRANCH  13  15
ENDBRANCH  11  13
ENDBRANCH  10  11
ENDBRANCH   5  10
ENDBRANCH   1   8
BRANCH   3  16
ATOM     16  C   LIG    1        2.442  -2.804  -0.021  0.00  0.00    -0.090 C 
ATOM     17  C   LIG    1        1.258  -2.154  -0.014  0.00  0.00    +0.150 C 
BRANCH  17  18
ATOM     18  C   LIG    1        1.227  -0.684  -0.005  0.00  0.00    -0.110 A 
ATOM     19  C   LIG    1        2.420   0.047  -0.005  0.00  0.00    +0.080 A 
ATOM     20  C   LIG    1        2.387   1.422  -0.002  0.00  0.00    -0.010 A 
ATOM     21  C   LIG    1        1.168   2.101   0.002  0.00  0.00    +0.120 A 
ATOM     22  O   LIG    1        0.917   3.438  -0.012  0.00  0.00    -0.300 OA
ATOM     23  C   LIG    1       -0.428   3.673   0.437  0.00  0.00    +0.240 C 
ATOM     24  C   LIG    1       -1.157   2.368   0.036  0.00  0.00    +0.080 C 
ATOM     25  C   LIG    1       -0.017   1.368   0.010  0.00  0.00    -0.180 A 
ATOM     26  C   LIG    1        0.002  -0.004   0.002  0.00  0.00    +0.090 A 
ENDBRANCH  17  18
ENDBRANCH   3  16
TORSDOF 7
