REMARK  Name = ZINCpe00000MJJ9i.0
REMARK                            x       y       z     vdW  Elec       q    Type
REMARK                         _______ _______ _______ _____ _____    ______ ____
ROOT
ATOM      1  O   LIG    1       -1.095   3.385   0.025  0.00  0.00    -0.530 OA
ATOM      2  C   LIG    1       -1.215   2.175   0.020  0.00  0.00    +0.620 C 
ATOM      3  N   LIG    1       -2.443   1.620   0.024  0.00  0.00    -0.600 N 
ATOM      4  C   LIG    1       -2.733   0.174   0.011  0.00  0.00    +0.280 C 
ATOM      5  C   LIG    1       -4.147   0.050   0.635  0.00  0.00    +0.090 C 
ATOM      6  C   LIG    1       -4.850   1.309   0.061  0.00  0.00    +0.210 C 
ATOM      7  C   LIG    1       -3.716   2.356   0.034  0.00  0.00    +0.260 C 
ENDROOT
BRANCH   6   8
ATOM      8  C   LIG    1       -5.968   1.756   0.968  0.00  0.00    -0.020 A 
ATOM      9  N   LIG    1       -6.341   1.200   2.098  0.00  0.00    -0.260 NA
ATOM     10  N   LIG    1       -7.328   1.867   2.580  0.00  0.00    -0.240 N 
ATOM     11  H   LIG    1       -7.783   1.656   3.410  0.00  0.00    +0.470 HD
ATOM     12  N   LIG    1       -7.630   2.854   1.812  0.00  0.00    -0.280 NA
ATOM     13  C   LIG    1       -6.815   2.851   0.782  0.00  0.00    +0.190 A 
ENDBRANCH   6   8
BRANCH   2  14
ATOM     14  C   LIG    1       -0.016   1.315   0.009  0.00  0.00    +0.000 A 
ATOM     15  N   LIG    1        0.002  -0.004   0.002  0.00  0.00    -0.260 NA
ATOM     16  N   LIG    1        1.214  -0.429  -0.012  0.00  0.00    -0.230 N 
ATOM     17  C   LIG    1        2.077   0.620  -0.014  0.00  0.00    +0.180 A 
ATOM     18  C   LIG    1        1.331   1.749  -0.001  0.00  0.00    +0.010 A 
BRANCH  16  19
ATOM     19  C   LIG    1        1.592  -1.779  -0.022  0.00  0.00    +0.120 A 
ATOM     20  C   LIG    1        2.936  -2.125  -0.042  0.00  0.00    +0.050 A 
ATOM     21  C   LIG    1        3.306  -3.456  -0.048  0.00  0.00    +0.020 A 
ATOM     22  C   LIG    1        2.337  -4.445  -0.044  0.00  0.00    +0.100 A 
ATOM     23  C   LIG    1        0.995  -4.102  -0.029  0.00  0.00    +0.020 A 
ATOM     24  F   LIG    1        2.700  -5.746  -0.054  0.00  0.00    -0.130 F 
ATOM     25  C   LIG    1        0.621  -2.772  -0.018  0.00  0.00    +0.070 A 
ENDBRANCH  16  19
ENDBRANCH   2  14
BRANCH   6  26
ATOM     26  O   LIG    1       -5.338   1.058  -1.259  0.00  0.00    -0.530 OA
ATOM     27  H   LIG    1       -5.717   1.834  -1.692  0.00  0.00    +0.380 HD
ENDBRANCH   6  26
TORSDOF 4
