REMARK  Name = ZINCrD00000hQ4SY.0
REMARK                            x       y       z     vdW  Elec       q    Type
REMARK                         _______ _______ _______ _____ _____    ______ ____
ROOT
ATOM      1  N   LIG    1       -3.173   2.728   0.484  0.00  0.00    -0.590 N 
ATOM      2  C   LIG    1       -4.279   2.827  -0.277  0.00  0.00    +0.530 C 
ATOM      3  C   LIG    1       -4.044   3.774  -1.387  0.00  0.00    +0.110 C 
ATOM      4  C   LIG    1       -2.782   4.256  -1.300  0.00  0.00    -0.230 C 
ATOM      5  O   LIG    1       -5.316   2.227  -0.080  0.00  0.00    -0.490 OA
ATOM      6  C   LIG    1       -2.150   3.609  -0.090  0.00  0.00    +0.350 C 
ENDROOT
BRANCH   6   7
ATOM      7  C   LIG    1       -0.945   2.803  -0.503  0.00  0.00    -0.140 A 
ATOM      8  C   LIG    1       -1.077   1.457  -0.786  0.00  0.00    +0.060 A 
ATOM      9  C   LIG    1        0.029   0.717  -1.159  0.00  0.00    +0.000 A 
ATOM     10  C   LIG    1        1.267   1.325  -1.261  0.00  0.00    +0.060 A 
ATOM     11  C   LIG    1        1.400   2.672  -0.984  0.00  0.00    -0.010 A 
ATOM     12  C   LIG    1        0.294   3.413  -0.604  0.00  0.00    +0.110 A 
ATOM     13  F   LIG    1        0.424   4.730  -0.333  0.00  0.00    -0.130 F 
ENDBRANCH   6   7
BRANCH   4  14
ATOM     14  C   LIG    1       -2.150   5.220  -2.206  0.00  0.00    +0.470 C 
ATOM     15  O   LIG    1       -1.931   4.915  -3.363  0.00  0.00    -0.430 OA
BRANCH  14  16
ATOM     16  C   LIG    1       -1.779   6.564  -1.713  0.00  0.00    -0.160 A 
ATOM     17  C   LIG    1       -2.073   6.935  -0.400  0.00  0.00    +0.060 A 
ATOM     18  C   LIG    1       -1.719   8.188   0.055  0.00  0.00    +0.000 A 
ATOM     19  C   LIG    1       -1.085   9.081  -0.791  0.00  0.00    -0.050 A 
ATOM     20  C   LIG    1       -0.795   8.722  -2.095  0.00  0.00    +0.000 A 
ATOM     21  C   LIG    1       -0.706  10.451  -0.288  0.00  0.00    +0.100 C 
ATOM     22  C   LIG    1       -1.138   7.470  -2.562  0.00  0.00    +0.080 A 
ENDBRANCH  14  16
ENDBRANCH   4  14
BRANCH   3  23
ATOM     23  O   LIG    1       -4.946   4.106  -2.338  0.00  0.00    -0.430 OA
ATOM     24  H   LIG    1       -5.800   3.663  -2.242  0.00  0.00    +0.410 HD
ENDBRANCH   3  23
BRANCH   1  25
ATOM     25  C   LIG    1       -3.018   1.888   1.674  0.00  0.00    +0.340 C 
BRANCH  25  26
ATOM     26  C   LIG    1       -3.435   2.680   2.915  0.00  0.00    +0.160 C 
BRANCH  26  28
ATOM     27  C   LIG    1       -5.324   3.722   3.960  0.00  0.00    +0.200 C 
ATOM     28  O   LIG    1       -4.830   2.980   2.843  0.00  0.00    -0.380 OA
ENDBRANCH  26  28
ENDBRANCH  25  26
ENDBRANCH   1  25
TORSDOF 7
