REMARK  Name = ZINCrD00000jFcY8.0
REMARK                            x       y       z     vdW  Elec       q    Type
REMARK                         _______ _______ _______ _____ _____    ______ ____
ROOT
ATOM      1  N   LIG    1       -2.397   4.214   0.211  0.00  0.00    -0.700 N 
ATOM      2  H   LIG    1       -2.027   3.838   1.024  0.00  0.00    +0.410 HD
ATOM      3  C   LIG    1       -2.649   3.418  -0.847  0.00  0.00    +0.570 C 
ATOM      4  O   LIG    1       -3.018   3.903  -1.899  0.00  0.00    -0.530 OA
ENDROOT
BRANCH   3   5
ATOM      5  C   LIG    1       -2.476   1.958  -0.729  0.00  0.00    -0.150 A 
ATOM      6  C   LIG    1       -1.934   1.405   0.436  0.00  0.00    +0.060 A 
ATOM      7  C   LIG    1       -1.774   0.040   0.541  0.00  0.00    +0.020 A 
ATOM      8  C   LIG    1       -2.153  -0.794  -0.499  0.00  0.00    +0.070 A 
ATOM      9  C   LIG    1       -2.696  -0.264  -1.655  0.00  0.00    +0.060 A 
ATOM     10  O   LIG    1       -3.072  -1.075  -2.679  0.00  0.00    -0.300 OA
ATOM     11  C   LIG    1       -4.198  -0.652  -3.453  0.00  0.00    +0.300 C 
ATOM     12  C   LIG    1       -4.054   0.808  -3.799  0.00  0.00    +0.490 C 
ATOM     13  O   LIG    1       -4.512   1.237  -4.837  0.00  0.00    -0.500 OA
ATOM     14  N   LIG    1       -3.412   1.638  -2.947  0.00  0.00    -0.650 N 
ATOM     15  H   LIG    1       -3.334   2.584  -3.147  0.00  0.00    +0.430 HD
ATOM     16  C   LIG    1       -2.864   1.115  -1.776  0.00  0.00    +0.160 A 
ENDBRANCH   3   5
BRANCH   1  20
ATOM     17  C   LIG    1       -4.902   7.159   2.305  0.00  0.00    +0.040 C 
ATOM     18  C   LIG    1       -4.088   6.027   1.674  0.00  0.00    -0.020 C 
ATOM     19  C   LIG    1       -4.186   5.978   0.140  0.00  0.00    +0.050 C 
ATOM     20  C   LIG    1       -2.684   5.649   0.133  0.00  0.00    +0.190 C 
ATOM     21  C   LIG    1       -2.597   6.370   1.488  0.00  0.00    +0.060 C 
BRANCH  20  22
ATOM     22  C   LIG    1       -1.921   6.339  -0.968  0.00  0.00    -0.160 A 
ATOM     23  C   LIG    1       -2.558   6.668  -2.152  0.00  0.00    +0.170 A 
ATOM     24  C   LIG    1       -1.857   7.306  -3.161  0.00  0.00    -0.030 A 
ATOM     25  C   LIG    1       -0.518   7.606  -2.990  0.00  0.00    +0.090 A 
ATOM     26  C   LIG    1        0.120   7.273  -1.811  0.00  0.00    -0.030 A 
ATOM     27  F   LIG    1       -3.865   6.370  -2.321  0.00  0.00    -0.110 F 
ATOM     28  C   LIG    1       -0.580   6.639  -0.798  0.00  0.00    +0.140 A 
ATOM     29  F   LIG    1        0.044   6.314   0.355  0.00  0.00    -0.130 F 
ENDBRANCH  20  22
ENDBRANCH   1  20
TORSDOF 3
