REMARK  Name = ZINCrH00000tj0wG.0
REMARK                            x       y       z     vdW  Elec       q    Type
REMARK                         _______ _______ _______ _____ _____    ______ ____
ROOT
ATOM      1  C   LIG    1       -6.077   1.578  -0.247  0.00  0.00    +0.250 A 
ATOM      2  N   LIG    1       -6.936   0.619  -0.010  0.00  0.00    -0.280 NA
ATOM      3  N   LIG    1       -6.327  -0.428   0.435  0.00  0.00    -0.230 NA
ATOM      4  C   LIG    1       -5.053  -0.191   0.503  0.00  0.00    +0.100 A 
ATOM      5  S   LIG    1       -3.722  -1.223   1.024  0.00  0.00    +0.070 S 
ATOM      6  C   LIG    1       -2.407  -0.488   0.014  0.00  0.00    +0.140 C 
ATOM      7  C   LIG    1       -2.500   1.007   0.021  0.00  0.00    +0.220 C 
ATOM      8  N   LIG    1       -3.588   1.694   0.035  0.00  0.00    -0.250 NA
ATOM      9  N   LIG    1       -4.847   1.101   0.074  0.00  0.00    -0.330 N 
ENDROOT
BRANCH   7  10
ATOM     10  C   LIG    1       -1.231   1.758   0.017  0.00  0.00    -0.070 A 
ATOM     11  C   LIG    1       -0.013   1.076   0.008  0.00  0.00    +0.060 A 
ATOM     12  C   LIG    1        1.171   1.782   0.000  0.00  0.00    +0.030 A 
ATOM     13  C   LIG    1        1.159   3.171   0.007  0.00  0.00    +0.080 A 
ATOM     14  O   LIG    1        2.340   3.846   0.003  0.00  0.00    -0.300 OA
ATOM     15  C   LIG    1        2.291   5.228  -0.366  0.00  0.00    +0.230 C 
ATOM     16  C   LIG    1        1.130   5.887   0.391  0.00  0.00    +0.230 C 
ATOM     17  O   LIG    1       -0.081   5.218   0.022  0.00  0.00    -0.300 OA
ATOM     18  C   LIG    1       -0.052   3.857   0.020  0.00  0.00    +0.050 A 
ATOM     19  C   LIG    1       -1.244   3.155   0.029  0.00  0.00    +0.090 A 
ENDBRANCH   7  10
BRANCH   1  20
ATOM     20  C   LIG    1       -6.393   2.953  -0.776  0.00  0.00    +0.230 C 
BRANCH  20  25
ATOM     21 BR   LIG    1       -7.494   6.768   3.937  0.00  0.00    -0.050 Br
ATOM     22  C   LIG    1       -7.156   5.596   2.491  0.00  0.00    -0.090 A 
ATOM     23  C   LIG    1       -5.869   5.452   2.004  0.00  0.00    +0.040 A 
ATOM     24  C   LIG    1       -5.623   4.596   0.947  0.00  0.00    +0.030 A 
ATOM     25  C   LIG    1       -6.662   3.885   0.377  0.00  0.00    -0.080 A 
ATOM     26  C   LIG    1       -7.949   4.033   0.860  0.00  0.00    +0.050 A 
ATOM     27  C   LIG    1       -8.195   4.885   1.921  0.00  0.00    +0.050 A 
ENDBRANCH  20  25
ENDBRANCH   1  20
TORSDOF 3
