REMARK  Name = ZINCqH0000035n7N.0
REMARK                            x       y       z     vdW  Elec       q    Type
REMARK                         _______ _______ _______ _____ _____    ______ ____
ROOT
ATOM      1  C   LIG    1       -4.768   1.075   0.239  0.00  0.00    -0.200 A 
ATOM      2  C   LIG    1       -5.947   1.819   0.360  0.00  0.00    +0.130 A 
ATOM      3  C   LIG    1       -5.857   3.199   0.359  0.00  0.00    -0.060 A 
ATOM      4  C   LIG    1       -4.616   3.800   0.245  0.00  0.00    +0.340 A 
ATOM      5  N   LIG    1       -3.516   3.080   0.137  0.00  0.00    -0.530 NA
ATOM      6  C   LIG    1       -3.546   1.758   0.133  0.00  0.00    +0.370 A 
ENDROOT
BRANCH   1   9
ATOM      7  N   LIG    1       -5.986  -1.042   0.331  0.00  0.00    -0.640 N 
ATOM      8  H   LIG    1       -6.810  -0.536   0.411  0.00  0.00    +0.410 HD
ATOM      9  C   LIG    1       -4.807  -0.399   0.228  0.00  0.00    +0.560 C 
ATOM     10  O   LIG    1       -3.775  -1.034   0.127  0.00  0.00    -0.440 OA
BRANCH   7  15
ATOM     11  N   LIG    1       -7.142  -3.197   0.422  0.00  0.00    -0.470 N 
ATOM     12  C   LIG    1       -6.737  -4.509   0.366  0.00  0.00    +0.120 A 
ATOM     13  C   LIG    1       -5.398  -4.501   0.244  0.00  0.00    +0.170 A 
ATOM     14  N   LIG    1       -4.984  -3.224   0.218  0.00  0.00    -0.460 NA
ATOM     15  C   LIG    1       -6.023  -2.430   0.321  0.00  0.00    +0.430 A 
BRANCH  11  16
ATOM     16  C   LIG    1       -8.519  -2.715   0.561  0.00  0.00    +0.320 C 
BRANCH  16  17
ATOM     17  C   LIG    1       -9.096  -2.414  -0.823  0.00  0.00    +0.150 C 
BRANCH  17  19
ATOM     18  C   LIG    1      -11.073  -1.632  -1.929  0.00  0.00    +0.210 C 
ATOM     19  O   LIG    1      -10.439  -1.944  -0.688  0.00  0.00    -0.390 OA
ENDBRANCH  17  19
ENDBRANCH  16  17
ENDBRANCH  11  16
ENDBRANCH   7  15
ENDBRANCH   1   9
BRANCH   6  20
ATOM     20  O   LIG    1       -2.392   1.060   0.019  0.00  0.00    -0.210 OA
BRANCH  20  21
ATOM     21  C   LIG    1       -1.222   1.751   0.041  0.00  0.00    +0.100 A 
ATOM     22  C   LIG    1       -0.771   2.318   1.224  0.00  0.00    +0.030 A 
ATOM     23  C   LIG    1        0.421   3.016   1.245  0.00  0.00    +0.040 A 
ATOM     24  C   LIG    1        1.162   3.155   0.087  0.00  0.00    +0.050 A 
ATOM     25  C   LIG    1        0.713   2.596  -1.097  0.00  0.00    -0.080 A 
ATOM     26 BR   LIG    1        1.730   2.788  -2.679  0.00  0.00    -0.040 Br
ATOM     27  C   LIG    1       -0.479   1.897  -1.123  0.00  0.00    +0.060 A 
ENDBRANCH  20  21
ENDBRANCH   6  20
TORSDOF 7
