REMARK  Name = ZINCpk00000xR0Gj.0
REMARK                            x       y       z     vdW  Elec       q    Type
REMARK                         _______ _______ _______ _____ _____    ______ ____
ROOT
ATOM      1  O   LIG    1       -3.441   2.228   0.126  0.00  0.00    -0.530 OA
ATOM      2  C   LIG    1       -2.538   1.420   0.020  0.00  0.00    +0.600 C 
ATOM      3  N   LIG    1       -2.818   0.106  -0.088  0.00  0.00    -0.610 N 
ATOM      4  C   LIG    1       -1.742  -0.896  -0.105  0.00  0.00    +0.290 C 
ATOM      5  C   LIG    1       -2.067  -1.971   0.944  0.00  0.00    +0.200 C 
ATOM      6  N   LIG    1       -3.414  -2.501   0.693  0.00  0.00    -0.470 N 
ATOM      7  C   LIG    1       -4.436  -1.458   0.851  0.00  0.00    +0.210 C 
ATOM      8  C   LIG    1       -4.208  -0.362  -0.197  0.00  0.00    +0.290 C 
ENDROOT
BRANCH   6   9
ATOM      9  C   LIG    1       -3.682  -3.590   1.517  0.00  0.00    +0.300 A 
ATOM     10  C   LIG    1       -2.829  -4.688   1.507  0.00  0.00    -0.010 A 
ATOM     11  C   LIG    1       -3.104  -5.763   2.334  0.00  0.00    +0.070 A 
ATOM     12  C   LIG    1       -4.235  -5.707   3.139  0.00  0.00    +0.020 A 
ATOM     13  C   LIG    1       -5.043  -4.585   3.094  0.00  0.00    +0.280 A 
ATOM     14  F   LIG    1       -4.543  -6.737   3.957  0.00  0.00    -0.130 F 
ATOM     15  N   LIG    1       -4.751  -3.573   2.298  0.00  0.00    -0.490 NA
ENDBRANCH   6   9
BRANCH   2  16
ATOM     16  C   LIG    1       -1.137   1.878   0.009  0.00  0.00    -0.280 A 
ATOM     17  C   LIG    1       -0.118   1.382  -0.780  0.00  0.00    +0.290 A 
ATOM     18  N   LIG    1        0.993   2.076  -0.486  0.00  0.00    -0.460 N 
ATOM     19  H   LIG    1        1.865   1.947  -0.890  0.00  0.00    +0.450 HD
ATOM     20  N   LIG    1        0.680   3.017   0.501  0.00  0.00    -0.280 NA
ATOM     21  C   LIG    1       -0.584   2.906   0.805  0.00  0.00    +0.140 A 
BRANCH  21  22
ATOM     22  C   LIG    1       -1.325   3.733   1.824  0.00  0.00    +0.060 C 
ATOM     23  C   LIG    1       -0.696   3.559   3.224  0.00  0.00    +0.020 C 
ATOM     24  C   LIG    1       -0.225   4.981   3.603  0.00  0.00    +0.200 C 
ATOM     25  O   LIG    1       -1.054   5.866   2.819  0.00  0.00    -0.370 OA
ATOM     26  C   LIG    1       -1.160   5.239   1.522  0.00  0.00    +0.230 C 
ENDBRANCH  21  22
ENDBRANCH   2  16
TORSDOF 3
