REMARK  Name = ZINCtV000002v11n.0
REMARK                            x       y       z     vdW  Elec       q    Type
REMARK                         _______ _______ _______ _____ _____    ______ ____
ROOT
ATOM      1  C   LIG    1       -1.247   1.745   0.562  0.00  0.00    +0.200 A 
ATOM      2  C   LIG    1       -0.094   1.130   0.125  0.00  0.00    +0.040 A 
ATOM      3  C   LIG    1        1.097   1.841   0.012  0.00  0.00    +0.080 A 
ATOM      4  C   LIG    1        1.157   3.177   0.339  0.00  0.00    +0.050 A 
ATOM      5  C   LIG    1       -0.001   3.833   0.792  0.00  0.00    -0.010 A 
ATOM      6  C   LIG    1       -0.001   5.196   1.140  0.00  0.00    -0.010 A 
ATOM      7  C   LIG    1       -1.163   5.760   1.571  0.00  0.00    +0.250 A 
ATOM      8  N   LIG    1       -2.286   5.062   1.670  0.00  0.00    -0.480 NA
ATOM      9  C   LIG    1       -2.358   3.787   1.363  0.00  0.00    +0.310 A 
ATOM     10  C   LIG    1       -1.217   3.111   0.909  0.00  0.00    -0.120 A 
ENDROOT
BRANCH   1  13
ATOM     11  N   LIG    1       -3.538  -0.979   1.158  0.00  0.00    -0.620 N 
ATOM     12  C   LIG    1       -2.399  -0.307   0.899  0.00  0.00    +0.710 C 
ATOM     13  N   LIG    1       -2.437   1.019   0.664  0.00  0.00    -0.680 N 
ATOM     14  H   LIG    1       -3.290   1.470   0.566  0.00  0.00    +0.410 HD
ATOM     15  O   LIG    1       -1.337  -0.898   0.878  0.00  0.00    -0.560 OA
ATOM     16  C   LIG    1       -4.819  -0.267   1.183  0.00  0.00    +0.280 C 
BRANCH  11  17
ATOM     17  C   LIG    1       -3.497  -2.421   1.413  0.00  0.00    +0.260 C 
ATOM     18  C   LIG    1       -4.346  -3.149   0.369  0.00  0.00    +0.030 C 
BRANCH  17  19
ATOM     19  C   LIG    1       -4.051  -2.707   2.810  0.00  0.00    +0.020 C 
BRANCH  19  20
ATOM     20  C   LIG    1       -3.132  -2.083   3.862  0.00  0.00    +0.000 C 
BRANCH  20  22
ATOM     21  C   LIG    1       -2.766  -1.746   6.310  0.00  0.00    +0.000 C 
ATOM     22  C   LIG    1       -3.686  -2.370   5.259  0.00  0.00    +0.000 C 
ENDBRANCH  20  22
ENDBRANCH  19  20
ENDBRANCH  17  19
ENDBRANCH  11  17
ENDBRANCH   1  13
BRANCH   4  23
ATOM     23  O   LIG    1        2.328   3.858   0.223  0.00  0.00    -0.240 OA
BRANCH  23  24
ATOM     24  C   LIG    1        3.100   3.993   1.332  0.00  0.00    +0.150 A 
ATOM     25  C   LIG    1        2.748   3.343   2.507  0.00  0.00    -0.070 A 
ATOM     26  C   LIG    1        3.538   3.475   3.632  0.00  0.00    +0.090 A 
ATOM     27  C   LIG    1        4.672   4.265   3.594  0.00  0.00    -0.040 A 
ATOM     28  C   LIG    1        5.023   4.920   2.425  0.00  0.00    +0.140 A 
ATOM     29  F   LIG    1        6.132   5.690   2.390  0.00  0.00    -0.130 F 
ATOM     30  C   LIG    1        4.239   4.785   1.294  0.00  0.00    -0.030 A 
ENDBRANCH  23  24
ENDBRANCH   4  23
TORSDOF 7
