REMARK  Name = ZINCrH000004rw2w.0
REMARK                            x       y       z     vdW  Elec       q    Type
REMARK                         _______ _______ _______ _____ _____    ______ ____
ROOT
ATOM      1  C   LIG    1        5.381   0.769  -0.612  0.00  0.00    +0.580 C 
ATOM      2  N   LIG    1        4.166   0.401  -1.063  0.00  0.00    -0.610 N 
ATOM      3  C   LIG    1        3.877  -0.797  -1.873  0.00  0.00    +0.250 C 
ATOM      4  C   LIG    1        2.566  -0.459  -2.626  0.00  0.00    +0.040 C 
ATOM      5  C   LIG    1        1.790   0.350  -1.554  0.00  0.00    +0.040 C 
ATOM      6  C   LIG    1        2.909   1.126  -0.829  0.00  0.00    +0.180 C 
ATOM      7  C   LIG    1        3.014   2.544  -1.394  0.00  0.00    +0.050 C 
ATOM      8  O   LIG    1        5.518   1.827  -0.030  0.00  0.00    -0.520 OA
ENDROOT
BRANCH   1  15
ATOM      9  C   LIG    1        7.960   1.929  -1.228  0.00  0.00    +0.120 C 
ATOM     10  C   LIG    1        7.797   0.435  -1.123  0.00  0.00    +0.020 A 
ATOM     11  C   LIG    1        8.881  -0.394  -1.320  0.00  0.00    -0.010 A 
ATOM     12  C   LIG    1        8.733  -1.767  -1.225  0.00  0.00    +0.150 A 
ATOM     13  C   LIG    1        7.498  -2.317  -0.931  0.00  0.00    -0.670 A 
ATOM     14  C   LIG    1        6.407  -1.498  -0.725  0.00  0.00    +0.160 A 
ATOM     15  C   LIG    1        6.548  -0.114  -0.826  0.00  0.00    -0.150 A 
BRANCH  13  16
ATOM     16  S   LIG    1        7.321  -4.066  -0.813  0.00  0.00    +2.500 S 
ATOM     17  O   LIG    1        8.359  -4.580  -1.635  0.00  0.00    -0.930 OA
ATOM     18  O   LIG    1        5.954  -4.301  -1.125  0.00  0.00    -0.930 OA
ATOM     19  C   LIG    1        7.648  -4.437   0.932  0.00  0.00    -0.260 C 
ENDBRANCH  13  16
ENDBRANCH   1  15
BRANCH   6  20
ATOM     20  C   LIG    1        2.613   1.185   0.671  0.00  0.00    +0.080 C 
BRANCH  20  21
ATOM     21  C   LIG    1        1.324   1.931   0.900  0.00  0.00    -0.110 A 
ATOM     22  C   LIG    1        1.348   3.282   1.187  0.00  0.00    +0.040 A 
ATOM     23  C   LIG    1        0.165   3.967   1.396  0.00  0.00    +0.000 A 
ATOM     24  C   LIG    1       -1.043   3.300   1.319  0.00  0.00    +0.040 A 
ATOM     25  C   LIG    1       -1.070   1.949   1.029  0.00  0.00    -0.010 A 
ATOM     26  C   LIG    1        0.114   1.262   0.824  0.00  0.00    +0.100 A 
ATOM     27  F   LIG    1        0.089  -0.060   0.543  0.00  0.00    -0.130 F 
ENDBRANCH  20  21
ENDBRANCH   6  20
TORSDOF 4
