REMARK  Name = ZINCpe000000UxWn.0
REMARK                            x       y       z     vdW  Elec       q    Type
REMARK                         _______ _______ _______ _____ _____    ______ ____
ROOT
ATOM      1  C   LIG    1       -2.740   3.689   3.724  0.00  0.00    +0.120 C 
ATOM      2  C   LIG    1       -2.640   4.600   2.498  0.00  0.00    +0.060 C 
ATOM      3  C   LIG    1       -2.616   3.741   1.231  0.00  0.00    +0.200 C 
ATOM      4  N   LIG    1       -1.467   2.828   1.280  0.00  0.00    -0.540 NA
ATOM      5  C   LIG    1       -1.564   1.911   2.423  0.00  0.00    +0.180 C 
ATOM      6  C   LIG    1       -1.557   2.716   3.725  0.00  0.00    +0.060 C 
ENDROOT
BRANCH   1  10
ATOM      7  C   LIG    1       -3.172   5.460   6.821  0.00  0.00    +0.430 A 
ATOM      8  N   LIG    1       -1.998   5.867   6.416  0.00  0.00    -0.440 NA
ATOM      9  O   LIG    1       -1.716   5.340   5.360  0.00  0.00    +0.070 OA
ATOM     10  C   LIG    1       -2.704   4.526   4.977  0.00  0.00    +0.210 A 
ATOM     11  N   LIG    1       -3.638   4.596   5.893  0.00  0.00    -0.510 NA
BRANCH   7  13
ATOM     12  C   LIG    1       -3.186   6.805   8.894  0.00  0.00    +0.300 C 
ATOM     13  N   LIG    1       -3.822   5.848   7.985  0.00  0.00    -0.590 N 
ATOM     14  C   LIG    1       -5.143   5.301   8.304  0.00  0.00    +0.310 C 
ENDBRANCH   7  13
ENDBRANCH   1  10
BRANCH   4  15
ATOM     15  C   LIG    1       -1.331   2.084   0.020  0.00  0.00    +0.270 C 
BRANCH  15  16
ATOM     16  C   LIG    1       -0.016   1.349   0.009  0.00  0.00    +0.230 A 
ATOM     17  C   LIG    1        0.002  -0.004   0.002  0.00  0.00    -0.140 A 
ATOM     18  C   LIG    1        1.234  -0.689  -0.013  0.00  0.00    +0.570 A 
ATOM     19  N   LIG    1        2.388   0.007  -0.021  0.00  0.00    -0.360 N 
ATOM     20  N   LIG    1        3.729  -0.393  -0.035  0.00  0.00    -0.260 NA
ATOM     21  C   LIG    1        4.481   0.680  -0.036  0.00  0.00    +0.300 A 
ATOM     22  C   LIG    1        3.654   1.804  -0.023  0.00  0.00    -0.120 A 
ATOM     23  C   LIG    1        2.362   1.372  -0.013  0.00  0.00    +0.300 A 
ATOM     24  O   LIG    1        1.256  -1.907  -0.021  0.00  0.00    -0.490 OA
ATOM     25  N   LIG    1        1.155   2.045   0.002  0.00  0.00    -0.590 N 
ATOM     26  H   LIG    1        1.141   3.015   0.007  0.00  0.00    +0.440 HD
ENDBRANCH  15  16
ENDBRANCH   4  15
TORSDOF 4
