REMARK  Name = ZINCvU0000000EuB.0
REMARK                            x       y       z     vdW  Elec       q    Type
REMARK                         _______ _______ _______ _____ _____    ______ ____
ROOT
ATOM      1  C   LIG    1       -5.002   1.286  -1.018  0.00  0.00    -0.280 A 
ATOM      2  C   LIG    1       -5.405   1.534  -2.314  0.00  0.00    +0.300 A 
ATOM      3  N   LIG    1       -6.239   0.545  -2.682  0.00  0.00    -0.300 N 
ATOM      4  N   LIG    1       -6.396  -0.355  -1.624  0.00  0.00    -0.270 NA
ATOM      5  C   LIG    1       -5.673   0.049  -0.605  0.00  0.00    +0.190 A 
ENDROOT
BRANCH   3   6
ATOM      6  C   LIG    1       -6.861   0.437  -3.933  0.00  0.00    +0.140 A 
ATOM      7  C   LIG    1       -6.632   1.399  -4.909  0.00  0.00    -0.010 A 
ATOM      8  C   LIG    1       -7.241   1.286  -6.144  0.00  0.00    +0.050 A 
ATOM      9  C   LIG    1       -8.087   0.224  -6.404  0.00  0.00    +0.010 A 
ATOM     10  C   LIG    1       -8.322  -0.732  -5.432  0.00  0.00    +0.050 A 
ATOM     11  C   LIG    1       -7.711  -0.628  -4.198  0.00  0.00    +0.030 A 
ENDBRANCH   3   6
BRANCH   5  12
ATOM     12  C   LIG    1       -5.556  -0.618   0.714  0.00  0.00    -0.090 A 
ATOM     13  C   LIG    1       -6.656  -1.271   1.279  0.00  0.00    +0.100 A 
ATOM     14  C   LIG    1       -6.494  -1.884   2.510  0.00  0.00    -0.040 A 
ATOM     15  C   LIG    1       -5.265  -1.822   3.140  0.00  0.00    +0.270 A 
ATOM     16  N   LIG    1       -4.246  -1.194   2.584  0.00  0.00    -0.490 NA
ATOM     17  C   LIG    1       -4.350  -0.601   1.413  0.00  0.00    +0.340 A 
ENDBRANCH   5  12
BRANCH   1  19
ATOM     18  O   LIG    1       -3.815   1.772   0.930  0.00  0.00    -0.520 OA
ATOM     19  C   LIG    1       -4.083   2.105  -0.209  0.00  0.00    +0.600 C 
ATOM     20  N   LIG    1       -3.541   3.223  -0.729  0.00  0.00    -0.720 N 
ATOM     21  H   LIG    1       -3.755   3.489  -1.637  0.00  0.00    +0.400 HD
BRANCH  20  22
ATOM     22  C   LIG    1       -2.627   4.038   0.076  0.00  0.00    +0.300 C 
ATOM     23  C   LIG    1       -2.659   5.463  -0.446  0.00  0.00    +0.060 C 
ATOM     24  C   LIG    1       -1.733   6.332   0.419  0.00  0.00    +0.120 C 
ATOM     25  S   LIG    1       -0.024   5.881   0.001  0.00  0.00    -0.110 S 
ATOM     26  C   LIG    1       -0.075   4.117   0.017  0.00  0.00    -0.080 A 
ATOM     27  C   LIG    1        1.141   3.433   0.003  0.00  0.00    +0.070 A 
ATOM     28  C   LIG    1        1.173   2.056   0.002  0.00  0.00    +0.010 A 
ATOM     29  C   LIG    1       -0.016   1.347   0.009  0.00  0.00    +0.100 A 
ATOM     30  C   LIG    1       -1.220   2.021   0.019  0.00  0.00    +0.020 A 
ATOM     31  F   LIG    1        0.002  -0.004   0.002  0.00  0.00    -0.140 F 
ATOM     32  C   LIG    1       -1.264   3.413   0.035  0.00  0.00    -0.070 A 
ENDBRANCH  20  22
ENDBRANCH   1  19
TORSDOF 4
