REMARK  Name = ZINCrH000004ozlr.0
REMARK                            x       y       z     vdW  Elec       q    Type
REMARK                         _______ _______ _______ _____ _____    ______ ____
ROOT
ATOM      1  C   LIG    1        0.251   1.361   0.514  0.00  0.00    +0.040 C 
ATOM      2  C   LIG    1       -0.596   1.752   1.727  0.00  0.00    +0.000 C 
ATOM      3  C   LIG    1       -0.648   3.277   1.842  0.00  0.00    +0.020 C 
ATOM      4  C   LIG    1        0.769   3.822   2.033  0.00  0.00    +0.010 C 
ATOM      5  C   LIG    1        1.372   3.243   3.314  0.00  0.00    +0.020 C 
ATOM      6  C   LIG    1        1.432   1.717   3.205  0.00  0.00    +0.010 C 
ATOM      7  C   LIG    1        2.016   1.136   4.494  0.00  0.00    +0.030 C 
ATOM      8  C   LIG    1        0.026   1.167   2.990  0.00  0.00    +0.130 C 
ATOM      9  N   LIG    1       -0.820   1.447   4.157  0.00  0.00    -0.720 N 
ATOM     10  H   LIG    1       -1.058   2.321   4.505  0.00  0.00    +0.440 HD
ATOM     11  C   LIG    1       -1.198   0.252   4.649  0.00  0.00    +0.700 C 
ATOM     12  N   LIG    1       -0.702  -0.771   3.944  0.00  0.00    -0.570 N 
ATOM     13  O   LIG    1       -1.911   0.118   5.625  0.00  0.00    -0.540 OA
ATOM     14  C   LIG    1        0.057  -0.343   2.913  0.00  0.00    +0.540 C 
ATOM     15  O   LIG    1        0.639  -1.024   2.097  0.00  0.00    -0.450 OA
ENDROOT
BRANCH  12  16
ATOM     16  C   LIG    1       -0.951  -2.182   4.252  0.00  0.00    +0.480 C 
BRANCH  16  17
ATOM     17  N   LIG    1       -2.153  -2.634   3.539  0.00  0.00    -0.550 NA
ATOM     18  C   LIG    1       -3.371  -2.241   4.260  0.00  0.00    +0.200 C 
BRANCH  17  19
ATOM     19  C   LIG    1       -2.118  -4.085   3.316  0.00  0.00    +0.230 C 
ATOM     20  C   LIG    1       -2.213  -4.804   4.660  0.00  0.00    -0.010 C 
ATOM     21  C   LIG    1       -2.394  -6.303   4.396  0.00  0.00    +0.030 C 
ATOM     22  C   LIG    1       -3.789  -6.524   3.815  0.00  0.00    +0.080 C 
ATOM     23  C   LIG    1       -4.029  -5.602   2.648  0.00  0.00    -0.070 A 
ATOM     24  C   LIG    1       -5.069  -5.912   1.782  0.00  0.00    -0.010 A 
ATOM     25  C   LIG    1       -5.347  -5.101   0.702  0.00  0.00    +0.010 A 
ATOM     26  C   LIG    1       -4.585  -3.970   0.478  0.00  0.00    -0.010 A 
ATOM     27  C   LIG    1       -3.549  -3.661   1.336  0.00  0.00    +0.040 A 
ATOM     28  C   LIG    1       -3.266  -4.478   2.423  0.00  0.00    -0.080 A 
ENDBRANCH  17  19
ENDBRANCH  16  17
ENDBRANCH  12  16
TORSDOF 3
