REMARK  Name = ZINCpk00000ebFna.0
REMARK                            x       y       z     vdW  Elec       q    Type
REMARK                         _______ _______ _______ _____ _____    ______ ____
ROOT
ATOM      1  C   LIG    1        1.105  -0.691  -0.068  0.00  0.00    +0.160 A 
ATOM      2  C   LIG    1       -0.126  -0.096   0.185  0.00  0.00    +0.020 A 
ATOM      3  C   LIG    1       -0.253   1.275   0.139  0.00  0.00    +0.040 A 
ATOM      4  C   LIG    1        0.857   2.068  -0.161  0.00  0.00    -0.030 A 
ATOM      5  C   LIG    1        2.091   1.468  -0.415  0.00  0.00    +0.090 A 
ATOM      6  C   LIG    1        2.212   0.096  -0.368  0.00  0.00    +0.000 A 
ENDROOT
BRANCH   4   7
ATOM      7  C   LIG    1        0.724   3.540  -0.211  0.00  0.00    +0.240 A 
ATOM      8  N   LIG    1        1.572   4.389  -0.759  0.00  0.00    -0.280 NA
ATOM      9  N   LIG    1        1.134   5.594  -0.620  0.00  0.00    -0.270 NA
ATOM     10  C   LIG    1        0.007   5.583   0.020  0.00  0.00    +0.140 A 
ATOM     11  C   LIG    1       -0.882   6.732   0.423  0.00  0.00    +0.370 C 
ATOM     12  O   LIG    1       -2.156   6.186   0.797  0.00  0.00    -0.370 OA
ATOM     13  C   LIG    1       -2.079   5.099   1.723  0.00  0.00    +0.250 C 
ATOM     14  C   LIG    1       -1.493   3.863   1.025  0.00  0.00    +0.270 C 
ATOM     15  N   LIG    1       -0.291   4.279   0.303  0.00  0.00    -0.470 N 
ENDBRANCH   4   7
BRANCH   1  17
ATOM     16  C   LIG    1        0.203  -2.863  -0.407  0.00  0.00    +0.560 C 
ATOM     17  N   LIG    1        1.230  -2.080  -0.021  0.00  0.00    -0.660 N 
ATOM     18  H   LIG    1        2.057  -2.483   0.290  0.00  0.00    +0.420 HD
ATOM     19  O   LIG    1       -0.796  -2.363  -0.883  0.00  0.00    -0.500 OA
BRANCH  16  23
ATOM     20  O   LIG    1       -1.548  -7.279  -0.820  0.00  0.00    -0.530 OA
ATOM     21  C   LIG    1       -0.634  -6.545  -0.479  0.00  0.00    +0.510 A 
ATOM     22  C   LIG    1       -0.756  -5.150  -0.637  0.00  0.00    +0.010 A 
ATOM     23  C   LIG    1        0.293  -4.336  -0.250  0.00  0.00    -0.040 A 
ATOM     24  C   LIG    1        1.449  -4.930   0.302  0.00  0.00    -0.070 A 
ATOM     25  C   LIG    1        1.516  -6.274   0.439  0.00  0.00    +0.310 A 
ATOM     26  N   LIG    1        0.486  -7.068   0.052  0.00  0.00    -0.600 N 
ATOM     27  H   LIG    1        0.558  -8.029   0.161  0.00  0.00    +0.420 HD
ENDBRANCH  16  23
ENDBRANCH   1  17
TORSDOF 3
