REMARK  Name = ZINCpk00000KfL2Y.0
REMARK                            x       y       z     vdW  Elec       q    Type
REMARK                         _______ _______ _______ _____ _____    ______ ____
ROOT
ATOM      1  C   LIG    1       -0.931   1.734  -1.110  0.00  0.00    -0.600 C 
ATOM      2  C   LIG    1       -0.068   1.150   0.020  0.00  0.00    +0.100 C 
ATOM      3  C   LIG    1       -0.979   1.904   1.003  0.00  0.00    +0.060 C 
ATOM      4  C   LIG    1       -1.274   2.883  -0.148  0.00  0.00    +0.110 C 
ENDROOT
BRANCH   1   5
ATOM      5  C   LIG    1       -2.115   0.873  -1.472  0.00  0.00    +0.570 C 
ATOM      6  N   LIG    1       -1.931  -0.269  -2.164  0.00  0.00    -0.710 N 
ATOM      7  H   LIG    1       -1.046  -0.505  -2.483  0.00  0.00    +0.410 HD
ATOM      8  O   LIG    1       -3.232   1.208  -1.140  0.00  0.00    -0.510 OA
BRANCH   6   9
ATOM      9  C   LIG    1       -3.068  -1.153  -2.433  0.00  0.00    +0.250 C 
ATOM     10  C   LIG    1       -2.774  -2.006  -3.670  0.00  0.00    +0.040 C 
ATOM     11  C   LIG    1       -4.064  -2.459  -4.329  0.00  0.00    +0.030 C 
ATOM     12  C   LIG    1       -4.873  -3.429  -3.487  0.00  0.00    +0.000 C 
ATOM     13  C   LIG    1       -5.414  -2.743  -2.232  0.00  0.00    +0.270 C 
ATOM     14  N   LIG    1       -4.391  -2.818  -1.176  0.00  0.00    -0.720 N 
ATOM     15  H   LIG    1       -4.522  -3.411  -0.420  0.00  0.00    +0.400 HD
ATOM     16  C   LIG    1       -3.285  -2.076  -1.253  0.00  0.00    +0.510 C 
ATOM     17  O   LIG    1       -2.451  -2.141  -0.375  0.00  0.00    -0.540 OA
ENDBRANCH   6   9
ENDBRANCH   1   5
BRANCH   1  18
ATOM     18  S   LIG    1        0.026   2.259  -2.558  0.00  0.00    +2.510 S 
ATOM     19  O   LIG    1        0.620   1.138  -3.198  0.00  0.00    -0.930 OA
ATOM     20  O   LIG    1        0.789   3.420  -2.257  0.00  0.00    -0.920 OA
BRANCH  18  25
ATOM     21  C   LIG    1       -4.125   4.188  -6.490  0.00  0.00    +0.090 C 
ATOM     22  C   LIG    1       -3.088   3.706  -5.508  0.00  0.00    -0.030 A 
ATOM     23  C   LIG    1       -2.495   4.599  -4.636  0.00  0.00    -0.010 A 
ATOM     24  C   LIG    1       -1.544   4.157  -3.735  0.00  0.00    +0.130 A 
ATOM     25  C   LIG    1       -1.186   2.822  -3.706  0.00  0.00    -0.670 A 
ATOM     26  C   LIG    1       -1.776   1.930  -4.582  0.00  0.00    +0.120 A 
ATOM     27  C   LIG    1       -2.730   2.371  -5.480  0.00  0.00    -0.010 A 
ENDBRANCH  18  25
ENDBRANCH   1  18
TORSDOF 4
