REMARK  Name = ZINCrD000000Am7E.0
REMARK                            x       y       z     vdW  Elec       q    Type
REMARK                         _______ _______ _______ _____ _____    ______ ____
ROOT
ATOM      1  N   LIG    1       -4.780  -1.266   3.156  0.00  0.00    -0.520 NA
ATOM      2  C   LIG    1       -5.982  -0.442   3.344  0.00  0.00    +0.190 C 
ATOM      3  C   LIG    1       -6.222   0.398   2.087  0.00  0.00    +0.190 C 
ATOM      4  N   LIG    1       -5.045   1.240   1.831  0.00  0.00    -0.530 NA
ATOM      5  C   LIG    1       -3.843   0.415   1.643  0.00  0.00    +0.180 C 
ATOM      6  C   LIG    1       -3.603  -0.425   2.900  0.00  0.00    +0.190 C 
ENDROOT
BRANCH   1   7
ATOM      7  C   LIG    1       -4.558  -2.144   4.313  0.00  0.00    +0.210 C 
BRANCH   7   9
ATOM      8  O   LIG    1       -6.513  -3.206   3.527  0.00  0.00    -0.520 OA
ATOM      9  C   LIG    1       -5.679  -3.147   4.405  0.00  0.00    +0.510 C 
ATOM     10  N   LIG    1       -5.755  -3.978   5.463  0.00  0.00    -0.610 N 
ATOM     11  C   LIG    1       -4.741  -3.886   6.490  0.00  0.00    +0.270 C 
ATOM     12  C   LIG    1       -3.557  -4.812   6.144  0.00  0.00    -0.000 C 
ATOM     13  C   LIG    1       -3.945  -6.221   6.311  0.00  0.00    +0.000 C 
ATOM     14  C   LIG    1       -5.067  -6.678   5.383  0.00  0.00    +0.000 C 
ATOM     15  C   LIG    1       -6.399  -6.335   6.004  0.00  0.00    +0.020 C 
ATOM     16  C   LIG    1       -6.865  -4.949   5.523  0.00  0.00    +0.260 C 
ENDBRANCH   7   9
ENDBRANCH   1   7
BRANCH   4  17
ATOM     17  C   LIG    1       -5.267   2.118   0.674  0.00  0.00    +0.210 C 
BRANCH  17  18
ATOM     18  C   LIG    1       -6.196   3.265   1.076  0.00  0.00    +0.200 C 
BRANCH  18  19
ATOM     19  O   LIG    1       -5.552   4.076   2.061  0.00  0.00    -0.280 OA
BRANCH  19  20
ATOM     20  C   LIG    1       -6.247   5.147   2.529  0.00  0.00    +0.150 A 
ATOM     21  C   LIG    1       -7.523   5.408   2.054  0.00  0.00    -0.040 A 
ATOM     22  C   LIG    1       -8.226   6.500   2.526  0.00  0.00    +0.080 A 
ATOM     23  C   LIG    1       -7.659   7.330   3.477  0.00  0.00    -0.070 A 
ATOM     24  C   LIG    1       -6.388   7.069   3.957  0.00  0.00    +0.090 A 
ATOM     25 CL   LIG    1       -8.544   8.702   4.068  0.00  0.00    -0.060 Cl
ATOM     26  C   LIG    1       -5.682   5.978   3.487  0.00  0.00    -0.060 A 
ATOM     27 CL   LIG    1       -4.087   5.649   4.090  0.00  0.00    -0.040 Cl
ENDBRANCH  19  20
ENDBRANCH  18  19
ENDBRANCH  17  18
ENDBRANCH   4  17
TORSDOF 6
