REMARK  Name = ZINCvU0000000GWm.0
REMARK                            x       y       z     vdW  Elec       q    Type
REMARK                         _______ _______ _______ _____ _____    ______ ____
ROOT
ATOM      1  N   LIG    1        0.133   5.652   0.191  0.00  0.00    -0.320 N 
ATOM      2  N   LIG    1        1.299   6.433   0.138  0.00  0.00    -0.300 NA
ATOM      3  C   LIG    1        0.924   7.680   0.258  0.00  0.00    +0.230 A 
ATOM      4  N   LIG    1       -0.402   7.724   0.382  0.00  0.00    -0.530 NA
ATOM      5  C   LIG    1       -0.893   6.513   0.339  0.00  0.00    +0.310 A 
ENDROOT
BRANCH   1  10
ATOM      6  C   LIG    1       -0.193  -0.003  -0.173  0.00  0.00    +0.100 C 
ATOM      7  C   LIG    1       -0.107   1.499  -0.076  0.00  0.00    -0.070 A 
ATOM      8  C   LIG    1       -0.930   2.289  -0.857  0.00  0.00    +0.020 A 
ATOM      9  C   LIG    1       -0.856   3.665  -0.767  0.00  0.00    +0.020 A 
ATOM     10  C   LIG    1        0.052   4.255   0.101  0.00  0.00    +0.130 A 
ATOM     11  C   LIG    1        0.881   3.459   0.880  0.00  0.00    -0.060 A 
ATOM     12  C   LIG    1        1.869   4.095   1.824  0.00  0.00    +0.100 C 
ATOM     13  C   LIG    1        0.799   2.083   0.790  0.00  0.00    +0.020 A 
ENDBRANCH   1  10
BRANCH   3  14
ATOM     14  C   LIG    1        1.844   8.874   0.257  0.00  0.00    +0.110 C 
ATOM     15  C   LIG    1        2.610   8.926  -1.067  0.00  0.00    +0.020 C 
ATOM     16  C   LIG    1        3.544  10.138  -1.068  0.00  0.00    +0.010 C 
ATOM     17  C   LIG    1        4.535  10.020   0.091  0.00  0.00    +0.000 C 
ATOM     18  C   LIG    1        3.769   9.967   1.414  0.00  0.00    +0.000 C 
ATOM     19  C   LIG    1        2.836   8.755   1.416  0.00  0.00    +0.020 C 
ENDBRANCH   3  14
BRANCH   5  20
ATOM     20  C   LIG    1       -2.351   6.144   0.439  0.00  0.00    +0.060 C 
ATOM     21  C   LIG    1       -3.104   6.704  -0.771  0.00  0.00    +0.040 C 
ATOM     22  C   LIG    1       -4.596   6.391  -0.620  0.00  0.00    +0.010 C 
ATOM     23  C   LIG    1       -5.101   6.976   0.702  0.00  0.00    +0.220 C 
ATOM     24  O   LIG    1       -4.338   6.437   1.783  0.00  0.00    -0.370 OA
ATOM     25  C   LIG    1       -2.942   6.739   1.719  0.00  0.00    +0.270 C 
BRANCH  25  26
ATOM     26  C   LIG    1       -2.245   6.148   2.917  0.00  0.00    -0.240 A 
ATOM     27  C   LIG    1       -1.257   6.734   3.632  0.00  0.00    +0.250 A 
ATOM     28  N   LIG    1       -0.904   5.884   4.619  0.00  0.00    -0.370 N 
ATOM     29  N   LIG    1       -1.701   4.737   4.506  0.00  0.00    -0.290 NA
ATOM     30  C   LIG    1        0.130   6.118   5.630  0.00  0.00    +0.350 C 
ATOM     31  C   LIG    1       -2.508   4.899   3.489  0.00  0.00    +0.250 A 
ENDBRANCH  25  26
ENDBRANCH   5  20
TORSDOF 4
