REMARK  Name = ZINCpe000027pHeL.1
REMARK                            x       y       z     vdW  Elec       q    Type
REMARK                         _______ _______ _______ _____ _____    ______ ____
ROOT
ATOM      1  N   LIG    1        1.091   6.603   1.408  0.00  0.00    -0.660 NA
ATOM      2  H   LIG    1        1.476   5.780   1.845  0.00  0.00    +0.350 HD
ENDROOT
BRANCH   1   7
ATOM      3  C   LIG    1        2.942   7.621   2.701  0.00  0.00    +0.150 C 
ATOM      4  C   LIG    1        2.637   8.921   3.477  0.00  0.00    +0.210 C 
ATOM      5  O   LIG    1        2.159   9.846   2.476  0.00  0.00    -0.370 OA
ATOM      6  C   LIG    1        1.310   9.062   1.609  0.00  0.00    +0.230 C 
ATOM      7  C   LIG    1        2.049   7.716   1.444  0.00  0.00    +0.130 C 
BRANCH   3   8
ATOM      8  O   LIG    1        2.589   6.477   3.481  0.00  0.00    -0.280 OA
BRANCH   8  12
ATOM      9  C   LIG    1        4.990   3.458   6.475  0.00  0.00    +0.360 C 
ATOM     10  N   LIG    1        4.672   4.546   5.548  0.00  0.00    -0.370 N 
ATOM     11  C   LIG    1        3.451   4.809   5.011  0.00  0.00    +0.210 A 
ATOM     12  C   LIG    1        3.582   5.893   4.208  0.00  0.00    -0.040 A 
ATOM     13  C   LIG    1        4.919   6.310   4.261  0.00  0.00    +0.170 A 
ATOM     14  N   LIG    1        5.570   5.505   5.062  0.00  0.00    -0.270 NA
ENDBRANCH   8  12
ENDBRANCH   3   8
ENDBRANCH   1   7
BRANCH   1  15
ATOM     15  C   LIG    1        0.666   6.319   0.031  0.00  0.00    +0.290 C 
BRANCH  15  16
ATOM     16  C   LIG    1       -0.315   5.174   0.035  0.00  0.00    -0.060 A 
ATOM     17  C   LIG    1       -1.661   5.272   0.049  0.00  0.00    +0.260 A 
ATOM     18  N   LIG    1       -2.179   4.041   0.046  0.00  0.00    -0.480 NA
ATOM     19  C   LIG    1       -1.196   3.154   0.031  0.00  0.00    +0.240 A 
ATOM     20  C   LIG    1       -1.194   1.743   0.017  0.00  0.00    +0.100 A 
ATOM     21  C   LIG    1       -0.013   1.076   0.008  0.00  0.00    +0.070 A 
ATOM     22  C   LIG    1        1.202   1.806   0.000  0.00  0.00    -0.040 A 
ATOM     23  C   LIG    1        1.178   3.171   0.008  0.00  0.00    +0.290 A 
ATOM     24  N   LIG    1       -0.007   3.839   0.023  0.00  0.00    -0.360 N 
BRANCH  22  25
ATOM     25  C   LIG    1        2.455   1.112  -0.015  0.00  0.00    +0.260 C 
ATOM     26  N   LIG    1        3.449   0.562  -0.027  0.00  0.00    -0.390 NA
ENDBRANCH  22  25
ENDBRANCH  15  16
ENDBRANCH   1  15
TORSDOF 6
