REMARK  Name = ZINCvU0000000A69.0
REMARK                            x       y       z     vdW  Elec       q    Type
REMARK                         _______ _______ _______ _____ _____    ______ ____
ROOT
ATOM      1  C   LIG    1       -1.249   5.251   1.964  0.00  0.00    +0.160 A 
ATOM      2  C   LIG    1       -0.162   5.741   2.690  0.00  0.00    +0.040 A 
ATOM      3  C   LIG    1       -0.335   6.807   3.549  0.00  0.00    +0.200 A 
ATOM      4  C   LIG    1       -1.583   7.382   3.700  0.00  0.00    -0.670 A 
ATOM      5  C   LIG    1       -2.667   6.898   2.988  0.00  0.00    +0.230 A 
ATOM      6  C   LIG    1       -2.507   5.837   2.121  0.00  0.00    -0.020 A 
ENDROOT
BRANCH   4   7
ATOM      7  S   LIG    1       -1.796   8.738   4.805  0.00  0.00    +2.690 S 
ATOM      8  O   LIG    1       -2.871   9.512   4.289  0.00  0.00    -0.930 OA
ATOM      9  O   LIG    1       -0.500   9.270   5.043  0.00  0.00    -0.930 OA
BRANCH   7  10
ATOM     10  N   LIG    1       -2.319   8.117   6.249  0.00  0.00    -1.060 N 
ATOM     11  H   LIG    1       -3.195   8.355   6.590  0.00  0.00    +0.430 HD
BRANCH  10  12
ATOM     12  C   LIG    1       -1.497   7.250   6.975  0.00  0.00    +0.120 A 
ATOM     13  C   LIG    1       -1.784   5.892   7.017  0.00  0.00    +0.040 A 
ATOM     14  C   LIG    1       -0.967   5.037   7.731  0.00  0.00    +0.040 A 
ATOM     15  C   LIG    1        0.130   5.534   8.412  0.00  0.00    -0.020 A 
ATOM     16  C   LIG    1        0.414   6.888   8.377  0.00  0.00    +0.040 A 
ATOM     17 CL   LIG    1        1.150   4.458   9.314  0.00  0.00    -0.060 Cl
ATOM     18  C   LIG    1       -0.396   7.747   7.660  0.00  0.00    +0.060 A 
ENDBRANCH  10  12
ENDBRANCH   7  10
ENDBRANCH   4   7
BRANCH   6  19
ATOM     19  N   LIG    1       -3.666   5.320   1.360  0.00  0.00    +0.020 N 
ATOM     20  O   LIG    1       -3.524   4.383   0.595  0.00  0.00    -0.100 OA
ATOM     21  O   LIG    1       -4.763   5.832   1.498  0.00  0.00    -0.170 OA
ENDBRANCH   6  19
BRANCH   1  23
ATOM     22  N   LIG    1        0.035   3.679   0.966  0.00  0.00    -0.180 NA
ATOM     23  N   LIG    1       -1.083   4.197   1.104  0.00  0.00    -0.190 NA
BRANCH  22  24
ATOM     24  C   LIG    1        0.212   2.552   0.048  0.00  0.00    +0.210 C 
BRANCH  24  25
ATOM     25  C   LIG    1        1.622   2.033   0.155  0.00  0.00    -0.080 A 
ATOM     26  C   LIG    1        2.677   2.918   0.278  0.00  0.00    +0.030 A 
ATOM     27  C   LIG    1        3.972   2.442   0.370  0.00  0.00    +0.000 A 
ATOM     28  C   LIG    1        4.212   1.081   0.341  0.00  0.00    +0.010 A 
ATOM     29  C   LIG    1        3.157   0.196   0.218  0.00  0.00    +0.010 A 
ATOM     30  C   LIG    1        1.862   0.671   0.126  0.00  0.00    +0.010 A 
ENDBRANCH  24  25
BRANCH  24  32
ATOM     31  C   LIG    1       -1.520   3.426  -1.527  0.00  0.00    +0.040 C 
ATOM     32  C   LIG    1       -0.053   3.016  -1.386  0.00  0.00    +0.040 C 
ENDBRANCH  24  32
ENDBRANCH  22  24
ENDBRANCH   1  23
TORSDOF 8
