REMARK  Name = ZINCrD000000CY0b.0
REMARK                            x       y       z     vdW  Elec       q    Type
REMARK                         _______ _______ _______ _____ _____    ______ ____
ROOT
ATOM      1  C   LIG    1       -0.018   1.509   0.010  0.00  0.00    +0.260 C 
ATOM      2  C   LIG    1        1.475   1.908  -0.002  0.00  0.00    +0.060 C 
ATOM      3  C   LIG    1        2.128   0.667  -0.649  0.00  0.00    +0.280 C 
ATOM      4  N   LIG    1        1.217  -0.448  -0.365  0.00  0.00    -0.590 N 
ATOM      5  C   LIG    1        0.002  -0.004   0.002  0.00  0.00    +0.500 C 
ATOM      6  O   LIG    1       -0.940  -0.713   0.286  0.00  0.00    -0.490 OA
ENDROOT
BRANCH   4   7
ATOM      7  C   LIG    1        1.567  -1.799  -0.464  0.00  0.00    +0.190 A 
ATOM      8  C   LIG    1        1.390  -2.478  -1.662  0.00  0.00    +0.030 A 
ATOM      9  C   LIG    1        1.737  -3.812  -1.756  0.00  0.00    +0.060 A 
ATOM     10  C   LIG    1        2.260  -4.471  -0.659  0.00  0.00    +0.030 A 
ATOM     11  C   LIG    1        2.437  -3.797   0.536  0.00  0.00    +0.070 A 
ATOM     12  C   LIG    1        2.097  -2.462   0.635  0.00  0.00    -0.180 A 
BRANCH  12  13
ATOM     13  C   LIG    1        2.296  -1.728   1.936  0.00  0.00    +0.510 C 
ATOM     14  F   LIG    1        1.064  -1.248   2.393  0.00  0.00    -0.170 F 
ATOM     15  F   LIG    1        3.170  -0.654   1.736  0.00  0.00    -0.180 F 
ATOM     16  F   LIG    1        2.838  -2.600   2.886  0.00  0.00    -0.180 F 
ENDBRANCH  12  13
ENDBRANCH   4   7
BRANCH   1  17
ATOM     17  N   LIG    1       -0.672   2.006   1.223  0.00  0.00    -0.720 N 
ATOM     18  H   LIG    1       -0.142   2.227   2.005  0.00  0.00    +0.410 HD
BRANCH  17  25
ATOM     19  O   LIG    1       -7.216   3.475   3.452  0.00  0.00    -0.490 OA
ATOM     20  C   LIG    1       -6.191   3.164   2.876  0.00  0.00    +0.640 A 
ATOM     21  N   LIG    1       -4.953   3.223   3.406  0.00  0.00    -0.650 N 
ATOM     22  H   LIG    1       -4.726   3.516   4.303  0.00  0.00    +0.440 HD
ATOM     23  C   LIG    1       -4.058   2.784   2.431  0.00  0.00    +0.120 A 
ATOM     24  C   LIG    1       -2.682   2.627   2.406  0.00  0.00    -0.040 A 
ATOM     25  C   LIG    1       -2.062   2.161   1.255  0.00  0.00    +0.240 A 
ATOM     26  C   LIG    1       -2.822   1.844   0.136  0.00  0.00    -0.030 A 
ATOM     27  C   LIG    1       -4.195   1.996   0.161  0.00  0.00    +0.110 A 
ATOM     28  C   LIG    1       -4.819   2.466   1.306  0.00  0.00    -0.020 A 
ATOM     29  O   LIG    1       -6.117   2.711   1.616  0.00  0.00    -0.230 OA
ENDBRANCH  17  25
ENDBRANCH   1  17
TORSDOF 4
