REMARK  Name = ZINCnE00000dSNz2.0
REMARK                            x       y       z     vdW  Elec       q    Type
REMARK                         _______ _______ _______ _____ _____    ______ ____
ROOT
ATOM      1  C   LIG    1        2.055  -0.328   5.933  0.00  0.00    +0.050 A 
ATOM      2  C   LIG    1        1.817  -1.493   6.584  0.00  0.00    +0.060 A 
ATOM      3  N   LIG    1        2.703  -1.553   7.633  0.00  0.00    -0.590 N 
ATOM      4  H   LIG    1        2.778  -2.270   8.281  0.00  0.00    +0.410 HD
ATOM      5  C   LIG    1        3.451  -0.417   7.597  0.00  0.00    +0.550 A 
ATOM      6  N   LIG    1        3.062   0.312   6.580  0.00  0.00    -0.600 NA
ENDROOT
BRANCH   1  10
ATOM      7  C   LIG    1        0.000   1.080   2.488  0.00  0.00    -0.110 A 
ATOM      8  C   LIG    1       -0.350  -0.134   3.050  0.00  0.00    -0.010 A 
ATOM      9  C   LIG    1        0.318  -0.599   4.165  0.00  0.00    +0.000 A 
ATOM     10  C   LIG    1        1.339   0.163   4.731  0.00  0.00    +0.020 A 
ATOM     11  C   LIG    1        1.683   1.389   4.163  0.00  0.00    +0.030 A 
ATOM     12  C   LIG    1        1.012   1.841   3.045  0.00  0.00    +0.000 A 
BRANCH   7  14
ATOM     13  C   LIG    1       -0.013   1.086   0.008  0.00  0.00    +0.010 C 
ATOM     14  C   LIG    1       -0.729   1.579   1.267  0.00  0.00    +0.060 C 
ENDBRANCH   7  14
ENDBRANCH   1  10
BRANCH   5  15
ATOM     15  N   LIG    1        4.459  -0.087   8.487  0.00  0.00    -1.090 NA
BRANCH  15  16
ATOM     16  S   LIG    1        5.284   1.338   8.312  0.00  0.00    +2.650 S 
ATOM     17  O   LIG    1        4.349   2.377   8.564  0.00  0.00    -1.020 OA
ATOM     18  O   LIG    1        6.018   1.230   7.100  0.00  0.00    -1.020 OA
BRANCH  16  19
ATOM     19  C   LIG    1        6.474   1.414   9.609  0.00  0.00    -0.620 A 
ATOM     20  C   LIG    1        6.143   1.998  10.818  0.00  0.00    +0.120 A 
ATOM     21  C   LIG    1        7.075   2.054  11.837  0.00  0.00    -0.030 A 
ATOM     22  C   LIG    1        8.341   1.534  11.645  0.00  0.00    +0.030 A 
ATOM     23  C   LIG    1        8.674   0.955  10.435  0.00  0.00    -0.030 A 
ATOM     24  C   LIG    1        7.741   0.895   9.417  0.00  0.00    +0.120 A 
ENDBRANCH  16  19
ENDBRANCH  15  16
ENDBRANCH   5  15
TORSDOF 5
