REMARK  Name = ZINCpk00000xI3ar.0
REMARK                            x       y       z     vdW  Elec       q    Type
REMARK                         _______ _______ _______ _____ _____    ______ ____
ROOT
ATOM      1  C   LIG    1       -1.815   7.847  -4.703  0.00  0.00    +0.190 C 
ATOM      2  C   LIG    1       -0.658   6.988  -4.261  0.00  0.00    +0.110 A 
ATOM      3  N   LIG    1        0.609   7.168  -4.554  0.00  0.00    -0.270 NA
ATOM      4  N   LIG    1        1.327   6.137  -3.935  0.00  0.00    -0.160 N 
ATOM      5  N   LIG    1        0.504   5.382  -3.295  0.00  0.00    -0.200 NA
ATOM      6  C   LIG    1       -0.725   5.839  -3.455  0.00  0.00    -0.060 A 
ENDROOT
BRANCH   6   7
ATOM      7  C   LIG    1       -1.953   5.249  -2.882  0.00  0.00    +0.630 C 
ATOM      8  N   LIG    1       -1.876   4.139  -2.122  0.00  0.00    -0.600 N 
ATOM      9  C   LIG    1       -3.016   3.456  -1.496  0.00  0.00    +0.290 C 
ATOM     10  C   LIG    1       -2.458   2.262  -0.692  0.00  0.00    +0.040 C 
ATOM     11  C   LIG    1       -2.242   2.698   0.759  0.00  0.00    +0.070 C 
ATOM     12  C   LIG    1       -1.050   1.997   1.399  0.00  0.00    -0.310 C 
ATOM     13  S   LIG    1       -0.017   1.417   0.010  0.00  0.00    +2.400 S 
ATOM     14  O   LIG    1        1.206   2.139   0.002  0.00  0.00    -0.930 OA
ATOM     15  O   LIG    1        0.002  -0.004   0.002  0.00  0.00    -0.930 OA
ATOM     16  C   LIG    1       -1.075   2.011  -1.351  0.00  0.00    -0.420 C 
ATOM     17  C   LIG    1       -0.638   3.419  -1.788  0.00  0.00    +0.320 C 
ATOM     18  O   LIG    1       -3.032   5.766  -3.096  0.00  0.00    -0.510 OA
ENDBRANCH   6   7
BRANCH   4  19
ATOM     19  C   LIG    1        2.716   5.959  -3.996  0.00  0.00    +0.160 A 
ATOM     20  C   LIG    1        3.312   4.896  -3.330  0.00  0.00    +0.040 A 
ATOM     21  C   LIG    1        4.680   4.721  -3.397  0.00  0.00    +0.070 A 
ATOM     22  C   LIG    1        5.458   5.608  -4.116  0.00  0.00    +0.050 A 
ATOM     23  C   LIG    1        4.869   6.672  -4.776  0.00  0.00    -0.020 A 
ATOM     24 CL   LIG    1        5.850   7.785  -5.679  0.00  0.00    -0.050 Cl
ATOM     25  C   LIG    1        3.499   6.850  -4.718  0.00  0.00    +0.050 A 
ENDBRANCH   4  19
TORSDOF 2
