REMARK  Name = ZINCrD00000l5nNo.0
REMARK                            x       y       z     vdW  Elec       q    Type
REMARK                         _______ _______ _______ _____ _____    ______ ____
ROOT
ATOM      1  C   LIG    1        3.851  -4.679  -0.373  0.00  0.00    +0.360 C 
ENDROOT
BRANCH   1   5
ATOM      2  N   LIG    1        1.304  -2.051  -0.021  0.00  0.00    -0.680 N 
ATOM      3  H   LIG    1        0.493  -2.576   0.062  0.00  0.00    +0.410 HD
ATOM      4  C   LIG    1        2.497  -2.667  -0.137  0.00  0.00    +0.710 C 
ATOM      5  N   LIG    1        2.554  -4.009  -0.246  0.00  0.00    -0.730 N 
ATOM      6  H   LIG    1        1.737  -4.532  -0.241  0.00  0.00    +0.400 HD
ATOM      7  O   LIG    1        3.521  -2.012  -0.144  0.00  0.00    -0.570 OA
BRANCH   2  11
ATOM      8  C   LIG    1        1.038   2.066   0.033  0.00  0.00    +0.300 A 
ATOM      9  C   LIG    1        2.036   1.480  -0.734  0.00  0.00    -0.020 A 
ATOM     10  C   LIG    1        2.142   0.101  -0.764  0.00  0.00    +0.110 A 
ATOM     11  C   LIG    1        1.236  -0.650  -0.020  0.00  0.00    +0.080 A 
ATOM     12  C   LIG    1        0.264   0.004   0.723  0.00  0.00    +0.270 A 
ATOM     13  N   LIG    1        0.194   1.322   0.728  0.00  0.00    -0.520 NA
BRANCH   8  15
ATOM     14  C   LIG    1       -0.121   3.962   0.876  0.00  0.00    +0.260 C 
ATOM     15  O   LIG    1        0.926   3.418   0.070  0.00  0.00    -0.310 OA
ENDBRANCH   8  15
ENDBRANCH   2  11
ENDBRANCH   1   5
BRANCH   1  16
ATOM     16  C   LIG    1        3.640  -6.167  -0.478  0.00  0.00    -0.190 A 
ATOM     17  C   LIG    1        3.813  -6.980   0.629  0.00  0.00    +0.120 A 
ATOM     18  C   LIG    1        3.607  -8.345   0.486  0.00  0.00    -0.070 A 
ATOM     19  C   LIG    1        3.238  -8.848  -0.746  0.00  0.00    +0.310 A 
ATOM     20  N   LIG    1        3.081  -8.047  -1.783  0.00  0.00    -0.540 NA
ATOM     21  C   LIG    1        3.263  -6.741  -1.685  0.00  0.00    +0.340 A 
BRANCH  21  22
ATOM     22  O   LIG    1        3.085  -5.955  -2.777  0.00  0.00    -0.290 OA
BRANCH  22  23
ATOM     23  C   LIG    1        2.697  -6.605  -3.989  0.00  0.00    +0.270 C 
BRANCH  23  24
ATOM     24  C   LIG    1        2.549  -5.580  -5.083  0.00  0.00    -0.100 A 
ATOM     25  C   LIG    1        1.327  -4.970  -5.298  0.00  0.00    +0.030 A 
ATOM     26  C   LIG    1        1.191  -4.026  -6.298  0.00  0.00    +0.010 A 
ATOM     27  C   LIG    1        2.275  -3.700  -7.092  0.00  0.00    +0.020 A 
ATOM     28  C   LIG    1        3.496  -4.313  -6.881  0.00  0.00    +0.010 A 
ATOM     29  C   LIG    1        3.632  -5.253  -5.877  0.00  0.00    +0.030 A 
ENDBRANCH  23  24
ENDBRANCH  22  23
ENDBRANCH  21  22
ENDBRANCH   1  16
TORSDOF 7
