REMARK  Name = ZINCpe000000TXpR.0
REMARK                            x       y       z     vdW  Elec       q    Type
REMARK                         _______ _______ _______ _____ _____    ______ ____
ROOT
ATOM      1  C   LIG    1        3.634  -0.770  -0.037  0.00  0.00    +0.570 C 
ATOM      2  N   LIG    1        4.811  -0.113  -0.045  0.00  0.00    -0.730 N 
ATOM      3  H   LIG    1        4.825   0.857  -0.040  0.00  0.00    +0.400 HD
ATOM      4  O   LIG    1        3.616  -1.986  -0.044  0.00  0.00    -0.510 OA
ENDROOT
BRANCH   1  11
ATOM      5  C   LIG    1        1.135  -0.685  -0.013  0.00  0.00    +0.380 A 
ATOM      6  N   LIG    1        0.002  -0.004   0.002  0.00  0.00    -0.550 NA
ATOM      7  C   LIG    1       -0.016   1.315   0.009  0.00  0.00    +0.200 A 
ATOM      8  C   LIG    1        1.157   2.047   0.002  0.00  0.00    -0.070 A 
ATOM      9  C   LIG    1        2.373   1.385  -0.013  0.00  0.00    +0.140 A 
ATOM     10  C   LIG    1       -1.339   2.037   0.019  0.00  0.00    +0.140 C 
ATOM     11  C   LIG    1        2.367  -0.014  -0.021  0.00  0.00    -0.220 A 
BRANCH   5  12
ATOM     12  O   LIG    1        1.106  -2.039  -0.020  0.00  0.00    -0.270 OA
BRANCH  12  14
ATOM     13  C   LIG    1       -0.013  -4.181  -0.022  0.00  0.00    +0.070 C 
ATOM     14  C   LIG    1       -0.181  -2.661  -0.011  0.00  0.00    +0.200 C 
ENDBRANCH  12  14
ENDBRANCH   5  12
ENDBRANCH   1  11
BRANCH   2  15
ATOM     15  C   LIG    1        6.069  -0.864  -0.062  0.00  0.00    +0.290 C 
BRANCH  15  16
ATOM     16  C   LIG    1        7.246   0.114  -0.068  0.00  0.00    +0.010 C 
ATOM     17  C   LIG    1        7.367   0.828   1.304  0.00  0.00    +0.040 C 
ATOM     18  C   LIG    1        8.860   1.240   1.347  0.00  0.00    +0.040 C 
ATOM     19  C   LIG    1        9.600   0.058   0.683  0.00  0.00    +0.060 C 
ATOM     20  C   LIG    1        8.573  -0.643  -0.210  0.00  0.00    +0.120 C 
ATOM     21  N   LIG    1        8.420  -2.052   0.156  0.00  0.00    -0.720 N 
ATOM     22  H   LIG    1        8.138  -2.403   1.016  0.00  0.00    +0.440 HD
ATOM     23  C   LIG    1        8.748  -2.765  -0.940  0.00  0.00    +0.700 C 
ATOM     24  N   LIG    1        9.095  -1.983  -1.971  0.00  0.00    -0.680 N 
ATOM     25  H   LIG    1        9.363  -2.316  -2.842  0.00  0.00    +0.430 HD
ATOM     26  O   LIG    1        8.731  -3.979  -0.988  0.00  0.00    -0.530 OA
ATOM     27  C   LIG    1        9.027  -0.674  -1.647  0.00  0.00    +0.540 C 
ATOM     28  O   LIG    1        9.278   0.274  -2.360  0.00  0.00    -0.460 OA
ENDBRANCH  15  16
ENDBRANCH   2  15
TORSDOF 5
