REMARK  Name = ZINCrg000000qjls.1
REMARK                            x       y       z     vdW  Elec       q    Type
REMARK                         _______ _______ _______ _____ _____    ______ ____
ROOT
ATOM      1  C   LIG    1       -3.708  -1.069  -0.198  0.00  0.00    +0.130 C 
ENDROOT
BRANCH   1   2
ATOM      2  C   LIG    1       -2.412  -0.307  -0.088  0.00  0.00    +0.530 C 
ATOM      3  N   LIG    1       -2.428   1.036   0.020  0.00  0.00    -0.660 N 
ATOM      4  H   LIG    1       -3.272   1.506   0.104  0.00  0.00    +0.420 HD
ATOM      5  O   LIG    1       -1.356  -0.903  -0.096  0.00  0.00    -0.500 OA
BRANCH   3   6
ATOM      6  C   LIG    1       -1.224   1.754   0.012  0.00  0.00    +0.150 A 
ATOM      7  C   LIG    1       -0.152   1.302  -0.746  0.00  0.00    +0.040 A 
ATOM      8  C   LIG    1        1.033   2.012  -0.759  0.00  0.00    +0.050 A 
ATOM      9  C   LIG    1        1.157   3.174  -0.011  0.00  0.00    +0.040 A 
ATOM     10  O   LIG    1        2.335   3.858  -0.033  0.00  0.00    -0.310 OA
ATOM     11  C   LIG    1        2.302   5.211   0.432  0.00  0.00    +0.220 C 
ATOM     12  C   LIG    1        1.512   5.249   1.747  0.00  0.00    +0.230 C 
ATOM     13  O   LIG    1        0.189   4.766   1.489  0.00  0.00    -0.310 OA
ATOM     14  C   LIG    1        0.087   3.626   0.752  0.00  0.00    +0.070 A 
ATOM     15  C   LIG    1       -1.102   2.913   0.765  0.00  0.00    +0.000 A 
ENDBRANCH   3   6
ENDBRANCH   1   2
BRANCH   1  16
ATOM     16  S   LIG    1       -3.357  -2.840  -0.329  0.00  0.00    +0.100 S 
BRANCH  16  23
ATOM     17  N   LIG    1       -5.191  -4.813  -0.563  0.00  0.00    -0.500 N 
ATOM     18  C   LIG    1       -6.443  -5.311  -0.646  0.00  0.00    +0.540 A 
ATOM     19  C   LIG    1       -7.526  -4.426  -0.615  0.00  0.00    -0.180 A 
ATOM     20  C   LIG    1       -7.275  -3.069  -0.495  0.00  0.00    +0.390 A 
ATOM     21  N   LIG    1       -6.015  -2.632  -0.412  0.00  0.00    -0.600 NA
ATOM     22  O   LIG    1       -6.626  -6.514  -0.750  0.00  0.00    -0.510 OA
ATOM     23  C   LIG    1       -4.998  -3.470  -0.441  0.00  0.00    +0.380 A 
BRANCH  20  24
ATOM     24  O   LIG    1       -8.302  -2.188  -0.462  0.00  0.00    -0.440 OA
ATOM     25  H   LIG    1       -8.027  -1.266  -0.376  0.00  0.00    +0.410 HD
ENDBRANCH  20  24
BRANCH  17  26
ATOM     26  C   LIG    1       -4.039  -5.717  -0.598  0.00  0.00    +0.320 C 
BRANCH  26  27
ATOM     27  C   LIG    1       -3.691  -6.155   0.826  0.00  0.00    +0.180 C 
BRANCH  27  29
ATOM     28  C   LIG    1       -4.538  -7.391   2.696  0.00  0.00    +0.200 C 
ATOM     29  O   LIG    1       -4.764  -6.930   1.362  0.00  0.00    -0.370 OA
ENDBRANCH  27  29
ENDBRANCH  26  27
ENDBRANCH  17  26
ENDBRANCH  16  23
ENDBRANCH   1  16
TORSDOF 8
