REMARK  Name = ZINCkj000005lXrU.0
REMARK                            x       y       z     vdW  Elec       q    Type
REMARK                         _______ _______ _______ _____ _____    ______ ____
ROOT
ATOM      1  O   LIG    1        0.789  -1.086   1.857  0.00  0.00    -0.510 OA
ATOM      2  C   LIG    1        0.983  -0.244   0.995  0.00  0.00    +0.520 A 
ATOM      3  N   LIG    1        2.132   0.458   0.984  0.00  0.00    -0.590 N 
ATOM      4  H   LIG    1        2.803   0.290   1.665  0.00  0.00    +0.430 HD
ATOM      5  C   LIG    1        2.364   1.399   0.031  0.00  0.00    +0.410 A 
ATOM      6  C   LIG    1        1.445   1.654  -0.929  0.00  0.00    -0.290 A 
ATOM      7  C   LIG    1        0.237   0.944  -0.950  0.00  0.00    +0.160 A 
ATOM      8  C   LIG    1        0.002  -0.004   0.008  0.00  0.00    +0.010 A 
ENDROOT
BRANCH   6   9
ATOM      9  C   LIG    1        1.722   2.702  -1.976  0.00  0.00    +0.530 C 
ATOM     10  F   LIG    1        0.742   3.699  -1.908  0.00  0.00    -0.170 F 
ATOM     11  F   LIG    1        1.699   2.111  -3.244  0.00  0.00    -0.170 F 
ATOM     12  F   LIG    1        2.980   3.269  -1.748  0.00  0.00    -0.170 F 
ENDBRANCH   6   9
BRANCH   8  13
ATOM     13  N   LIG    1       -1.197  -0.730   0.009  0.00  0.00    -0.660 N 
ATOM     14  H   LIG    1       -2.045  -0.265   0.089  0.00  0.00    +0.410 HD
ATOM     15  C   LIG    1       -1.172  -2.073  -0.100  0.00  0.00    +0.520 C 
ATOM     16  O   LIG    1       -0.112  -2.661  -0.113  0.00  0.00    -0.480 OA
BRANCH  15  17
ATOM     17  C   LIG    1       -2.463  -2.844  -0.206  0.00  0.00    +0.000 C 
ATOM     18  C   LIG    1       -2.157  -4.340  -0.318  0.00  0.00    +0.070 C 
ATOM     19  C   LIG    1       -3.469  -5.107  -0.504  0.00  0.00    +0.060 C 
ATOM     20  C   LIG    1       -4.197  -4.570  -1.738  0.00  0.00    +0.260 C 
ATOM     21  N   LIG    1       -4.485  -3.142  -1.558  0.00  0.00    -0.500 N 
ATOM     22  H   LIG    1       -5.025  -3.012  -0.715  0.00  0.00    +0.430 HD
ATOM     23  H   LIG    1       -5.012  -2.803  -2.349  0.00  0.00    +0.440 HD
ATOM     24  C   LIG    1       -3.228  -2.390  -1.451  0.00  0.00    +0.280 C 
ENDBRANCH  15  17
ENDBRANCH   8  13
TORSDOF 3
