REMARK  Name = ZINCrH00000No4KN.0
REMARK                            x       y       z     vdW  Elec       q    Type
REMARK                         _______ _______ _______ _____ _____    ______ ____
ROOT
ATOM      1  N   LIG    1        4.037   2.331  -1.405  0.00  0.00    -0.550 N 
ENDROOT
BRANCH   1   5
ATOM      2  C   LIG    1        2.631   5.465  -2.361  0.00  0.00    +0.310 A 
ATOM      3  N   LIG    1        3.131   5.431  -3.562  0.00  0.00    -0.490 NA
ATOM      4  S   LIG    1        4.001   3.974  -3.659  0.00  0.00    +0.190 S 
ATOM      5  C   LIG    1        3.634   3.487  -2.047  0.00  0.00    +0.340 A 
ATOM      6  N   LIG    1        2.882   4.453  -1.562  0.00  0.00    -0.580 NA
BRANCH   2   7
ATOM      7  C   LIG    1        1.786   6.625  -1.903  0.00  0.00    +0.170 C 
BRANCH   7   8
ATOM      8  C   LIG    1        0.316   6.343  -2.221  0.00  0.00    +0.170 C 
BRANCH   8  10
ATOM      9  C   LIG    1       -1.883   7.280  -2.039  0.00  0.00    +0.200 C 
ATOM     10  O   LIG    1       -0.485   7.443  -1.787  0.00  0.00    -0.390 OA
ENDBRANCH   8  10
ENDBRANCH   7   8
ENDBRANCH   2   7
ENDBRANCH   1   5
BRANCH   1  11
ATOM     11  C   LIG    1        3.626   2.080  -0.021  0.00  0.00    +0.380 C 
BRANCH  11  12
ATOM     12  C   LIG    1        2.320   1.329  -0.013  0.00  0.00    -0.220 A 
ATOM     13  C   LIG    1        1.111   2.007   0.002  0.00  0.00    +0.340 A 
ATOM     14  N   LIG    1       -0.016   1.314   0.009  0.00  0.00    -0.520 NA
ATOM     15  C   LIG    1        0.002  -0.004   0.002  0.00  0.00    +0.500 A 
ATOM     16  N   LIG    1        1.132  -0.682  -0.012  0.00  0.00    -0.520 NA
ATOM     17  C   LIG    1        2.298  -0.057  -0.020  0.00  0.00    +0.330 A 
ENDBRANCH  11  12
ENDBRANCH   1  11
BRANCH   1  18
ATOM     18  C   LIG    1        4.875   1.356  -2.108  0.00  0.00    +0.300 C 
BRANCH  18  19
ATOM     19  C   LIG    1        3.983   0.341  -2.826  0.00  0.00    +0.000 C 
BRANCH  19  20
ATOM     20  C   LIG    1        4.859  -0.677  -3.560  0.00  0.00    -0.010 C 
ATOM     21  C   LIG    1        5.642   0.030  -4.669  0.00  0.00    +0.040 C 
ATOM     22  C   LIG    1        6.517  -0.988  -5.403  0.00  0.00    +0.030 C 
ATOM     23  C   LIG    1        5.631  -2.074  -6.017  0.00  0.00    +0.290 C 
ATOM     24  C   LIG    1        4.847  -2.780  -4.909  0.00  0.00    +0.030 C 
ATOM     25  F   LIG    1        4.737  -1.489  -6.921  0.00  0.00    -0.200 F 
ATOM     26  F   LIG    1        6.431  -3.004  -6.689  0.00  0.00    -0.200 F 
ATOM     27  C   LIG    1        3.972  -1.762  -4.175  0.00  0.00    +0.040 C 
ENDBRANCH  19  20
ENDBRANCH  18  19
ENDBRANCH   1  18
TORSDOF 9
