REMARK  Name = ZINCrH000009myCO.0
REMARK                            x       y       z     vdW  Elec       q    Type
REMARK                         _______ _______ _______ _____ _____    ______ ____
ROOT
ATOM      1  C   LIG    1       -1.647   2.922   2.640  0.00  0.00    +0.240 A 
ATOM      2  N   LIG    1       -0.846   2.915   1.606  0.00  0.00    -0.300 NA
ATOM      3  N   LIG    1       -0.692   1.575   1.215  0.00  0.00    -0.370 N 
ATOM      4  C   LIG    1       -1.431   0.841   2.079  0.00  0.00    +0.330 A 
ATOM      5  N   LIG    1       -1.999   1.672   2.930  0.00  0.00    -0.500 NA
ENDROOT
BRANCH   4   6
ATOM      6  C   LIG    1       -1.575  -0.629   2.070  0.00  0.00    -0.130 A 
ATOM      7  C   LIG    1       -2.071  -1.274   0.955  0.00  0.00    +0.170 A 
ATOM      8  C   LIG    1       -2.198  -2.684   0.975  0.00  0.00    -0.150 A 
ATOM      9  C   LIG    1       -2.700  -3.365  -0.145  0.00  0.00    +0.140 A 
ATOM     10  C   LIG    1       -2.820  -4.723  -0.118  0.00  0.00    -0.030 A 
ATOM     11  C   LIG    1       -2.448  -5.443   1.012  0.00  0.00    +0.170 A 
ATOM     12  C   LIG    1       -1.951  -4.795   2.126  0.00  0.00    -0.060 A 
ATOM     13  F   LIG    1       -2.573  -6.788   1.021  0.00  0.00    -0.120 F 
ATOM     14  C   LIG    1       -1.821  -3.410   2.121  0.00  0.00    +0.230 A 
ATOM     15  N   LIG    1       -1.325  -2.758   3.232  0.00  0.00    -0.620 N 
ATOM     16  H   LIG    1       -1.070  -3.271   4.014  0.00  0.00    +0.420 HD
ATOM     17  C   LIG    1       -1.188  -1.419   3.242  0.00  0.00    +0.550 A 
ATOM     18  O   LIG    1       -0.744  -0.862   4.231  0.00  0.00    -0.500 OA
ENDBRANCH   4   6
BRANCH   3  19
ATOM     19  C   LIG    1        0.114   1.073   0.099  0.00  0.00    +0.240 C 
ATOM     20  C   LIG    1       -0.387   1.661  -1.242  0.00  0.00    +0.030 C 
ATOM     21  C   LIG    1        0.596   2.838  -1.468  0.00  0.00    +0.220 C 
ATOM     22  O   LIG    1        1.853   2.325  -0.979  0.00  0.00    -0.370 OA
ATOM     23  C   LIG    1        1.566   1.575   0.213  0.00  0.00    +0.220 C 
ENDBRANCH   3  19
BRANCH   1  24
ATOM     24  C   LIG    1       -2.095   4.151   3.389  0.00  0.00    +0.100 C 
BRANCH  24  26
ATOM     25  C   LIG    1       -4.067   5.565   3.982  0.00  0.00    +0.030 C 
ATOM     26  C   LIG    1       -3.621   4.255   3.331  0.00  0.00    +0.020 C 
ENDBRANCH  24  26
BRANCH  24  27
ATOM     27  C   LIG    1       -1.646   4.051   4.848  0.00  0.00    +0.030 C 
ATOM     28  C   LIG    1       -0.117   4.073   4.913  0.00  0.00    +0.010 C 
ENDBRANCH  24  27
ENDBRANCH   1  24
TORSDOF 5
