REMARK  Name = ZINCvU00000007cj.0
REMARK                            x       y       z     vdW  Elec       q    Type
REMARK                         _______ _______ _______ _____ _____    ______ ____
ROOT
ATOM      1  O   LIG    1       -2.259   6.353   0.452  0.00  0.00    -0.980 OA
ATOM      2  P   LIG    1       -2.754   5.017   0.054  0.00  0.00    +2.590 P 
ENDROOT
BRANCH   2   3
ATOM      3  C   LIG    1       -1.467   3.777   0.367  0.00  0.00    -0.610 A 
ATOM      4  N   LIG    1       -1.675   2.512   0.477  0.00  0.00    -0.400 NA
ATOM      5  C   LIG    1       -0.630   1.731   0.711  0.00  0.00    +0.050 A 
ATOM      6  C   LIG    1        0.531   2.409   0.790  0.00  0.00    -0.200 A 
ATOM      7  C   LIG    1        1.885   1.790   1.042  0.00  0.00    +0.120 C 
ATOM      8  C   LIG    1        1.681   0.371   1.584  0.00  0.00    +0.030 C 
ATOM      9  C   LIG    1        0.689  -0.369   0.682  0.00  0.00    +0.030 C 
ATOM     10  C   LIG    1       -0.710   0.220   0.871  0.00  0.00    +0.120 C 
ATOM     11  S   LIG    1        0.197   4.119   0.550  0.00  0.00    +0.250 S 
ENDBRANCH   2   3
BRANCH   2  12
ATOM     12  C   LIG    1       -4.235   4.608   1.018  0.00  0.00    -0.720 A 
ATOM     13  C   LIG    1       -4.108   4.043   2.273  0.00  0.00    +0.080 A 
ATOM     14  C   LIG    1       -5.237   3.736   3.010  0.00  0.00    +0.000 A 
ATOM     15  C   LIG    1       -6.492   3.985   2.488  0.00  0.00    +0.050 A 
ATOM     16  C   LIG    1       -6.619   4.546   1.231  0.00  0.00    +0.000 A 
ATOM     17  C   LIG    1       -5.490   4.857   0.496  0.00  0.00    +0.070 A 
ENDBRANCH   2  12
BRANCH   2  18
ATOM     18  N   LIG    1       -3.137   5.026  -1.585  0.00  0.00    -0.830 NA
ATOM     19  H   LIG    1       -3.462   4.120  -1.886  0.00  0.00    +0.380 HD
BRANCH  18  20
ATOM     20  N   LIG    1       -2.071   5.438  -2.334  0.00  0.00    -0.410 N 
BRANCH  20  21
ATOM     21  C   LIG    1       -1.786   6.800  -2.454  0.00  0.00    +0.170 A 
ATOM     22  C   LIG    1       -0.499   7.265  -2.213  0.00  0.00    +0.000 A 
ATOM     23  C   LIG    1       -0.219   8.612  -2.336  0.00  0.00    +0.030 A 
ATOM     24  C   LIG    1       -1.220   9.498  -2.689  0.00  0.00    +0.000 A 
ATOM     25  C   LIG    1       -2.503   9.039  -2.925  0.00  0.00    +0.030 A 
ATOM     26  C   LIG    1       -2.789   7.693  -2.808  0.00  0.00    +0.020 A 
ENDBRANCH  20  21
BRANCH  20  27
ATOM     27  C   LIG    1       -1.267   4.496  -2.982  0.00  0.00    +0.180 A 
ATOM     28  C   LIG    1       -1.442   3.141  -2.729  0.00  0.00    -0.090 A 
ATOM     29  C   LIG    1       -0.648   2.212  -3.373  0.00  0.00    +0.050 A 
ATOM     30  C   LIG    1        0.326   2.631  -4.262  0.00  0.00    -0.040 A 
ATOM     31  C   LIG    1        0.505   3.979  -4.512  0.00  0.00    +0.060 A 
ATOM     32  C   LIG    1       -0.288   4.912  -3.874  0.00  0.00    -0.020 A 
ENDBRANCH  20  27
ENDBRANCH  18  20
ENDBRANCH   2  18
TORSDOF 6
