REMARK  Name = ZINCnE000001SqCd.0
REMARK                            x       y       z     vdW  Elec       q    Type
REMARK                         _______ _______ _______ _____ _____    ______ ____
ROOT
ATOM      1  O   LIG    1       -1.164   1.190   2.051  0.00  0.00    -0.500 OA
ATOM      2  C   LIG    1       -0.718   1.989   1.254  0.00  0.00    +0.510 C 
ATOM      3  N   LIG    1       -0.863   3.311   1.472  0.00  0.00    -0.680 N 
ATOM      4  H   LIG    1       -0.450   3.950   0.870  0.00  0.00    +0.410 HD
ENDROOT
BRANCH   3   5
ATOM      5  C   LIG    1       -1.608   3.762   2.568  0.00  0.00    +0.190 A 
ATOM      6  C   LIG    1       -1.594   3.050   3.759  0.00  0.00    +0.050 A 
ATOM      7  C   LIG    1       -2.330   3.497   4.839  0.00  0.00    +0.060 A 
ATOM      8  C   LIG    1       -3.080   4.654   4.736  0.00  0.00    +0.010 A 
ATOM      9  C   LIG    1       -3.097   5.368   3.550  0.00  0.00    -0.010 A 
ATOM     10 CL   LIG    1       -4.040   6.820   3.425  0.00  0.00    -0.050 Cl
ATOM     11  C   LIG    1       -2.358   4.928   2.467  0.00  0.00    -0.070 A 
ATOM     12 CL   LIG    1       -2.373   5.827   0.982  0.00  0.00    -0.050 Cl
ENDBRANCH   3   5
BRANCH   2  13
ATOM     13  C   LIG    1       -0.003   1.502   0.020  0.00  0.00    +0.180 C 
BRANCH  13  14
ATOM     14  C   LIG    1        0.022  -0.004   0.015  0.00  0.00    -0.430 A 
ATOM     15  C   LIG    1       -0.904  -0.803  -0.527  0.00  0.00    +0.410 A 
ATOM     16  N   LIG    1       -0.654  -2.095  -0.401  0.00  0.00    -0.540 NA
ATOM     17  C   LIG    1        0.437  -2.424   0.221  0.00  0.00    +0.230 A 
ATOM     18  O   LIG    1       -2.012  -0.325  -1.157  0.00  0.00    -0.710 OA
ATOM     19  S   LIG    1        1.279  -1.021   0.715  0.00  0.00    +0.030 S 
BRANCH  17  20
ATOM     20  N   LIG    1        0.861  -3.724   0.446  0.00  0.00    -0.440 N 
ATOM     21  C   LIG    1        0.929  -4.017   1.901  0.00  0.00    +0.190 C 
ATOM     22  C   LIG    1        0.887  -5.564   1.953  0.00  0.00    +0.030 C 
ATOM     23  C   LIG    1       -0.100  -5.922   0.819  0.00  0.00    +0.010 C 
ATOM     24  C   LIG    1       -0.098  -4.699  -0.117  0.00  0.00    +0.200 C 
ENDBRANCH  17  20
ENDBRANCH  13  14
ENDBRANCH   2  13
TORSDOF 4
