REMARK  Name = ZINCrD000000ApGx.0
REMARK                            x       y       z     vdW  Elec       q    Type
REMARK                         _______ _______ _______ _____ _____    ______ ____
ROOT
ATOM      1  C   LIG    1        2.454   5.675   0.002  0.00  0.00    +0.270 C 
ENDROOT
BRANCH   1   3
ATOM      2  O   LIG    1        4.810   5.544  -0.004  0.00  0.00    -0.480 OA
ATOM      3  C   LIG    1        3.839   6.270   0.001  0.00  0.00    +0.510 C 
ATOM      4  N   LIG    1        3.997   7.608   0.005  0.00  0.00    -0.670 N 
ATOM      5  H   LIG    1        3.223   8.189  -0.059  0.00  0.00    +0.420 HD
BRANCH   4   6
ATOM      6  C   LIG    1        5.279   8.161   0.101  0.00  0.00    +0.150 A 
ATOM      7  C   LIG    1        5.476   9.346   0.797  0.00  0.00    +0.060 A 
ATOM      8  C   LIG    1        6.743   9.886   0.895  0.00  0.00    +0.060 A 
ATOM      9  C   LIG    1        7.814   9.253   0.292  0.00  0.00    +0.090 A 
ATOM     10  C   LIG    1        7.621   8.075  -0.407  0.00  0.00    -0.020 A 
ATOM     11  C   LIG    1        6.357   7.527  -0.504  0.00  0.00    +0.110 A 
BRANCH  10  12
ATOM     12  N   LIG    1        8.770   7.401  -1.052  0.00  0.00    +0.030 N 
ATOM     13  O   LIG    1        9.885   7.883  -0.967  0.00  0.00    -0.150 OA
ATOM     14  O   LIG    1        8.601   6.364  -1.668  0.00  0.00    -0.150 OA
ENDBRANCH  10  12
ENDBRANCH   4   6
ENDBRANCH   1   3
BRANCH   1  15
ATOM     15  O   LIG    1        2.549   4.226  -0.003  0.00  0.00    -0.330 OA
BRANCH  15  16
ATOM     16  C   LIG    1        1.396   3.539  -0.002  0.00  0.00    +0.470 C 
ATOM     17  O   LIG    1        0.342   4.130   0.002  0.00  0.00    -0.510 OA
BRANCH  16  18
ATOM     18  C   LIG    1        1.416   2.033  -0.007  0.00  0.00    +0.130 C 
BRANCH  18  19
ATOM     19  C   LIG    1       -0.019   1.503  -0.005  0.00  0.00    +0.060 C 
BRANCH  19  20
ATOM     20  C   LIG    1        0.001  -0.004  -0.010  0.00  0.00    +0.400 C 
ATOM     21  O   LIG    1        1.059  -0.596  -0.015  0.00  0.00    -0.440 OA
BRANCH  20  22
ATOM     22  C   LIG    1       -1.263  -0.756  -0.009  0.00  0.00    -0.170 A 
ATOM     23  C   LIG    1       -2.485  -0.076   0.002  0.00  0.00    +0.080 A 
ATOM     24  C   LIG    1       -3.666  -0.788  -0.002  0.00  0.00    +0.020 A 
ATOM     25  C   LIG    1       -3.643  -2.174  -0.007  0.00  0.00    -0.000 A 
ATOM     26  C   LIG    1       -2.436  -2.853  -0.013  0.00  0.00    +0.020 A 
ATOM     27 CL   LIG    1       -5.135  -3.062  -0.005  0.00  0.00    -0.060 Cl
ATOM     28  C   LIG    1       -1.248  -2.155  -0.014  0.00  0.00    +0.100 A 
ENDBRANCH  20  22
ENDBRANCH  19  20
ENDBRANCH  18  19
ENDBRANCH  16  18
ENDBRANCH  15  16
ENDBRANCH   1  15
TORSDOF 9
