REMARK  Name = ZINCkj000005izZN.1
REMARK                            x       y       z     vdW  Elec       q    Type
REMARK                         _______ _______ _______ _____ _____    ______ ____
ROOT
ATOM      1  C   LIG    1       -0.832   3.439   1.169  0.00  0.00    +0.330 C 
ENDROOT
BRANCH   1   5
ATOM      2  C   LIG    1       -3.134   4.785   4.508  0.00  0.00    +0.130 A 
ATOM      3  C   LIG    1       -1.755   4.675   4.614  0.00  0.00    -0.090 A 
ATOM      4  C   LIG    1       -1.013   4.240   3.533  0.00  0.00    +0.050 A 
ATOM      5  C   LIG    1       -1.644   3.914   2.347  0.00  0.00    -0.160 A 
ATOM      6  C   LIG    1       -3.017   4.029   2.237  0.00  0.00    +0.050 A 
ATOM      7  C   LIG    1       -1.067   5.030   5.907  0.00  0.00    +0.110 C 
ATOM      8  C   LIG    1       -3.764   4.458   3.316  0.00  0.00    -0.090 A 
ATOM      9  C   LIG    1       -5.262   4.577   3.198  0.00  0.00    +0.110 C 
BRANCH   2  11
ATOM     10  C   LIG    1       -4.089   6.620   5.680  0.00  0.00    +0.240 C 
ATOM     11  O   LIG    1       -3.866   5.213   5.570  0.00  0.00    -0.330 OA
ENDBRANCH   2  11
ENDBRANCH   1   5
BRANCH   1  12
ATOM     12  N   LIG    1       -0.706   1.976   1.219  0.00  0.00    -0.370 N 
ATOM     13  C   LIG    1        0.069   1.592   2.406  0.00  0.00    +0.330 C 
ATOM     14  H   LIG    1       -1.624   1.561   1.268  0.00  0.00    +0.430 HD
BRANCH  12  15
ATOM     15  C   LIG    1       -0.018   1.503   0.010  0.00  0.00    +0.290 C 
BRANCH  15  16
ATOM     16  C   LIG    1        0.002  -0.004   0.002  0.00  0.00    +0.510 C 
ATOM     17  N   LIG    1        0.585  -0.664  -1.018  0.00  0.00    -0.710 N 
ATOM     18  H   LIG    1        0.992  -0.170  -1.747  0.00  0.00    +0.420 HD
ATOM     19  O   LIG    1       -0.506  -0.622   0.913  0.00  0.00    -0.520 OA
BRANCH  17  20
ATOM     20  C   LIG    1        0.605  -2.129  -1.026  0.00  0.00    +0.480 C 
BRANCH  20  21
ATOM     21  C   LIG    1        1.294  -2.604  -2.237  0.00  0.00    +0.170 C 
ATOM     22  N   LIG    1        1.826  -2.970  -3.172  0.00  0.00    -0.370 NA
ENDBRANCH  20  21
ENDBRANCH  17  20
ENDBRANCH  15  16
ENDBRANCH  12  15
ENDBRANCH   1  12
TORSDOF 7
