REMARK  Name = ZINCkj000005izZN.2
REMARK                            x       y       z     vdW  Elec       q    Type
REMARK                         _______ _______ _______ _____ _____    ______ ____
ROOT
ATOM      1  C   LIG    1        0.002  -0.004   0.002  0.00  0.00    +0.330 C 
ENDROOT
BRANCH   1   5
ATOM      2  C   LIG    1       -0.056   4.269   0.025  0.00  0.00    +0.130 A 
ATOM      3  C   LIG    1        1.154   3.591   0.010  0.00  0.00    -0.090 A 
ATOM      4  C   LIG    1        1.170   2.209   0.003  0.00  0.00    +0.050 A 
ATOM      5  C   LIG    1       -0.018   1.503   0.010  0.00  0.00    -0.160 A 
ATOM      6  C   LIG    1       -1.226   2.177   0.020  0.00  0.00    +0.050 A 
ATOM      7  C   LIG    1        2.450   4.360   0.002  0.00  0.00    +0.110 C 
ATOM      8  C   LIG    1       -1.247   3.558   0.033  0.00  0.00    -0.090 A 
ATOM      9  C   LIG    1       -2.563   4.292   0.050  0.00  0.00    +0.110 C 
BRANCH   2  11
ATOM     10  C   LIG    1       -0.095   6.284  -1.236  0.00  0.00    +0.240 C 
ATOM     11  O   LIG    1       -0.074   5.628   0.033  0.00  0.00    -0.330 OA
ENDBRANCH   2  11
ENDBRANCH   1   5
BRANCH   1  12
ATOM     12  N   LIG    1        0.022  -0.501   1.384  0.00  0.00    -0.370 N 
ATOM     13  C   LIG    1       -1.232  -0.133   2.055  0.00  0.00    +0.330 C 
ATOM     14  H   LIG    1        0.800  -0.091   1.878  0.00  0.00    +0.430 HD
BRANCH  12  15
ATOM     15  C   LIG    1        0.163  -1.963   1.377  0.00  0.00    +0.290 C 
BRANCH  15  16
ATOM     16  C   LIG    1        0.306  -2.461   2.792  0.00  0.00    +0.510 C 
ATOM     17  N   LIG    1        0.450  -3.780   3.031  0.00  0.00    -0.710 N 
ATOM     18  H   LIG    1        0.460  -4.409   2.292  0.00  0.00    +0.420 HD
ATOM     19  O   LIG    1        0.293  -1.676   3.716  0.00  0.00    -0.520 OA
BRANCH  17  20
ATOM     20  C   LIG    1        0.589  -4.264   4.406  0.00  0.00    +0.480 C 
BRANCH  20  21
ATOM     21  C   LIG    1        0.730  -5.729   4.399  0.00  0.00    +0.170 C 
ATOM     22  N   LIG    1        0.839  -6.860   4.393  0.00  0.00    -0.370 NA
ENDBRANCH  20  21
ENDBRANCH  17  20
ENDBRANCH  15  16
ENDBRANCH  12  15
ENDBRANCH   1  12
TORSDOF 7
