REMARK  Name = ZINCqH0000003OwX.0
REMARK                            x       y       z     vdW  Elec       q    Type
REMARK                         _______ _______ _______ _____ _____    ______ ____
ROOT
ATOM      1  C   LIG    1        5.472   1.325  -1.143  0.00  0.00    +0.600 C 
ATOM      2  N   LIG    1        6.202   2.379  -0.729  0.00  0.00    -0.710 N 
ATOM      3  H   LIG    1        5.763   3.211  -0.494  0.00  0.00    +0.420 HD
ATOM      4  O   LIG    1        6.024   0.281  -1.437  0.00  0.00    -0.510 OA
ENDROOT
BRANCH   1  10
ATOM      5  C   LIG    1       -0.553   1.307  -1.699  0.00  0.00    +0.110 A 
ATOM      6  C   LIG    1       -0.400   2.617  -1.253  0.00  0.00    -0.020 A 
ATOM      7  C   LIG    1        0.851   3.122  -0.972  0.00  0.00    +0.070 A 
ATOM      8  C   LIG    1        1.977   2.324  -1.133  0.00  0.00    +0.040 A 
ATOM      9  O   LIG    1        3.294   2.540  -0.942  0.00  0.00    -0.180 OA
ATOM     10  C   LIG    1        4.010   1.436  -1.241  0.00  0.00    -0.030 A 
ATOM     11  C   LIG    1        3.176   0.443  -1.645  0.00  0.00    -0.080 A 
ATOM     12  C   LIG    1        3.564  -0.949  -2.070  0.00  0.00    +0.140 C 
ATOM     13  C   LIG    1        1.825   1.000  -1.584  0.00  0.00    -0.100 A 
ATOM     14  C   LIG    1        0.552   0.496  -1.866  0.00  0.00    +0.040 A 
BRANCH   5  15
ATOM     15  O   LIG    1       -1.795   0.824  -1.971  0.00  0.00    -0.310 OA
BRANCH  15  17
ATOM     16  C   LIG    1       -4.200   1.001  -2.132  0.00  0.00    +0.070 C 
ATOM     17  C   LIG    1       -2.894   1.716  -1.777  0.00  0.00    +0.170 C 
ENDBRANCH  15  17
ENDBRANCH   5  15
ENDBRANCH   1  10
BRANCH   2  18
ATOM     18  C   LIG    1        7.660   2.268  -0.632  0.00  0.00    +0.290 C 
BRANCH  18  19
ATOM     19  C   LIG    1        8.241   3.595  -0.141  0.00  0.00    +0.270 C 
BRANCH  19  20
ATOM     20  C   LIG    1        9.746   3.522  -0.158  0.00  0.00    -0.050 A 
ATOM     21  C   LIG    1       10.542   3.438   0.923  0.00  0.00    -0.040 A 
ATOM     22  C   LIG    1       11.873   3.389   0.449  0.00  0.00    -0.060 A 
ATOM     23  C   LIG    1       11.811   3.456  -0.893  0.00  0.00    +0.160 A 
ATOM     24  O   LIG    1       10.520   3.536  -1.255  0.00  0.00    -0.170 OA
ENDBRANCH  19  20
BRANCH  19  25
ATOM     25  N   LIG    1        7.793   4.682  -1.022  0.00  0.00    -0.530 NA
ATOM     26  C   LIG    1        8.210   4.439  -2.410  0.00  0.00    +0.200 C 
ATOM     27  C   LIG    1        8.283   5.982  -0.545  0.00  0.00    +0.190 C 
ENDBRANCH  19  25
ENDBRANCH  18  19
ENDBRANCH   2  18
TORSDOF 7
