REMARK  Name = ZINCc70000002zKz.0
REMARK                            x       y       z     vdW  Elec       q    Type
REMARK                         _______ _______ _______ _____ _____    ______ ____
ROOT
ATOM      1  C   LIG    1       -3.035   1.186   2.460  0.00  0.00    +0.170 C 
ATOM      2  O   LIG    1       -2.609  -0.028   1.838  0.00  0.00    -0.310 OA
ATOM      3  C   LIG    1       -2.205   1.169   1.179  0.00  0.00    +0.040 C 
ATOM      4  C   LIG    1       -0.732   1.581   1.269  0.00  0.00    +0.060 C 
ATOM      5  C   LIG    1       -0.013   1.086   0.008  0.00  0.00    +0.230 C 
ATOM      6  O   LIG    1       -0.705   1.560  -1.149  0.00  0.00    -0.380 OA
ATOM      7  C   LIG    1       -2.030   1.047  -1.298  0.00  0.00    +0.230 C 
ATOM      8  C   LIG    1       -2.899   1.540  -0.135  0.00  0.00    +0.050 C 
ENDROOT
BRANCH   1   9
ATOM      9  C   LIG    1       -4.490   1.561   2.349  0.00  0.00    +0.480 C 
ATOM     10  O   LIG    1       -5.345   0.747   2.608  0.00  0.00    -0.480 OA
BRANCH   9  12
ATOM     11  C   LIG    1       -6.258   3.088   1.878  0.00  0.00    +0.280 C 
ATOM     12  O   LIG    1       -4.838   2.798   1.962  0.00  0.00    -0.350 OA
ENDBRANCH   9  12
ENDBRANCH   1   9
TORSDOF 2
