REMARK  Name = ZINCpk000000mR37.0
REMARK                            x       y       z     vdW  Elec       q    Type
REMARK                         _______ _______ _______ _____ _____    ______ ____
ROOT
ATOM      1  N   LIG    1       -2.898   1.606   2.410  0.00  0.00    -0.720 N 
ATOM      2  H   LIG    1       -3.381   2.447   2.413  0.00  0.00    +0.400 HD
ATOM      3  C   LIG    1       -2.862   0.846   3.523  0.00  0.00    +0.560 C 
ATOM      4  O   LIG    1       -2.257  -0.209   3.519  0.00  0.00    -0.530 OA
ENDROOT
BRANCH   1  10
ATOM      5  C   LIG    1       -0.826   2.756  -3.349  0.00  0.00    +0.090 C 
ATOM      6  C   LIG    1       -0.078   2.260  -2.139  0.00  0.00    +0.510 C 
ATOM      7  N   LIG    1       -0.729   1.575  -1.178  0.00  0.00    -0.620 N 
ATOM      8  C   LIG    1       -0.013   1.086   0.008  0.00  0.00    +0.280 C 
ATOM      9  C   LIG    1       -0.736   1.583   1.264  0.00  0.00    +0.010 C 
ATOM     10  C   LIG    1       -2.208   1.161   1.197  0.00  0.00    +0.250 C 
ATOM     11  C   LIG    1       -2.869   1.797  -0.028  0.00  0.00    +0.030 C 
ATOM     12  C   LIG    1       -2.168   1.303  -1.297  0.00  0.00    +0.280 C 
ATOM     13  O   LIG    1        1.110   2.478  -2.029  0.00  0.00    -0.540 OA
ENDBRANCH   1  10
BRANCH   3  14
ATOM     14  C   LIG    1       -3.557   1.294   4.745  0.00  0.00    -0.110 A 
ATOM     15  C   LIG    1       -3.520   0.507   5.899  0.00  0.00    +0.090 A 
ATOM     16  C   LIG    1       -4.170   0.927   7.038  0.00  0.00    +0.010 A 
ATOM     17  C   LIG    1       -4.862   2.134   7.042  0.00  0.00    +0.080 A 
ATOM     18  C   LIG    1       -4.901   2.922   5.893  0.00  0.00    +0.120 A 
ATOM     19  F   LIG    1       -5.574   4.093   5.900  0.00  0.00    -0.120 F 
ATOM     20  C   LIG    1       -4.248   2.510   4.752  0.00  0.00    +0.020 A 
BRANCH  17  21
ATOM     21  N   LIG    1       -5.516   2.556   8.196  0.00  0.00    -0.500 N 
ATOM     22  C   LIG    1       -4.560   2.795   9.287  0.00  0.00    +0.160 C 
ATOM     23  C   LIG    1       -5.314   3.313  10.515  0.00  0.00    +0.220 C 
ATOM     24  O   LIG    1       -6.326   2.370  10.879  0.00  0.00    -0.380 OA
ATOM     25  C   LIG    1       -7.275   2.114   9.840  0.00  0.00    +0.220 C 
ATOM     26  C   LIG    1       -6.541   1.584   8.605  0.00  0.00    +0.160 C 
ENDBRANCH  17  21
ENDBRANCH   3  14
TORSDOF 3
