REMARK  Name = ZINCqH000000396z.0
REMARK                            x       y       z     vdW  Elec       q    Type
REMARK                         _______ _______ _______ _____ _____    ______ ____
ROOT
ATOM      1  N   LIG    1       -4.227  -1.593   4.410  0.00  0.00    -0.660 N 
ATOM      2  H   LIG    1       -4.132  -1.005   5.175  0.00  0.00    +0.410 HD
ATOM      3  C   LIG    1       -5.053  -2.656   4.475  0.00  0.00    +0.560 C 
ATOM      4  O   LIG    1       -5.235  -3.346   3.491  0.00  0.00    -0.520 OA
ENDROOT
BRANCH   1   8
ATOM      5  C   LIG    1       -2.080  -0.833   0.917  0.00  0.00    +0.210 A 
ATOM      6  C   LIG    1       -3.364  -1.356   0.843  0.00  0.00    -0.050 A 
ATOM      7  C   LIG    1       -4.073  -1.612   1.999  0.00  0.00    +0.070 A 
ATOM      8  C   LIG    1       -3.506  -1.338   3.237  0.00  0.00    +0.080 A 
ATOM      9  C   LIG    1       -2.223  -0.810   3.311  0.00  0.00    +0.030 A 
ATOM     10  C   LIG    1       -1.512  -0.559   2.155  0.00  0.00    -0.050 A 
BRANCH   5  11
ATOM     11  N   LIG    1       -1.359  -0.578  -0.255  0.00  0.00    -0.620 N 
BRANCH  11  12
ATOM     12  C   LIG    1        0.034  -0.134  -0.176  0.00  0.00    +0.230 C 
ATOM     13  C   LIG    1        0.196   1.178  -0.946  0.00  0.00    +0.030 C 
ATOM     14  C   LIG    1        0.945  -1.200  -0.788  0.00  0.00    +0.010 C 
ENDBRANCH  11  12
BRANCH  11  16
ATOM     15  C   LIG    1       -1.783  -2.190  -2.045  0.00  0.00    +0.000 C 
ATOM     16  C   LIG    1       -1.999  -0.754  -1.561  0.00  0.00    +0.270 C 
ENDBRANCH  11  16
ENDBRANCH   5  11
ENDBRANCH   1   8
BRANCH   3  17
ATOM     17  C   LIG    1       -5.739  -2.982   5.744  0.00  0.00    -0.130 A 
ATOM     18  C   LIG    1       -5.528  -2.195   6.877  0.00  0.00    +0.050 A 
ATOM     19  C   LIG    1       -6.176  -2.502   8.056  0.00  0.00    +0.020 A 
ATOM     20  C   LIG    1       -7.023  -3.594   8.120  0.00  0.00    +0.070 A 
ATOM     21  C   LIG    1       -7.232  -4.381   7.001  0.00  0.00    -0.100 A 
ATOM     22  C   LIG    1       -6.596  -4.082   5.814  0.00  0.00    +0.110 A 
BRANCH  21  23
ATOM     23  C   LIG    1       -8.157  -5.569   7.080  0.00  0.00    -0.270 C 
BRANCH  23  24
ATOM     24  S   LIG    1       -7.213  -7.039   7.566  0.00  0.00    +2.410 S 
ATOM     25  O   LIG    1       -6.731  -6.850   8.890  0.00  0.00    -0.930 OA
ATOM     26  O   LIG    1       -6.291  -7.349   6.530  0.00  0.00    -0.930 OA
ATOM     27  C   LIG    1       -8.499  -8.317   7.597  0.00  0.00    -0.270 C 
ENDBRANCH  23  24
ENDBRANCH  21  23
ENDBRANCH   3  17
TORSDOF 7
