REMARK  Name = ZINCnE00000hdcyY.0
REMARK                            x       y       z     vdW  Elec       q    Type
REMARK                         _______ _______ _______ _____ _____    ______ ____
ROOT
ATOM      1  S   LIG    1       -2.463   5.460   0.403  0.00  0.00    +2.720 S 
ATOM      2  O   LIG    1       -1.346   5.704   1.247  0.00  0.00    -0.940 OA
ATOM      3  O   LIG    1       -3.799   5.774   0.772  0.00  0.00    -0.950 OA
ENDROOT
BRANCH   1   4
ATOM      4  N   LIG    1       -2.442   3.841   0.055  0.00  0.00    -0.940 N 
ATOM      5  C   LIG    1       -3.695   3.113  -0.187  0.00  0.00    +0.290 C 
ATOM      6  C   LIG    1       -3.625   1.790   0.585  0.00  0.00    +0.030 C 
ATOM      7  C   LIG    1       -2.478   0.950   0.024  0.00  0.00    +0.030 C 
ATOM      8  C   LIG    1       -1.208   1.758  -0.028  0.00  0.00    -0.110 A 
ATOM      9  C   LIG    1        0.006   1.096  -0.083  0.00  0.00    +0.040 A 
ATOM     10  C   LIG    1        1.188   1.809  -0.136  0.00  0.00    -0.030 A 
ATOM     11  C   LIG    1        1.166   3.192  -0.128  0.00  0.00    +0.050 A 
ATOM     12  C   LIG    1       -0.040   3.861  -0.066  0.00  0.00    -0.030 A 
ATOM     13  C   LIG    1       -2.264  -0.275   0.915  0.00  0.00    +0.040 C 
ATOM     14  C   LIG    1       -1.231   3.145  -0.012  0.00  0.00    +0.180 A 
ENDBRANCH   1   4
BRANCH   1  19
ATOM     15  C   LIG    1       -3.536   7.910  -4.157  0.00  0.00    +0.120 C 
ATOM     16  C   LIG    1       -2.633   7.379  -3.073  0.00  0.00    -0.120 A 
ATOM     17  C   LIG    1       -1.269   7.502  -3.101  0.00  0.00    -0.170 A 
ATOM     18  S   LIG    1       -0.595   6.761  -1.656  0.00  0.00    +0.300 S 
ATOM     19  C   LIG    1       -2.148   6.322  -1.101  0.00  0.00    -0.870 A 
ATOM     20  C   LIG    1       -3.095   6.723  -1.959  0.00  0.00    +0.150 A 
BRANCH  17  21
ATOM     21  C   LIG    1       -0.521   8.133  -4.127  0.00  0.00    +0.530 C 
ATOM     22  O   LIG    1        0.700   8.187  -4.051  0.00  0.00    -0.680 OA
ATOM     23  O   LIG    1       -1.097   8.624  -5.091  0.00  0.00    -0.660 OA
ENDBRANCH  17  21
ENDBRANCH   1  19
TORSDOF 3
