REMARK  Name = ZINCvU0000000HVA.0
REMARK                            x       y       z     vdW  Elec       q    Type
REMARK                         _______ _______ _______ _____ _____    ______ ____
ROOT
ATOM      1  O   LIG    1       -0.029   0.002   0.325  0.00  0.00    -0.500 OA
ATOM      2  C   LIG    1       -0.027   1.209   0.176  0.00  0.00    +0.590 C 
ATOM      3  N   LIG    1       -1.191   1.870   0.018  0.00  0.00    -0.660 N 
ATOM      4  H   LIG    1       -1.196   2.839  -0.024  0.00  0.00    +0.420 HD
ENDROOT
BRANCH   3   5
ATOM      5  C   LIG    1       -2.391   1.158  -0.086  0.00  0.00    +0.170 A 
ATOM      6  C   LIG    1       -3.565   1.698   0.424  0.00  0.00    +0.030 A 
ATOM      7  C   LIG    1       -4.750   0.997   0.322  0.00  0.00    +0.080 A 
ATOM      8  C   LIG    1       -4.769  -0.248  -0.290  0.00  0.00    +0.120 A 
ATOM      9  C   LIG    1       -3.595  -0.790  -0.802  0.00  0.00    +0.100 A 
ATOM     10  F   LIG    1       -3.614  -2.002  -1.399  0.00  0.00    -0.130 F 
ATOM     11  C   LIG    1       -2.410  -0.085  -0.704  0.00  0.00    +0.030 A 
BRANCH   8  12
ATOM     12  N   LIG    1       -5.974  -0.960  -0.394  0.00  0.00    -0.320 N 
ATOM     13  C   LIG    1       -6.133  -2.176  -0.964  0.00  0.00    +0.240 A 
ATOM     14  C   LIG    1       -7.441  -2.511  -0.860  0.00  0.00    -0.100 A 
ATOM     15  C   LIG    1       -8.103  -1.467  -0.205  0.00  0.00    +0.250 A 
ATOM     16  N   LIG    1       -7.224  -0.539   0.079  0.00  0.00    -0.290 NA
ENDBRANCH   8  12
ENDBRANCH   3   5
BRANCH   2  17
ATOM     17  C   LIG    1        1.248   1.948   0.163  0.00  0.00    -0.220 A 
ATOM     18  C   LIG    1        2.510   1.407   0.312  0.00  0.00    +0.060 A 
ATOM     19  N   LIG    1        3.393   2.420   0.237  0.00  0.00    -0.270 N 
ATOM     20  N   LIG    1        2.684   3.612   0.046  0.00  0.00    -0.240 NA
ATOM     21  C   LIG    1        1.408   3.342   0.001  0.00  0.00    +0.300 A 
BRANCH  19  22
ATOM     22  C   LIG    1        4.786   2.303   0.337  0.00  0.00    +0.120 A 
ATOM     23  C   LIG    1        5.345   1.358   1.187  0.00  0.00    +0.040 A 
ATOM     24  C   LIG    1        6.718   1.241   1.280  0.00  0.00    +0.060 A 
ATOM     25  C   LIG    1        7.536   2.071   0.534  0.00  0.00    -0.020 A 
ATOM     26  C   LIG    1        6.981   3.016  -0.311  0.00  0.00    +0.060 A 
ATOM     27 CL   LIG    1        9.262   1.925   0.658  0.00  0.00    -0.050 Cl
ATOM     28  C   LIG    1        5.609   3.134  -0.411  0.00  0.00    +0.070 A 
ENDBRANCH  19  22
BRANCH  18  29
ATOM     29  C   LIG    1        2.839  -0.049   0.519  0.00  0.00    +0.530 C 
ATOM     30  F   LIG    1        4.095  -0.326  -0.031  0.00  0.00    -0.170 F 
ATOM     31  F   LIG    1        1.870  -0.839  -0.109  0.00  0.00    -0.130 F 
ATOM     32  F   LIG    1        2.857  -0.333   1.889  0.00  0.00    -0.160 F 
ENDBRANCH  18  29
ENDBRANCH   2  17
TORSDOF 5
