REMARK  Name = ZINCpe000000XZTb.0
REMARK                            x       y       z     vdW  Elec       q    Type
REMARK                         _______ _______ _______ _____ _____    ______ ____
ROOT
ATOM      1  C   LIG    1       -1.726   3.153   5.782  0.00  0.00    +0.530 C 
ATOM      2  N   LIG    1       -2.120   3.565   7.003  0.00  0.00    -0.630 N 
ATOM      3  C   LIG    1       -1.137   3.836   8.063  0.00  0.00    +0.310 C 
ATOM      4  C   LIG    1       -1.201   5.327   8.436  0.00  0.00    +0.290 C 
ATOM      5  N   LIG    1       -2.600   5.724   8.586  0.00  0.00    -0.460 N 
ATOM      6  C   LIG    1       -3.665   5.043   8.091  0.00  0.00    +0.150 A 
ATOM      7  N   LIG    1       -4.735   5.703   8.411  0.00  0.00    -0.280 NA
ATOM      8  N   LIG    1       -4.406   6.754   9.082  0.00  0.00    -0.290 NA
ATOM      9  C   LIG    1       -3.106   6.805   9.213  0.00  0.00    +0.200 A 
ATOM     10  C   LIG    1       -3.549   3.752   7.317  0.00  0.00    +0.430 C 
ATOM     11  O   LIG    1       -0.547   3.006   5.543  0.00  0.00    -0.520 OA
ENDROOT
BRANCH   9  12
ATOM     12  C   LIG    1       -2.320   7.871   9.932  0.00  0.00    +0.020 C 
ATOM     13  C   LIG    1       -1.637   7.262  11.158  0.00  0.00    +0.050 C 
ATOM     14  C   LIG    1       -3.265   8.989  10.377  0.00  0.00    +0.070 C 
ATOM     15  C   LIG    1       -1.260   8.446   8.990  0.00  0.00    +0.050 C 
ENDBRANCH   9  12
BRANCH   1  16
ATOM     16  C   LIG    1       -2.753   2.876   4.714  0.00  0.00    +0.150 C 
BRANCH  16  21
ATOM     17  C   LIG    1       -0.125   1.131  -0.048  0.00  0.00    +0.190 C 
ATOM     18  C   LIG    1       -0.816   1.611   1.202  0.00  0.00    +0.400 A 
ATOM     19  N   LIG    1       -1.275   0.734   2.055  0.00  0.00    -0.530 NA
ATOM     20  C   LIG    1       -1.894   1.109   3.177  0.00  0.00    +0.200 A 
ATOM     21  C   LIG    1       -2.057   2.432   3.452  0.00  0.00    -0.250 A 
ATOM     22  C   LIG    1       -1.561   3.379   2.533  0.00  0.00    +0.530 A 
ATOM     23  O   LIG    1       -1.686   4.575   2.741  0.00  0.00    -0.530 OA
ATOM     24  C   LIG    1       -2.412   0.069   4.137  0.00  0.00    +0.150 C 
ATOM     25  N   LIG    1       -0.941   2.935   1.419  0.00  0.00    -0.630 N 
ATOM     26  H   LIG    1       -0.588   3.568   0.774  0.00  0.00    +0.420 HD
ENDBRANCH  16  21
ENDBRANCH   1  16
TORSDOF 3
