REMARK  Name = ZINCqH0000050lLo.0
REMARK                            x       y       z     vdW  Elec       q    Type
REMARK                         _______ _______ _______ _____ _____    ______ ____
ROOT
ATOM      1  C   LIG    1       -1.686   4.285   0.039  0.00  0.00    +0.390 C 
ENDROOT
BRANCH   1   2
ATOM      2  C   LIG    1       -2.298   4.457  -1.327  0.00  0.00    -0.110 A 
ATOM      3  C   LIG    1       -3.358   3.658  -1.714  0.00  0.00    +0.080 A 
ATOM      4  C   LIG    1       -3.924   3.818  -2.965  0.00  0.00    -0.010 A 
ATOM      5  C   LIG    1       -3.422   4.772  -3.834  0.00  0.00    +0.110 A 
ATOM      6  C   LIG    1       -2.357   5.567  -3.447  0.00  0.00    -0.010 A 
ATOM      7  F   LIG    1       -3.971   4.926  -5.059  0.00  0.00    -0.140 F 
ATOM      8  C   LIG    1       -1.796   5.409  -2.194  0.00  0.00    +0.060 A 
ENDBRANCH   1   2
BRANCH   1   9
ATOM      9  C   LIG    1       -0.750   3.104   0.025  0.00  0.00    +0.190 A 
ATOM     10  N   LIG    1       -1.108   1.849   0.017  0.00  0.00    -0.470 NA
ATOM     11  C   LIG    1       -0.013   1.076   0.008  0.00  0.00    +0.140 A 
ATOM     12  C   LIG    1        1.066   1.882   0.002  0.00  0.00    +0.130 A 
ATOM     13  N   LIG    1        0.599   3.169   0.013  0.00  0.00    -0.450 N 
ATOM     14  C   LIG    1        1.411   4.388   0.011  0.00  0.00    +0.330 C 
ENDBRANCH   1   9
BRANCH   1  16
ATOM     15  C   LIG    1       -2.540   4.368   2.319  0.00  0.00    +0.520 C 
ATOM     16  N   LIG    1       -2.745   4.056   1.024  0.00  0.00    -0.710 N 
ATOM     17  H   LIG    1       -3.595   3.681   0.745  0.00  0.00    +0.410 HD
ATOM     18  O   LIG    1       -1.478   4.837   2.669  0.00  0.00    -0.540 OA
BRANCH  15  19
ATOM     19  C   LIG    1       -3.630   4.132   3.333  0.00  0.00    +0.070 C 
BRANCH  19  20
ATOM     20  C   LIG    1       -3.143   4.568   4.716  0.00  0.00    +0.100 C 
BRANCH  20  25
ATOM     21  C   LIG    1       -7.322   3.666   8.604  0.00  0.00    +0.090 C 
ATOM     22  C   LIG    1       -6.232   3.901   7.590  0.00  0.00    -0.090 A 
ATOM     23  C   LIG    1       -5.310   2.906   7.323  0.00  0.00    +0.000 A 
ATOM     24  C   LIG    1       -4.311   3.122   6.393  0.00  0.00    +0.010 A 
ATOM     25  C   LIG    1       -4.233   4.332   5.730  0.00  0.00    -0.090 A 
ATOM     26  C   LIG    1       -5.151   5.329   6.001  0.00  0.00    +0.010 A 
ATOM     27  C   LIG    1       -6.155   5.112   6.927  0.00  0.00    +0.000 A 
ENDBRANCH  20  25
ENDBRANCH  19  20
ENDBRANCH  15  19
ENDBRANCH   1  16
TORSDOF 6
