REMARK  Name = ZINCvU0000000Dsr.0
REMARK                            x       y       z     vdW  Elec       q    Type
REMARK                         _______ _______ _______ _____ _____    ______ ____
ROOT
ATOM      1  C   LIG    1        3.266   7.648   0.382  0.00  0.00    +0.110 C 
ATOM      2  C   LIG    1        2.448   6.496  -0.142  0.00  0.00    -0.110 A 
ATOM      3  C   LIG    1        2.861   5.197   0.087  0.00  0.00    +0.040 A 
ATOM      4  C   LIG    1        2.114   4.137  -0.385  0.00  0.00    +0.000 A 
ATOM      5  C   LIG    1        0.943   4.375  -1.106  0.00  0.00    +0.000 A 
ATOM      6  C   LIG    1        0.526   5.685  -1.337  0.00  0.00    +0.080 A 
ATOM      7  C   LIG    1        1.280   6.743  -0.854  0.00  0.00    +0.150 A 
ENDROOT
BRANCH   5   8
ATOM      8  C   LIG    1        0.143   3.241  -1.619  0.00  0.00    +0.210 A 
ATOM      9  N   LIG    1       -1.125   3.269  -1.970  0.00  0.00    -0.270 NA
ATOM     10  N   LIG    1       -1.490   2.105  -2.378  0.00  0.00    -0.290 NA
ATOM     11  C   LIG    1       -0.486   1.276  -2.312  0.00  0.00    +0.190 A 
ATOM     12  C   LIG    1       -0.476  -0.178  -2.709  0.00  0.00    +0.150 C 
ATOM     13  C   LIG    1        0.197  -0.995  -1.603  0.00  0.00    +0.030 C 
ATOM     14  C   LIG    1        1.702  -1.048  -1.849  0.00  0.00    +0.020 C 
ATOM     15  C   LIG    1        2.187   0.251  -2.491  0.00  0.00    +0.030 C 
ATOM     16  C   LIG    1        1.913   1.427  -1.549  0.00  0.00    +0.290 C 
ATOM     17  N   LIG    1        0.579   1.963  -1.819  0.00  0.00    -0.470 N 
ENDBRANCH   5   8
BRANCH   7  18
ATOM     18  N   LIG    1        0.866   8.060  -1.083  0.00  0.00    -0.670 N 
ATOM     19  H   LIG    1        1.504   8.788  -1.017  0.00  0.00    +0.410 HD
ATOM     20  C   LIG    1       -0.420   8.317  -1.395  0.00  0.00    +0.540 C 
ATOM     21  O   LIG    1       -1.238   7.423  -1.380  0.00  0.00    -0.490 OA
BRANCH  20  22
ATOM     22  C   LIG    1       -0.841   9.717  -1.762  0.00  0.00    -0.070 C 
ATOM     23  C   LIG    1       -1.011  10.648  -0.550  0.00  0.00    +0.060 C 
ATOM     24  C   LIG    1       -2.473  10.167  -0.489  0.00  0.00    +0.030 C 
ATOM     25  C   LIG    1       -2.354   9.865  -1.992  0.00  0.00    +0.070 C 
BRANCH  22  26
ATOM     26  C   LIG    1       -0.002  10.310  -2.865  0.00  0.00    -0.040 A 
ATOM     27  C   LIG    1        1.369  10.408  -2.714  0.00  0.00    -0.010 A 
ATOM     28  C   LIG    1        2.140  10.951  -3.725  0.00  0.00    +0.060 A 
ATOM     29  C   LIG    1        1.541  11.396  -4.888  0.00  0.00    -0.010 A 
ATOM     30  C   LIG    1        0.168  11.299  -5.040  0.00  0.00    +0.110 A 
ATOM     31  F   LIG    1       -0.418  11.734  -6.177  0.00  0.00    -0.140 F 
ATOM     32  C   LIG    1       -0.602  10.750  -4.029  0.00  0.00    +0.000 A 
ENDBRANCH  22  26
ENDBRANCH  20  22
ENDBRANCH   7  18
TORSDOF 4
