REMARK  Name = ZINCrD000000ArlS.0
REMARK                            x       y       z     vdW  Elec       q    Type
REMARK                         _______ _______ _______ _____ _____    ______ ____
ROOT
ATOM      1  O   LIG    1       -1.302   3.885   0.221  0.00  0.00    -0.500 OA
ATOM      2  C   LIG    1       -1.337   3.185   1.211  0.00  0.00    +0.520 C 
ATOM      3  N   LIG    1       -0.751   1.971   1.199  0.00  0.00    -0.720 N 
ATOM      4  H   LIG    1       -0.779   1.411   1.990  0.00  0.00    +0.400 HD
ENDROOT
BRANCH   3   5
ATOM      5  C   LIG    1       -0.073   1.497  -0.010  0.00  0.00    +0.290 C 
ATOM      6  C   LIG    1       -0.054  -0.030  -0.011  0.00  0.00    +0.020 C 
ATOM      7  C   LIG    1        0.842  -0.501  -1.163  0.00  0.00    +0.030 C 
ATOM      8  C   LIG    1        2.291  -0.164  -0.814  0.00  0.00    +0.080 C 
ATOM      9  C   LIG    1        2.416   1.282  -0.412  0.00  0.00    -0.070 A 
ATOM     10  C   LIG    1        3.683   1.849  -0.423  0.00  0.00    -0.010 A 
ATOM     11  C   LIG    1        3.864   3.168  -0.060  0.00  0.00    +0.010 A 
ATOM     12  C   LIG    1        2.776   3.932   0.318  0.00  0.00    -0.010 A 
ATOM     13  C   LIG    1        1.515   3.371   0.328  0.00  0.00    +0.020 A 
ATOM     14  C   LIG    1        1.331   2.044  -0.039  0.00  0.00    -0.100 A 
ENDBRANCH   3   5
BRANCH   2  15
ATOM     15  C   LIG    1       -2.035   3.672   2.454  0.00  0.00    +0.240 C 
BRANCH  15  16
ATOM     16  O   LIG    1       -2.571   4.976   2.220  0.00  0.00    -0.290 OA
BRANCH  16  17
ATOM     17  C   LIG    1       -3.237   5.564   3.248  0.00  0.00    +0.160 A 
ATOM     18  C   LIG    1       -3.370   4.899   4.459  0.00  0.00    -0.110 A 
ATOM     19  C   LIG    1       -4.047   5.495   5.506  0.00  0.00    +0.080 A 
ATOM     20  C   LIG    1       -4.591   6.755   5.351  0.00  0.00    -0.060 A 
ATOM     21  C   LIG    1       -4.460   7.426   4.142  0.00  0.00    +0.210 A 
ATOM     22  C   LIG    1       -3.777   6.830   3.091  0.00  0.00    -0.030 A 
BRANCH  21  23
ATOM     23  N   LIG    1       -5.011   8.703   3.986  0.00  0.00    -0.560 N 
ATOM     24  C   LIG    1       -5.852   9.370   4.987  0.00  0.00    +0.260 C 
ATOM     25  C   LIG    1       -5.850  10.865   4.592  0.00  0.00    +0.060 C 
ATOM     26  C   LIG    1       -5.569  10.788   3.074  0.00  0.00    +0.070 C 
ATOM     27  C   LIG    1       -4.843   9.473   2.897  0.00  0.00    +0.510 C 
ATOM     28  O   LIG    1       -4.204   9.158   1.915  0.00  0.00    -0.500 OA
ENDBRANCH  21  23
ENDBRANCH  16  17
ENDBRANCH  15  16
ENDBRANCH   2  15
TORSDOF 5
