REMARK  Name = ZINCpk00000e94cO.0
REMARK                            x       y       z     vdW  Elec       q    Type
REMARK                         _______ _______ _______ _____ _____    ______ ____
ROOT
ATOM      1  N   LIG    1       -3.358   1.275   4.748  0.00  0.00    -0.690 N 
ATOM      2  H   LIG    1       -4.185   1.734   4.534  0.00  0.00    +0.410 HD
ATOM      3  C   LIG    1       -2.289   1.399   3.937  0.00  0.00    +0.700 C 
ATOM      4  N   LIG    1       -2.400   2.071   2.774  0.00  0.00    -0.740 N 
ATOM      5  H   LIG    1       -3.249   2.466   2.521  0.00  0.00    +0.400 HD
ATOM      6  O   LIG    1       -1.224   0.904   4.254  0.00  0.00    -0.560 OA
ENDROOT
BRANCH   1  10
ATOM      7  C   LIG    1       -3.110  -1.078   8.176  0.00  0.00    -0.160 A 
ATOM      8  C   LIG    1       -3.907   0.070   8.171  0.00  0.00    +0.100 A 
ATOM      9  C   LIG    1       -3.987   0.846   7.036  0.00  0.00    -0.030 A 
ATOM     10  C   LIG    1       -3.275   0.488   5.896  0.00  0.00    +0.200 A 
ATOM     11  C   LIG    1       -2.484  -0.657   5.896  0.00  0.00    +0.010 A 
ATOM     12  C   LIG    1       -2.396  -1.435   7.029  0.00  0.00    +0.070 A 
BRANCH   7  15
ATOM     13  N   LIG    1       -2.253  -3.018   9.395  0.00  0.00    -0.730 N 
ATOM     14  H   LIG    1       -1.757  -3.267   8.599  0.00  0.00    +0.400 HD
ATOM     15  C   LIG    1       -3.022  -1.911   9.391  0.00  0.00    +0.560 C 
ATOM     16  O   LIG    1       -3.644  -1.600  10.388  0.00  0.00    -0.540 OA
BRANCH  13  17
ATOM     17  C   LIG    1       -2.166  -3.846  10.600  0.00  0.00    +0.260 C 
BRANCH  17  19
ATOM     18  C   LIG    1       -1.044  -5.825  11.633  0.00  0.00    +0.030 C 
ATOM     19  C   LIG    1       -1.234  -5.031  10.339  0.00  0.00    -0.030 C 
ATOM     20  C   LIG    1       -1.849  -5.937   9.270  0.00  0.00    +0.020 C 
ENDBRANCH  17  19
ENDBRANCH  13  17
ENDBRANCH   7  15
ENDBRANCH   1  10
BRANCH   4  21
ATOM     21  C   LIG    1       -1.238   2.205   1.892  0.00  0.00    +0.270 C 
ATOM     22  C   LIG    1       -0.396   3.404   2.335  0.00  0.00    +0.000 C 
ATOM     23  C   LIG    1        0.817   3.544   1.414  0.00  0.00    +0.010 C 
ATOM     24  C   LIG    1        0.343   3.758  -0.025  0.00  0.00    +0.130 C 
ATOM     25  C   LIG    1       -0.498   2.559  -0.468  0.00  0.00    +0.190 C 
ATOM     26  C   LIG    1       -1.711   2.419   0.453  0.00  0.00    +0.050 C 
BRANCH  25  27
ATOM     27  O   LIG    1        0.293   1.371  -0.399  0.00  0.00    -0.560 OA
ATOM     28  H   LIG    1        1.081   1.389  -0.959  0.00  0.00    +0.390 HD
ENDBRANCH  25  27
BRANCH  24  29
ATOM     29  O   LIG    1        1.477   3.889  -0.885  0.00  0.00    -0.570 OA
ATOM     30  H   LIG    1        2.056   4.630  -0.662  0.00  0.00    +0.380 HD
ENDBRANCH  24  29
ENDBRANCH   4  21
TORSDOF 7
