REMARK  Name = ZINCpe00000gMNDM.0
REMARK                            x       y       z     vdW  Elec       q    Type
REMARK                         _______ _______ _______ _____ _____    ______ ____
ROOT
ATOM      1  C   LIG    1       -8.419   3.686   0.102  0.00  0.00    +0.500 C 
ATOM      2  N   LIG    1       -7.180   4.217   0.093  0.00  0.00    -0.520 N 
ATOM      3  H   LIG    1       -7.065   5.181   0.097  0.00  0.00    +0.430 HD
ATOM      4  O   LIG    1       -8.562   2.482   0.097  0.00  0.00    -0.510 OA
ENDROOT
BRANCH   1  13
ATOM      5  C   LIG    1      -11.158   2.696   2.315  0.00  0.00    +0.080 C 
ATOM      6  C   LIG    1      -11.605   3.777   1.328  0.00  0.00    +0.170 C 
ATOM      7  C   LIG    1      -13.072   3.615   0.896  0.00  0.00    +0.090 C 
ATOM      8  C   LIG    1      -12.904   2.701  -0.344  0.00  0.00    +0.090 C 
ATOM      9  C   LIG    1      -11.503   2.986  -0.834  0.00  0.00    +0.550 C 
ATOM     10  O   LIG    1      -11.041   2.582  -1.879  0.00  0.00    -0.500 OA
ATOM     11  S   LIG    1      -11.307   5.483   1.937  0.00  0.00    -0.230 S 
ATOM     12  C   LIG    1       -9.554   5.486   1.373  0.00  0.00    +0.170 C 
ATOM     13  C   LIG    1       -9.626   4.589   0.119  0.00  0.00    +0.270 C 
ATOM     14  N   LIG    1      -10.834   3.758   0.061  0.00  0.00    -0.610 N 
ENDBRANCH   1  13
BRANCH   2  15
ATOM     15  N   LIG    1       -6.058   3.378   0.078  0.00  0.00    -0.520 N 
ATOM     16  H   LIG    1       -6.173   2.415   0.074  0.00  0.00    +0.430 HD
ATOM     17  C   LIG    1       -4.820   3.909   0.069  0.00  0.00    +0.520 C 
ATOM     18  O   LIG    1       -4.676   5.114   0.074  0.00  0.00    -0.510 OA
BRANCH  17  19
ATOM     19  C   LIG    1       -3.613   3.007   0.053  0.00  0.00    +0.250 C 
BRANCH  19  20
ATOM     20  O   LIG    1       -2.425   3.800   0.046  0.00  0.00    -0.280 OA
BRANCH  20  21
ATOM     21  C   LIG    1       -1.239   3.136   0.031  0.00  0.00    +0.090 A 
ATOM     22  C   LIG    1       -1.219   1.750   0.017  0.00  0.00    -0.040 A 
ATOM     23  C   LIG    1       -0.013   1.076   0.008  0.00  0.00    +0.050 A 
ATOM     24  C   LIG    1        1.175   1.782   0.000  0.00  0.00    +0.020 A 
ATOM     25  C   LIG    1        1.161   3.165   0.008  0.00  0.00    +0.030 A 
ATOM     26  C   LIG    1       -0.043   3.844   0.023  0.00  0.00    +0.080 A 
ATOM     27  F   LIG    1       -0.058   5.195   0.030  0.00  0.00    -0.130 F 
ENDBRANCH  20  21
ENDBRANCH  19  20
ENDBRANCH  17  19
ENDBRANCH   2  15
TORSDOF 5
