REMARK  Name = ZINCpk00000dGVRe.0
REMARK                            x       y       z     vdW  Elec       q    Type
REMARK                         _______ _______ _______ _____ _____    ______ ____
ROOT
ATOM      1  C   LIG    1        2.476   1.076  -0.016  0.00  0.00    +0.570 C 
ATOM      2  N   LIG    1        3.632   1.769  -0.024  0.00  0.00    -0.730 N 
ATOM      3  H   LIG    1        3.616   2.739  -0.018  0.00  0.00    +0.400 HD
ATOM      4  O   LIG    1        2.495  -0.140  -0.024  0.00  0.00    -0.530 OA
ENDROOT
BRANCH   1  11
ATOM      5  C   LIG    1       -3.060   4.918   0.059  0.00  0.00    +0.350 C 
ATOM      6  N   LIG    1       -2.568   3.538   0.046  0.00  0.00    -0.540 N 
ATOM      7  C   LIG    1       -3.332   2.430   0.048  0.00  0.00    +0.680 A 
ATOM      8  N   LIG    1       -2.547   1.336   0.034  0.00  0.00    -0.540 N 
ATOM      9  C   LIG    1       -1.217   1.753   0.017  0.00  0.00    +0.080 A 
ATOM     10  C   LIG    1       -0.013   1.076   0.008  0.00  0.00    +0.110 A 
ATOM     11  C   LIG    1        1.185   1.793   0.000  0.00  0.00    -0.130 A 
ATOM     12  C   LIG    1        1.162   3.191   0.008  0.00  0.00    +0.070 A 
ATOM     13  C   LIG    1       -0.040   3.863   0.023  0.00  0.00    +0.030 A 
ATOM     14  C   LIG    1       -3.011  -0.053   0.032  0.00  0.00    +0.350 C 
ATOM     15  O   LIG    1       -4.549   2.419   0.060  0.00  0.00    -0.550 OA
ATOM     16  C   LIG    1       -1.233   3.152   0.031  0.00  0.00    +0.120 A 
ENDBRANCH   1  11
BRANCH   2  17
ATOM     17  C   LIG    1        4.912   1.057  -0.040  0.00  0.00    +0.390 C 
BRANCH  17  18
ATOM     18  C   LIG    1        6.041   2.055  -0.045  0.00  0.00    -0.100 A 
ATOM     19  C   LIG    1        6.712   2.513   1.034  0.00  0.00    +0.250 A 
ATOM     20  N   LIG    1        7.641   3.380   0.623  0.00  0.00    -0.490 NA
ATOM     21  C   LIG    1        7.575   3.495  -0.696  0.00  0.00    +0.230 A 
ATOM     22  C   LIG    1        8.311   4.265  -1.619  0.00  0.00    +0.070 A 
ATOM     23  C   LIG    1        8.016   4.178  -2.944  0.00  0.00    +0.050 A 
ATOM     24  C   LIG    1        6.986   3.325  -3.373  0.00  0.00    +0.010 A 
ATOM     25  C   LIG    1        6.290   2.593  -2.477  0.00  0.00    +0.210 A 
ATOM     26  N   LIG    1        6.576   2.671  -1.144  0.00  0.00    -0.350 N 
ENDBRANCH  17  18
ENDBRANCH   2  17
TORSDOF 3
