REMARK  Name = ZINCnE000005uicu.0
REMARK                            x       y       z     vdW  Elec       q    Type
REMARK                         _______ _______ _______ _____ _____    ______ ____
ROOT
ATOM      1  C   LIG    1       -3.223  -0.137   2.816  0.00  0.00    -0.080 C 
ATOM      2  C   LIG    1       -2.302   0.603   1.818  0.00  0.00    +0.280 C 
ATOM      3  N   LIG    1       -2.390  -0.223   0.592  0.00  0.00    -0.620 N 
ATOM      4  C   LIG    1       -3.799  -0.649   0.490  0.00  0.00    +0.260 C 
ATOM      5  C   LIG    1       -1.387  -0.528  -0.255  0.00  0.00    +0.540 C 
ATOM      6  O   LIG    1       -1.603  -1.224  -1.225  0.00  0.00    -0.550 OA
ATOM      7  C   LIG    1       -4.380  -0.630   1.916  0.00  0.00    +0.050 C 
ENDROOT
BRANCH   7   8
ATOM      8  C   LIG    1       -4.807  -2.016   2.326  0.00  0.00    -0.040 A 
ATOM      9  C   LIG    1       -3.887  -3.048   2.336  0.00  0.00    +0.020 A 
ATOM     10  C   LIG    1       -4.276  -4.318   2.716  0.00  0.00    +0.040 A 
ATOM     11  C   LIG    1       -5.590  -4.560   3.076  0.00  0.00    -0.100 A 
ATOM     12  C   LIG    1       -6.512  -3.529   3.060  0.00  0.00    +0.040 A 
ATOM     13 BR   LIG    1       -6.125  -6.299   3.590  0.00  0.00    -0.070 Br
ATOM     14  C   LIG    1       -6.120  -2.257   2.685  0.00  0.00    +0.030 A 
ENDBRANCH   7   8
BRANCH   5  15
ATOM     15  C   LIG    1        0.002  -0.004   0.002  0.00  0.00    +0.000 C 
ATOM     16  C   LIG    1       -0.019   1.526   0.010  0.00  0.00    +0.080 C 
ATOM     17  C   LIG    1        1.383   2.062  -0.000  0.00  0.00    -0.040 C 
ATOM     18  C   LIG    1        2.423   1.366  -0.330  0.00  0.00    -0.060 C 
ATOM     19  C   LIG    1        2.374  -0.078  -0.737  0.00  0.00    +0.050 C 
ATOM     20  C   LIG    1        0.944  -0.470  -1.115  0.00  0.00    +0.040 C 
ENDBRANCH   5  15
BRANCH   1  22
ATOM     21  O   LIG    1       -3.292   0.743   5.010  0.00  0.00    -0.690 OA
ATOM     22  C   LIG    1       -3.736   0.803   3.876  0.00  0.00    +0.500 C 
ATOM     23  O   LIG    1       -4.594   1.624   3.600  0.00  0.00    -0.690 OA
ENDBRANCH   1  22
TORSDOF 3
