REMARK  Name = ZINCvU00000004rt.0
REMARK                            x       y       z     vdW  Elec       q    Type
REMARK                         _______ _______ _______ _____ _____    ______ ____
ROOT
ATOM      1  N   LIG    1       -1.154  -0.694   0.010  0.00  0.00    -0.660 N 
ATOM      2  H   LIG    1       -0.476  -0.200  -0.478  0.00  0.00    +0.420 HD
ATOM      3  C   LIG    1       -2.167  -0.036   0.608  0.00  0.00    +0.610 C 
ATOM      4  O   LIG    1       -3.062  -0.659   1.148  0.00  0.00    -0.500 OA
ENDROOT
BRANCH   1   8
ATOM      5  C   LIG    1       -0.933  -4.850   0.254  0.00  0.00    -0.150 A 
ATOM      6  C   LIG    1       -2.170  -4.224   0.173  0.00  0.00    +0.100 A 
ATOM      7  C   LIG    1       -2.243  -2.848   0.092  0.00  0.00    +0.020 A 
ATOM      8  C   LIG    1       -1.079  -2.090   0.092  0.00  0.00    +0.180 A 
ATOM      9  C   LIG    1        0.158  -2.716   0.167  0.00  0.00    -0.020 A 
ATOM     10  C   LIG    1        0.231  -4.092   0.254  0.00  0.00    +0.100 A 
BRANCH   5  11
ATOM     11  S   LIG    1       -0.840  -6.607   0.357  0.00  0.00    +0.110 S 
BRANCH  11  17
ATOM     12  C   LIG    1       -0.554  -5.184  -4.551  0.00  0.00    +0.140 C 
ATOM     13  C   LIG    1       -0.493  -6.293  -3.532  0.00  0.00    +0.190 A 
ATOM     14  C   LIG    1       -0.261  -7.600  -3.931  0.00  0.00    -0.090 A 
ATOM     15  C   LIG    1       -0.213  -8.590  -2.962  0.00  0.00    +0.190 A 
ATOM     16  N   LIG    1       -0.389  -8.261  -1.693  0.00  0.00    -0.510 NA
ATOM     17  C   LIG    1       -0.610  -7.001  -1.345  0.00  0.00    +0.290 A 
ATOM     18  C   LIG    1        0.037 -10.025  -3.349  0.00  0.00    +0.140 C 
ATOM     19  N   LIG    1       -0.666  -6.032  -2.247  0.00  0.00    -0.520 NA
ENDBRANCH  11  17
ENDBRANCH   5  11
ENDBRANCH   1   8
BRANCH   3  20
ATOM     20  C   LIG    1       -2.190   1.430   0.609  0.00  0.00    -0.080 A 
ATOM     21  C   LIG    1       -3.152   2.217   1.175  0.00  0.00    -0.080 A 
ATOM     22  C   LIG    1       -2.775   3.548   0.939  0.00  0.00    -0.030 A 
ATOM     23  C   LIG    1       -1.615   3.516   0.247  0.00  0.00    +0.230 A 
ATOM     24  O   LIG    1       -1.263   2.238   0.055  0.00  0.00    -0.160 OA
BRANCH  21  25
ATOM     25  C   LIG    1       -4.380   1.747   1.911  0.00  0.00    +0.310 C 
BRANCH  25  26
ATOM     26  O   LIG    1       -5.134   2.878   2.351  0.00  0.00    -0.310 OA
BRANCH  26  27
ATOM     27  C   LIG    1       -6.281   2.627   3.036  0.00  0.00    +0.130 A 
ATOM     28  C   LIG    1       -6.675   1.319   3.275  0.00  0.00    -0.080 A 
ATOM     29  C   LIG    1       -7.838   1.067   3.977  0.00  0.00    +0.050 A 
ATOM     30  C   LIG    1       -8.614   2.116   4.431  0.00  0.00    -0.040 A 
ATOM     31  C   LIG    1       -8.226   3.421   4.189  0.00  0.00    +0.050 A 
ATOM     32  C   LIG    1       -7.062   3.679   3.493  0.00  0.00    -0.020 A 
ENDBRANCH  26  27
ENDBRANCH  25  26
ENDBRANCH  21  25
ENDBRANCH   3  20
TORSDOF 7
