REMARK  Name = ZINCpe000000X9yc.0
REMARK                            x       y       z     vdW  Elec       q    Type
REMARK                         _______ _______ _______ _____ _____    ______ ____
ROOT
ATOM      1  C   LIG    1        2.673   4.570   1.292  0.00  0.00    +0.100 C 
ATOM      2  C   LIG    1        2.482   3.776  -0.001  0.00  0.00    +0.180 C 
ATOM      3  N   LIG    1        2.586   4.662  -1.174  0.00  0.00    -0.710 N 
ATOM      4  H   LIG    1        2.015   5.417  -1.382  0.00  0.00    +0.440 HD
ATOM      5  C   LIG    1        3.628   4.218  -1.900  0.00  0.00    +0.710 C 
ATOM      6  N   LIG    1        4.219   3.152  -1.348  0.00  0.00    -0.570 N 
ATOM      7  O   LIG    1        3.993   4.729  -2.941  0.00  0.00    -0.540 OA
ATOM      8  C   LIG    1        3.617   2.790  -0.194  0.00  0.00    +0.550 C 
ATOM      9  O   LIG    1        3.920   1.870   0.536  0.00  0.00    -0.430 OA
ENDROOT
BRANCH   2  10
ATOM     10  C   LIG    1        1.155   3.062   0.007  0.00  0.00    +0.120 A 
ATOM     11  C   LIG    1       -0.015   3.796   0.022  0.00  0.00    -0.010 A 
ATOM     12  C   LIG    1       -1.231   3.129   0.030  0.00  0.00    +0.070 A 
ATOM     13  C   LIG    1       -1.223   1.743   0.017  0.00  0.00    -0.020 A 
ATOM     14  C   LIG    1       -0.013   1.076   0.008  0.00  0.00    +0.270 A 
ATOM     15  N   LIG    1        1.125   1.743   0.001  0.00  0.00    -0.470 NA
ENDBRANCH   2  10
BRANCH   6  16
ATOM     16  C   LIG    1        5.378   2.463  -1.923  0.00  0.00    +0.360 C 
BRANCH  16  17
ATOM     17  C   LIG    1        6.644   3.085  -1.394  0.00  0.00    +0.500 C 
ATOM     18  N   LIG    1        7.843   2.611  -1.788  0.00  0.00    -0.720 N 
ATOM     19  H   LIG    1        7.890   1.870  -2.412  0.00  0.00    +0.410 HD
ATOM     20  O   LIG    1        6.585   4.012  -0.614  0.00  0.00    -0.510 OA
BRANCH  18  21
ATOM     21  C   LIG    1        9.075   3.216  -1.274  0.00  0.00    +0.280 C 
ATOM     22  C   LIG    1        9.155   4.696  -1.703  0.00  0.00    +0.050 C 
ATOM     23  C   LIG    1       10.660   4.923  -1.998  0.00  0.00    +0.020 C 
ATOM     24  C   LIG    1       11.084   3.590  -2.662  0.00  0.00    +0.040 C 
ATOM     25  C   LIG    1       10.301   2.513  -1.883  0.00  0.00    +0.060 C 
BRANCH  21  26
ATOM     26  C   LIG    1        9.112   3.113   0.194  0.00  0.00    +0.200 C 
ATOM     27  N   LIG    1        9.141   3.034   1.326  0.00  0.00    -0.410 NA
ENDBRANCH  21  26
ENDBRANCH  18  21
ENDBRANCH  16  17
ENDBRANCH   6  16
TORSDOF 5
