REMARK  Name = ZINCqH0000007mhp.2
REMARK                            x       y       z     vdW  Elec       q    Type
REMARK                         _______ _______ _______ _____ _____    ______ ____
ROOT
ATOM      1  C   LIG    1       -0.329   3.446   1.623  0.00  0.00    +0.150 C 
ENDROOT
BRANCH   1   2
ATOM      2  O   LIG    1       -0.884   3.850   2.877  0.00  0.00    -0.290 OA
BRANCH   2   6
ATOM      3  C   LIG    1       -1.208   7.908   3.561  0.00  0.00    +0.090 A 
ATOM      4  C   LIG    1       -0.678   7.447   2.366  0.00  0.00    -0.050 A 
ATOM      5  C   LIG    1       -0.565   6.089   2.139  0.00  0.00    -0.040 A 
ATOM      6  C   LIG    1       -0.991   5.187   3.102  0.00  0.00    +0.100 A 
ATOM      7  C   LIG    1       -1.521   5.648   4.298  0.00  0.00    -0.060 A 
ATOM      8  C   LIG    1       -1.629   7.006   4.527  0.00  0.00    +0.020 A 
BRANCH   7   9
ATOM      9  C   LIG    1       -1.978   4.668   5.347  0.00  0.00    -0.020 C 
ATOM     10  C   LIG    1       -0.799   3.794   5.778  0.00  0.00    +0.050 C 
ATOM     11  C   LIG    1       -3.085   3.783   4.770  0.00  0.00    +0.040 C 
ATOM     12  C   LIG    1       -2.517   5.432   6.559  0.00  0.00    +0.030 C 
ENDBRANCH   7   9
BRANCH   3  14
ATOM     13  C   LIG    1       -0.862  10.116   2.749  0.00  0.00    +0.230 C 
ATOM     14  O   LIG    1       -1.315   9.245   3.787  0.00  0.00    -0.320 OA
ENDBRANCH   3  14
ENDBRANCH   2   6
ENDBRANCH   1   2
BRANCH   1  15
ATOM     15  C   LIG    1       -0.290   1.918   1.552  0.00  0.00    +0.230 C 
BRANCH  15  16
ATOM     16  O   LIG    1        0.611   1.418   2.543  0.00  0.00    -0.530 OA
ATOM     17  H   LIG    1        1.520   1.732   2.442  0.00  0.00    +0.370 HD
ENDBRANCH  15  16
BRANCH  15  18
ATOM     18  C   LIG    1        0.187   1.484   0.164  0.00  0.00    +0.160 C 
BRANCH  18  19
ATOM     19  N   LIG    1        0.216   0.017   0.093  0.00  0.00    -0.530 NA
ATOM     20  C   LIG    1        1.083  -0.440  -1.002  0.00  0.00    +0.190 C 
BRANCH  19  21
ATOM     21  C   LIG    1       -1.141  -0.530  -0.047  0.00  0.00    +0.290 C 
BRANCH  21  22
ATOM     22  C   LIG    1       -1.100  -2.026   0.129  0.00  0.00    -0.020 A 
ATOM     23  C   LIG    1       -1.238  -2.685   1.293  0.00  0.00    -0.030 A 
ATOM     24  C   LIG    1       -1.134  -4.064   0.998  0.00  0.00    -0.060 A 
ATOM     25  C   LIG    1       -0.939  -4.165  -0.329  0.00  0.00    -0.010 A 
ATOM     26  C   LIG    1       -0.772  -5.449  -1.100  0.00  0.00    +0.170 C 
ATOM     27  O   LIG    1       -0.925  -2.927  -0.851  0.00  0.00    -0.180 OA
ENDBRANCH  21  22
ENDBRANCH  19  21
ENDBRANCH  18  19
ENDBRANCH  15  18
ENDBRANCH   1  15
TORSDOF 10
