REMARK  Name = ZINCrD0000073w9q.0
REMARK                            x       y       z     vdW  Elec       q    Type
REMARK                         _______ _______ _______ _____ _____    ______ ____
ROOT
ATOM      1  S   LIG    1        7.480  -1.712   1.723  0.00  0.00    +2.690 S 
ATOM      2  O   LIG    1        8.507  -1.176   0.900  0.00  0.00    -0.950 OA
ATOM      3  O   LIG    1        7.528  -3.021   2.272  0.00  0.00    -0.950 OA
ENDROOT
BRANCH   1   7
ATOM      4  C   LIG    1        7.002   1.164   5.228  0.00  0.00    +0.210 A 
ATOM      5  C   LIG    1        6.153   1.199   4.158  0.00  0.00    -0.110 A 
ATOM      6  C   LIG    1        6.310   0.319   3.091  0.00  0.00    +0.170 A 
ATOM      7  C   LIG    1        7.308  -0.607   3.085  0.00  0.00    -0.700 A 
ATOM      8  C   LIG    1        8.203  -0.676   4.167  0.00  0.00    +0.060 A 
ATOM      9  C   LIG    1        9.246  -1.616   4.191  0.00  0.00    -0.020 A 
ATOM     10  C   LIG    1       10.093  -1.654   5.256  0.00  0.00    +0.070 A 
ATOM     11  C   LIG    1        9.942  -0.773   6.325  0.00  0.00    +0.000 A 
ATOM     12  C   LIG    1        8.943   0.152   6.334  0.00  0.00    +0.070 A 
ATOM     13  C   LIG    1        8.050   0.221   5.253  0.00  0.00    -0.090 A 
BRANCH   4  15
ATOM     14  C   LIG    1        5.755   2.958   6.163  0.00  0.00    +0.250 C 
ATOM     15  O   LIG    1        6.838   2.031   6.260  0.00  0.00    -0.300 OA
ENDBRANCH   4  15
ENDBRANCH   1   7
BRANCH   1  16
ATOM     16  N   LIG    1        6.081  -1.625   0.841  0.00  0.00    -1.000 NA
ATOM     17  C   LIG    1        5.984  -0.749  -0.336  0.00  0.00    +0.310 C 
ATOM     18  C   LIG    1        4.729   0.118  -0.195  0.00  0.00    +0.180 C 
ATOM     19  N   LIG    1        3.563  -0.747   0.033  0.00  0.00    -0.480 N 
ATOM     20  C   LIG    1        3.690  -1.489   1.294  0.00  0.00    +0.190 C 
ATOM     21  C   LIG    1        4.903  -2.422   1.214  0.00  0.00    +0.310 C 
BRANCH  19  22
ATOM     22  C   LIG    1        2.378  -0.008   0.004  0.00  0.00    +0.110 A 
ATOM     23  C   LIG    1        1.158  -0.642   0.199  0.00  0.00    -0.010 A 
ATOM     24  C   LIG    1       -0.012   0.091   0.169  0.00  0.00    +0.030 A 
ATOM     25  C   LIG    1        0.030   1.455  -0.055  0.00  0.00    -0.030 A 
ATOM     26  C   LIG    1        1.244   2.090  -0.250  0.00  0.00    +0.030 A 
ATOM     27  C   LIG    1        2.417   1.362  -0.221  0.00  0.00    -0.040 A 
ENDBRANCH  19  22
ENDBRANCH   1  16
TORSDOF 4
