REMARK  Name = ZINCpe000000Xdjv.0
REMARK                            x       y       z     vdW  Elec       q    Type
REMARK                         _______ _______ _______ _____ _____    ______ ____
ROOT
ATOM      1  N   LIG    1        1.143   1.898   0.001  0.00  0.00    -0.720 N 
ATOM      2  H   LIG    1        1.130   2.868   0.007  0.00  0.00    +0.400 HD
ATOM      3  C   LIG    1       -0.014   1.209   0.009  0.00  0.00    +0.500 C 
ATOM      4  O   LIG    1        0.002  -0.004   0.002  0.00  0.00    -0.510 OA
ENDROOT
BRANCH   1   5
ATOM      5  C   LIG    1        2.422   1.183  -0.015  0.00  0.00    +0.280 C 
BRANCH   5   7
ATOM      6  C   LIG    1        4.902   1.451  -0.163  0.00  0.00    +0.040 C 
ATOM      7  C   LIG    1        3.571   2.193  -0.020  0.00  0.00    +0.220 C 
BRANCH   7   8
ATOM      8  N   LIG    1        3.404   3.117  -1.145  0.00  0.00    -0.610 N 
ATOM      9  C   LIG    1        3.263   4.537  -0.848  0.00  0.00    +0.250 C 
ATOM     10  C   LIG    1        3.576   5.375  -2.090  0.00  0.00    +0.020 C 
ATOM     11  C   LIG    1        2.750   4.834  -3.264  0.00  0.00    +0.030 C 
ATOM     12  C   LIG    1        3.271   3.440  -3.620  0.00  0.00    +0.060 C 
ATOM     13  C   LIG    1        3.386   2.605  -2.377  0.00  0.00    +0.520 C 
ATOM     14  O   LIG    1        3.467   1.401  -2.499  0.00  0.00    -0.540 OA
ENDBRANCH   7   8
ENDBRANCH   5   7
ENDBRANCH   1   5
BRANCH   3  15
ATOM     15  C   LIG    1       -1.330   1.944   0.019  0.00  0.00    +0.410 C 
BRANCH  15  16
ATOM     16  N   LIG    1       -2.430   0.977   0.019  0.00  0.00    -0.130 N 
ATOM     17  N   LIG    1       -2.985   0.480   1.069  0.00  0.00    -0.050 NA
ATOM     18  N   LIG    1       -3.916  -0.334   0.705  0.00  0.00    -0.270 NA
ATOM     19  C   LIG    1       -3.938  -0.341  -0.635  0.00  0.00    +0.220 A 
ATOM     20  N   LIG    1       -2.998   0.495  -1.032  0.00  0.00    -0.290 NA
BRANCH  19  21
ATOM     21  C   LIG    1       -4.847  -1.130  -1.504  0.00  0.00    -0.020 A 
ATOM     22  C   LIG    1       -4.754  -1.027  -2.890  0.00  0.00    +0.050 A 
ATOM     23  C   LIG    1       -5.599  -1.766  -3.693  0.00  0.00    +0.010 A 
ATOM     24  C   LIG    1       -6.543  -2.601  -3.123  0.00  0.00    +0.030 A 
ATOM     25  C   LIG    1       -6.643  -2.703  -1.748  0.00  0.00    +0.010 A 
ATOM     26  C   LIG    1       -5.800  -1.972  -0.936  0.00  0.00    +0.060 A 
ENDBRANCH  19  21
ENDBRANCH  15  16
ENDBRANCH   3  15
TORSDOF 6
