REMARK  Name = ZINCvU00000007dU.0
REMARK                            x       y       z     vdW  Elec       q    Type
REMARK                         _______ _______ _______ _____ _____    ______ ____
ROOT
ATOM      1  N   LIG    1       -4.104   2.456   2.372  0.00  0.00    -0.460 NA
ATOM      2  C   LIG    1       -4.653   3.087   1.360  0.00  0.00    +0.390 C 
ATOM      3  S   LIG    1       -3.805   3.742  -0.051  0.00  0.00    -0.070 S 
ATOM      4  C   LIG    1       -5.319   4.383  -0.842  0.00  0.00    +0.060 C 
ATOM      5  C   LIG    1       -6.411   4.009   0.133  0.00  0.00    +0.540 C 
ATOM      6  O   LIG    1       -7.579   4.278  -0.052  0.00  0.00    -0.470 OA
ATOM      7  N   LIG    1       -5.984   3.363   1.205  0.00  0.00    -0.530 N 
ENDROOT
BRANCH   1  13
ATOM      8  C   LIG    1       -0.012   1.101   0.049  0.00  0.00    +0.090 C 
ATOM      9  C   LIG    1       -0.727   1.588   1.283  0.00  0.00    -0.060 A 
ATOM     10  C   LIG    1       -0.015   1.826   2.445  0.00  0.00    +0.000 A 
ATOM     11  C   LIG    1       -0.663   2.274   3.582  0.00  0.00    -0.070 A 
ATOM     12  C   LIG    1       -2.026   2.485   3.565  0.00  0.00    +0.030 A 
ATOM     13  C   LIG    1       -2.751   2.247   2.396  0.00  0.00    +0.100 A 
ATOM     14  C   LIG    1        0.122   2.530   4.843  0.00  0.00    +0.090 C 
ATOM     15  C   LIG    1       -2.090   1.801   1.250  0.00  0.00    -0.020 A 
ENDBRANCH   1  13
BRANCH   7  16
ATOM     16  C   LIG    1       -6.941   2.942   2.231  0.00  0.00    +0.240 C 
ATOM     17  C   LIG    1       -6.556   3.553   3.595  0.00  0.00    +0.020 C 
ATOM     18  C   LIG    1       -6.890   2.438   4.617  0.00  0.00    +0.020 C 
ATOM     19  C   LIG    1       -6.477   1.149   3.865  0.00  0.00    +0.020 C 
ATOM     20  C   LIG    1       -6.891   1.414   2.403  0.00  0.00    +0.020 C 
ENDBRANCH   7  16
BRANCH   4  21
ATOM     21  C   LIG    1       -5.238   5.902  -1.004  0.00  0.00    +0.130 C 
BRANCH  21  22
ATOM     22  C   LIG    1       -4.227   6.241  -2.069  0.00  0.00    +0.520 C 
ATOM     23  N   LIG    1       -3.987   7.529  -2.385  0.00  0.00    -0.670 N 
ATOM     24  H   LIG    1       -4.511   8.235  -1.975  0.00  0.00    +0.420 HD
ATOM     25  O   LIG    1       -3.631   5.354  -2.643  0.00  0.00    -0.500 OA
BRANCH  23  26
ATOM     26  C   LIG    1       -2.981   7.848  -3.304  0.00  0.00    +0.160 A 
ATOM     27  C   LIG    1       -2.232   9.006  -3.142  0.00  0.00    +0.000 A 
ATOM     28  C   LIG    1       -1.236   9.315  -4.047  0.00  0.00    +0.060 A 
ATOM     29  C   LIG    1       -0.992   8.478  -5.122  0.00  0.00    -0.110 A 
ATOM     30  C   LIG    1       -1.740   7.327  -5.289  0.00  0.00    +0.060 A 
ATOM     31  I   LIG    1        0.514   8.956  -6.498  0.00  0.00    -0.040 I 
ATOM     32  C   LIG    1       -2.733   7.009  -4.383  0.00  0.00    +0.030 A 
ENDBRANCH  23  26
ENDBRANCH  21  22
ENDBRANCH   4  21
TORSDOF 5
