REMARK  Name = ZINCrH000004pFYg.0
REMARK                            x       y       z     vdW  Elec       q    Type
REMARK                         _______ _______ _______ _____ _____    ______ ____
ROOT
ATOM      1  C   LIG    1       -1.259  -0.782   0.010  0.00  0.00    +0.560 C 
ATOM      2  N   LIG    1       -1.223  -2.124  -0.099  0.00  0.00    -0.540 N 
ATOM      3  C   LIG    1        0.061  -2.837  -0.123  0.00  0.00    +0.280 C 
ATOM      4  C   LIG    1        0.002  -3.883  -1.239  0.00  0.00    +0.030 C 
ATOM      5  C   LIG    1       -1.093  -4.897  -0.911  0.00  0.00    +0.090 C 
ATOM      6  C   LIG    1       -2.385  -4.193  -0.589  0.00  0.00    -0.110 A 
ATOM      7  C   LIG    1       -3.569  -4.897  -0.685  0.00  0.00    +0.090 A 
ATOM      8  C   LIG    1       -4.783  -4.275  -0.384  0.00  0.00    -0.050 A 
ATOM      9  C   LIG    1       -4.798  -2.936   0.014  0.00  0.00    +0.090 A 
ATOM     10  C   LIG    1       -3.615  -2.237   0.105  0.00  0.00    +0.020 A 
ATOM     11  C   LIG    1       -2.407  -2.860  -0.197  0.00  0.00    +0.180 A 
ATOM     12  O   LIG    1       -2.327  -0.204   0.057  0.00  0.00    -0.490 OA
ENDROOT
BRANCH   1  15
ATOM     13  C   LIG    1        1.359   1.867  -0.558  0.00  0.00    +0.320 A 
ATOM     14  C   LIG    1        0.156   1.175  -0.648  0.00  0.00    -0.010 A 
ATOM     15  C   LIG    1        0.004  -0.010   0.074  0.00  0.00    -0.070 A 
ATOM     16  C   LIG    1        1.076  -0.450   0.859  0.00  0.00    -0.010 A 
ATOM     17  C   LIG    1        2.236   0.297   0.892  0.00  0.00    +0.290 A 
ATOM     18  N   LIG    1        2.346   1.413   0.197  0.00  0.00    -0.450 NA
BRANCH  13  24
ATOM     19  C   LIG    1        1.926   3.824  -4.964  0.00  0.00    +0.020 C 
ATOM     20  C   LIG    1        1.901   4.089  -3.457  0.00  0.00    -0.010 C 
ATOM     21  C   LIG    1        0.832   5.138  -3.140  0.00  0.00    +0.010 C 
ATOM     22  C   LIG    1        0.773   5.353  -1.625  0.00  0.00    +0.030 C 
ATOM     23  C   LIG    1        0.475   4.019  -0.936  0.00  0.00    +0.180 C 
ATOM     24  N   LIG    1        1.527   3.050  -1.271  0.00  0.00    -0.500 N 
ATOM     25  C   LIG    1        1.571   2.791  -2.716  0.00  0.00    +0.190 C 
ENDBRANCH  13  24
ENDBRANCH   1  15
BRANCH   8  26
ATOM     26  C   LIG    1       -6.009  -5.008  -0.483  0.00  0.00    +0.250 C 
ATOM     27  N   LIG    1       -6.981  -5.590  -0.562  0.00  0.00    -0.420 NA
ENDBRANCH   8  26
TORSDOF 3
