REMARK  Name = ZINCnE000007MDrk.1
REMARK                            x       y       z     vdW  Elec       q    Type
REMARK                         _______ _______ _______ _____ _____    ______ ____
ROOT
ATOM      1  O   LIG    1       -1.824  -3.430  -5.317  0.00  0.00    -0.960 OA
ATOM      2  S   LIG    1       -3.155  -3.224  -4.865  0.00  0.00    +2.710 S 
ATOM      3  O   LIG    1       -4.130  -4.257  -4.822  0.00  0.00    -0.950 OA
ENDROOT
BRANCH   2   4
ATOM      4  C   LIG    1       -3.829  -1.944  -5.870  0.00  0.00    -0.790 A 
ATOM      5  C   LIG    1       -3.073  -1.393  -6.887  0.00  0.00    +0.190 A 
ATOM      6  C   LIG    1       -3.604  -0.392  -7.681  0.00  0.00    -0.170 A 
ATOM      7  C   LIG    1       -4.889   0.068  -7.452  0.00  0.00    +0.100 A 
ATOM      8  C   LIG    1       -5.647  -0.477  -6.433  0.00  0.00    -0.150 A 
ATOM      9 CL   LIG    1       -7.260   0.098  -6.146  0.00  0.00    -0.090 Cl
ATOM     10 CL   LIG    1       -2.654   0.294  -8.962  0.00  0.00    -0.100 Cl
ATOM     11  C   LIG    1       -5.118  -1.486  -5.639  0.00  0.00    +0.350 A 
ATOM     12  O   LIG    1       -5.861  -2.023  -4.635  0.00  0.00    -0.660 OA
ENDBRANCH   2   4
BRANCH   2  13
ATOM     13  N   LIG    1       -3.039  -2.627  -3.324  0.00  0.00    -1.000 N 
ATOM     14  H   LIG    1       -3.560  -3.025  -2.610  0.00  0.00    +0.440 HD
BRANCH  13  15
ATOM     15  C   LIG    1       -2.197  -1.559  -3.057  0.00  0.00    +0.310 A 
ATOM     16  N   LIG    1       -1.384  -1.021  -3.912  0.00  0.00    -0.510 NA
ATOM     17  C   LIG    1       -0.653  -0.007  -3.485  0.00  0.00    +0.270 A 
ATOM     18  C   LIG    1       -0.858   0.326  -2.210  0.00  0.00    -0.260 A 
ATOM     19  S   LIG    1       -2.073  -0.764  -1.548  0.00  0.00    +0.140 S 
BRANCH  18  20
ATOM     20  C   LIG    1       -0.165   1.437  -1.464  0.00  0.00    +0.070 C 
ATOM     21  C   LIG    1       -1.201   2.425  -0.873  0.00  0.00    +0.020 C 
ATOM     22  C   LIG    1       -0.597   2.732   0.521  0.00  0.00    +0.200 C 
ATOM     23  O   LIG    1       -0.032   1.467   0.934  0.00  0.00    -0.380 OA
ATOM     24  C   LIG    1        0.573   0.881  -0.231  0.00  0.00    +0.200 C 
ENDBRANCH  18  20
ENDBRANCH  13  15
ENDBRANCH   2  13
TORSDOF 4
