REMARK  Name = ZINCnE000001MaaX.1
REMARK                            x       y       z     vdW  Elec       q    Type
REMARK                         _______ _______ _______ _____ _____    ______ ____
ROOT
ATOM      1  C   LIG    1       -1.308   1.935   0.019  0.00  0.00    +0.030 A 
ATOM      2  C   LIG    1       -2.490   1.256  -0.082  0.00  0.00    -0.030 A 
ATOM      3  C   LIG    1       -3.716   1.964  -0.070  0.00  0.00    +0.540 A 
ATOM      4  N   LIG    1       -3.757   3.303   0.037  0.00  0.00    -0.630 N 
ATOM      5  H   LIG    1       -4.615   3.754   0.041  0.00  0.00    +0.410 HD
ATOM      6  C   LIG    1       -2.600   4.047   0.142  0.00  0.00    +0.200 A 
ATOM      7  C   LIG    1       -2.651   5.432   0.252  0.00  0.00    -0.080 A 
ATOM      8  C   LIG    1       -1.479   6.154   0.355  0.00  0.00    +0.150 A 
ATOM      9  C   LIG    1       -0.247   5.509   0.350  0.00  0.00    -0.060 A 
ATOM     10  C   LIG    1       -0.176   4.149   0.242  0.00  0.00    +0.200 A 
ATOM     11  F   LIG    1       -1.529   7.500   0.463  0.00  0.00    -0.140 F 
ATOM     12  O   LIG    1       -4.760   1.343  -0.161  0.00  0.00    -0.540 OA
ATOM     13  C   LIG    1       -1.351   3.399   0.143  0.00  0.00    -0.120 A 
ENDROOT
BRANCH   1  15
ATOM     14  N   LIG    1        1.143   1.901  -0.018  0.00  0.00    -0.640 NA
ATOM     15  C   LIG    1       -0.014   1.211   0.009  0.00  0.00    +0.490 C 
ATOM     16  O   LIG    1        0.002  -0.004   0.019  0.00  0.00    -0.580 OA
BRANCH  14  20
ATOM     17  C   LIG    1        4.297  -0.338  -0.053  0.00  0.00    -0.340 A 
ATOM     18  C   LIG    1        4.574   0.975  -0.070  0.00  0.00    +0.130 A 
ATOM     19  N   LIG    1        3.527   1.779  -0.058  0.00  0.00    -0.540 NA
ATOM     20  C   LIG    1        2.356   1.222  -0.033  0.00  0.00    +0.380 A 
ATOM     21  C   LIG    1        5.988   1.496  -0.099  0.00  0.00    +0.140 C 
ATOM     22  S   LIG    1        2.545  -0.529  -0.013  0.00  0.00    +0.010 S 
BRANCH  17  24
ATOM     23  C   LIG    1        4.442  -3.133  -0.031  0.00  0.00    +0.120 C 
ATOM     24  S   LIG    1        5.479  -1.644  -0.062  0.00  0.00    -0.080 S 
ENDBRANCH  17  24
ENDBRANCH  14  20
ENDBRANCH   1  15
TORSDOF 3
