REMARK  Name = ZINCrg000000nNxM.0
REMARK                            x       y       z     vdW  Elec       q    Type
REMARK                         _______ _______ _______ _____ _____    ______ ____
ROOT
ATOM      1  N   LIG    1        2.425   1.013  -0.009  0.00  0.00    -0.980 NA
ENDROOT
BRANCH   1   2
ATOM      2  S   LIG    1        3.001   0.548  -1.490  0.00  0.00    +2.670 S 
ATOM      3  O   LIG    1        1.992   0.878  -2.434  0.00  0.00    -0.930 OA
ATOM      4  O   LIG    1        3.512  -0.768  -1.327  0.00  0.00    -0.920 OA
BRANCH   2   5
ATOM      5  C   LIG    1        4.384   1.576  -1.858  0.00  0.00    -0.640 A 
ATOM      6  C   LIG    1        4.612   2.719  -1.116  0.00  0.00    +0.120 A 
ATOM      7  C   LIG    1        5.699   3.524  -1.402  0.00  0.00    +0.050 A 
ATOM      8  C   LIG    1        6.553   3.190  -2.436  0.00  0.00    +0.080 A 
ATOM      9  C   LIG    1        6.322   2.049  -3.182  0.00  0.00    +0.070 A 
ATOM     10  C   LIG    1        5.237   1.242  -2.893  0.00  0.00    -0.090 A 
BRANCH  10  11
ATOM     11  C   LIG    1        4.985  -0.001  -3.706  0.00  0.00    +0.470 C 
ATOM     12  F   LIG    1        3.679   0.025  -4.205  0.00  0.00    -0.170 F 
ATOM     13  F   LIG    1        5.153  -1.130  -2.896  0.00  0.00    -0.140 F 
ATOM     14  F   LIG    1        5.891  -0.053  -4.771  0.00  0.00    -0.170 F 
ENDBRANCH  10  11
ENDBRANCH   2   5
ENDBRANCH   1   2
BRANCH   1  16
ATOM     15  C   LIG    1        2.200  -0.742   1.680  0.00  0.00    +0.030 C 
ATOM     16  C   LIG    1        3.018   0.464   1.213  0.00  0.00    +0.290 C 
ENDBRANCH   1  16
BRANCH   1  17
ATOM     17  C   LIG    1        1.322   1.973   0.080  0.00  0.00    +0.340 C 
BRANCH  17  18
ATOM     18  C   LIG    1        0.014   1.230   0.161  0.00  0.00    +0.500 C 
ATOM     19  N   LIG    1       -1.145   1.913   0.245  0.00  0.00    -0.720 N 
ATOM     20  H   LIG    1       -1.137   2.883   0.256  0.00  0.00    +0.410 HD
ATOM     21  O   LIG    1        0.003   0.017   0.147  0.00  0.00    -0.510 OA
BRANCH  19  22
ATOM     22  C   LIG    1       -2.417   1.190   0.318  0.00  0.00    +0.260 C 
ATOM     23  C   LIG    1       -2.726   0.832   1.782  0.00  0.00    +0.060 C 
ATOM     24  C   LIG    1       -4.207   0.377   1.826  0.00  0.00    -0.300 C 
ATOM     25  S   LIG    1       -5.031   1.608   0.747  0.00  0.00    +2.400 S 
ATOM     26  O   LIG    1       -5.957   0.947  -0.104  0.00  0.00    -0.930 OA
ATOM     27  O   LIG    1       -5.456   2.713   1.533  0.00  0.00    -0.930 OA
ATOM     28  C   LIG    1       -3.553   2.084  -0.219  0.00  0.00    -0.320 C 
ENDBRANCH  19  22
ENDBRANCH  17  18
ENDBRANCH   1  17
TORSDOF 7
