REMARK  Name = ZINCrD000000CMEx.0
REMARK                            x       y       z     vdW  Elec       q    Type
REMARK                         _______ _______ _______ _____ _____    ______ ____
ROOT
ATOM      1  N   LIG    1       -5.644   4.315  -3.995  0.00  0.00    -0.730 N 
ATOM      2  H   LIG    1       -4.710   4.561  -3.906  0.00  0.00    +0.400 HD
ENDROOT
BRANCH   1   3
ATOM      3  C   LIG    1       -6.545   5.139  -4.806  0.00  0.00    +0.260 C 
ATOM      4  C   LIG    1       -5.731   5.897  -5.858  0.00  0.00    +0.040 C 
ATOM      5  C   LIG    1       -4.917   6.986  -5.148  0.00  0.00    +0.020 C 
ATOM      6  C   LIG    1       -5.881   8.037  -4.597  0.00  0.00    +0.260 C 
ATOM      7  N   LIG    1       -6.940   7.402  -3.823  0.00  0.00    -0.560 N 
ATOM      8  C   LIG    1       -7.265   6.112  -3.918  0.00  0.00    +0.500 C 
ATOM      9  O   LIG    1       -8.193   5.704  -3.253  0.00  0.00    -0.520 OA
BRANCH   7  10
ATOM     10  C   LIG    1       -7.661   8.196  -2.922  0.00  0.00    +0.120 A 
ATOM     11  C   LIG    1       -8.799   8.869  -3.346  0.00  0.00    +0.050 A 
ATOM     12  C   LIG    1       -9.511   9.648  -2.455  0.00  0.00    +0.000 A 
ATOM     13  C   LIG    1       -9.085   9.765  -1.143  0.00  0.00    +0.110 A 
ATOM     14  C   LIG    1       -7.948   9.099  -0.720  0.00  0.00    +0.000 A 
ATOM     15  F   LIG    1       -9.780  10.532  -0.274  0.00  0.00    -0.140 F 
ATOM     16  C   LIG    1       -7.236   8.315  -1.606  0.00  0.00    +0.050 A 
ENDBRANCH   7  10
ENDBRANCH   1   3
BRANCH   1  21
ATOM     17  C   LIG    1       -5.764   1.267  -1.946  0.00  0.00    -0.060 A 
ATOM     18  C   LIG    1       -7.096   0.918  -2.074  0.00  0.00    -0.030 A 
ATOM     19  C   LIG    1       -7.947   1.694  -2.840  0.00  0.00    +0.050 A 
ATOM     20  C   LIG    1       -7.469   2.822  -3.478  0.00  0.00    -0.040 A 
ATOM     21  C   LIG    1       -6.131   3.175  -3.351  0.00  0.00    +0.210 A 
ATOM     22  C   LIG    1       -5.281   2.397  -2.577  0.00  0.00    -0.060 A 
BRANCH  17  27
ATOM     23  O   LIG    1       -5.718  -2.088   1.161  0.00  0.00    -0.530 OA
ATOM     24  C   LIG    1       -5.271  -1.409   0.261  0.00  0.00    +0.520 C 
ATOM     25  C   LIG    1       -4.315  -1.901  -0.804  0.00  0.00    +0.050 C 
ATOM     26  C   LIG    1       -4.387  -0.823  -1.910  0.00  0.00    +0.060 C 
ATOM     27  C   LIG    1       -4.841   0.418  -1.110  0.00  0.00    +0.260 C 
ATOM     28  N   LIG    1       -5.554  -0.108   0.059  0.00  0.00    -0.730 N 
ATOM     29  H   LIG    1       -6.151   0.414   0.617  0.00  0.00    +0.410 HD
ENDBRANCH  17  27
ENDBRANCH   1  21
TORSDOF 4
