REMARK  Name = ZINCkj000005lXrR.0
REMARK                            x       y       z     vdW  Elec       q    Type
REMARK                         _______ _______ _______ _____ _____    ______ ____
ROOT
ATOM      1  O   LIG    1       -1.734  -2.081   0.788  0.00  0.00    -0.520 OA
ATOM      2  C   LIG    1       -0.711  -2.731   0.933  0.00  0.00    +0.530 A 
ATOM      3  N   LIG    1       -0.767  -4.076   0.975  0.00  0.00    -0.590 N 
ATOM      4  H   LIG    1       -1.624  -4.522   0.889  0.00  0.00    +0.430 HD
ATOM      5  C   LIG    1        0.361  -4.815   1.142  0.00  0.00    +0.410 A 
ATOM      6  C   LIG    1        1.569  -4.217   1.264  0.00  0.00    -0.290 A 
ATOM      7  C   LIG    1        1.668  -2.820   1.219  0.00  0.00    +0.160 A 
ATOM      8  C   LIG    1        0.533  -2.074   1.052  0.00  0.00    +0.020 A 
ENDROOT
BRANCH   6   9
ATOM      9  C   LIG    1        2.808  -5.055   1.447  0.00  0.00    +0.530 C 
ATOM     10  F   LIG    1        3.422  -4.721   2.659  0.00  0.00    -0.170 F 
ATOM     11  F   LIG    1        3.696  -4.812   0.393  0.00  0.00    -0.170 F 
ATOM     12  F   LIG    1        2.458  -6.409   1.460  0.00  0.00    -0.170 F 
ENDBRANCH   6   9
BRANCH   8  13
ATOM     13  N   LIG    1        0.604  -0.675   1.004  0.00  0.00    -0.660 N 
ATOM     14  H   LIG    1        0.978  -0.183   1.751  0.00  0.00    +0.410 HD
ATOM     15  C   LIG    1        0.153  -0.015  -0.081  0.00  0.00    +0.520 C 
ATOM     16  O   LIG    1       -0.231  -0.633  -1.052  0.00  0.00    -0.500 OA
BRANCH  15  17
ATOM     17  C   LIG    1        0.125   1.492  -0.088  0.00  0.00    +0.000 C 
ATOM     18  C   LIG    1       -0.774   1.993   1.046  0.00  0.00    +0.080 C 
ATOM     19  C   LIG    1       -0.863   3.519   0.983  0.00  0.00    +0.270 C 
ATOM     20  N   LIG    1       -1.425   3.929  -0.309  0.00  0.00    -0.510 N 
ATOM     21  C   LIG    1       -0.530   3.515  -1.396  0.00  0.00    +0.260 C 
ATOM     22  H   LIG    1       -2.328   3.494  -0.434  0.00  0.00    +0.430 HD
ATOM     23  H   LIG    1       -1.531   4.932  -0.326  0.00  0.00    +0.430 HD
ATOM     24  C   LIG    1       -0.430   1.988  -1.426  0.00  0.00    +0.090 C 
ENDBRANCH  15  17
ENDBRANCH   8  13
TORSDOF 3
