REMARK  Name = ZINCkj00000y7BVg.2
REMARK                            x       y       z     vdW  Elec       q    Type
REMARK                         _______ _______ _______ _____ _____    ______ ____
ROOT
ATOM      1  C   LIG    1        5.525   0.654  -1.473  0.00  0.00    +0.180 C 
ATOM      2  C   LIG    1        6.036   2.109  -1.429  0.00  0.00    +0.010 C 
ATOM      3  C   LIG    1        7.257   2.112  -2.382  0.00  0.00    +0.060 C 
ATOM      4  C   LIG    1        6.801   1.170  -3.525  0.00  0.00    +0.050 C 
ATOM      5  C   LIG    1        6.012   0.057  -2.805  0.00  0.00    +0.180 C 
ENDROOT
BRANCH   5   6
ATOM      6  N   LIG    1        4.862  -0.353  -3.623  0.00  0.00    -0.370 N 
ATOM      7  C   LIG    1        5.330  -1.009  -4.871  0.00  0.00    +0.250 C 
ATOM      8  C   LIG    1        4.105  -1.850  -5.310  0.00  0.00    +0.050 C 
ATOM      9  C   LIG    1        3.534  -2.357  -3.965  0.00  0.00    +0.180 C 
ATOM     10  C   LIG    1        4.065  -1.372  -2.906  0.00  0.00    +0.300 C 
ATOM     11  H   LIG    1        4.288   0.447  -3.843  0.00  0.00    +0.420 HD
BRANCH   9  12
ATOM     12  O   LIG    1        2.106  -2.333  -3.992  0.00  0.00    -0.550 OA
ATOM     13  H   LIG    1        1.714  -2.934  -4.641  0.00  0.00    +0.400 HD
ENDBRANCH   9  12
ENDBRANCH   5   6
BRANCH   1  14
ATOM     14  N   LIG    1        4.057   0.633  -1.419  0.00  0.00    -0.700 NA
ATOM     15  H   LIG    1        3.666   1.413  -1.927  0.00  0.00    +0.350 HD
BRANCH  14  16
ATOM     16  C   LIG    1        3.582   0.619  -0.029  0.00  0.00    +0.300 C 
BRANCH  16  23
ATOM     17  C   LIG    1        1.565   3.160   0.003  0.00  0.00    +0.150 C 
ATOM     18  C   LIG    1        1.189   1.701  -0.000  0.00  0.00    +0.030 A 
ATOM     19  N   LIG    1       -0.014   1.205   0.009  0.00  0.00    -0.360 NA
ATOM     20  O   LIG    1        0.002  -0.004   0.002  0.00  0.00    +0.110 OA
ATOM     21  C   LIG    1        1.255  -0.480  -0.013  0.00  0.00    +0.000 A 
ATOM     22  C   LIG    1        1.670  -1.928  -0.025  0.00  0.00    +0.190 C 
ATOM     23  C   LIG    1        2.075   0.599  -0.015  0.00  0.00    -0.230 A 
ENDBRANCH  16  23
ENDBRANCH  14  16
ENDBRANCH   1  14
TORSDOF 5
