REMARK  Name = ZINCkj00000y7BVg.1
REMARK                            x       y       z     vdW  Elec       q    Type
REMARK                         _______ _______ _______ _____ _____    ______ ____
ROOT
ATOM      1  C   LIG    1        0.418  -2.567  -1.370  0.00  0.00    +0.150 C 
ATOM      2  C   LIG    1        1.254  -3.786  -1.810  0.00  0.00    +0.060 C 
ATOM      3  C   LIG    1        2.189  -3.227  -2.911  0.00  0.00    +0.050 C 
ATOM      4  C   LIG    1        2.549  -1.820  -2.373  0.00  0.00    +0.060 C 
ATOM      5  C   LIG    1        1.241  -1.317  -1.728  0.00  0.00    +0.160 C 
ENDROOT
BRANCH   5   6
ATOM      6  N   LIG    1        1.542  -0.548  -0.512  0.00  0.00    -0.380 N 
ATOM      7  C   LIG    1        2.331   0.647  -0.864  0.00  0.00    +0.250 C 
ATOM      8  C   LIG    1        3.665   0.558  -0.094  0.00  0.00    +0.040 C 
ATOM      9  C   LIG    1        3.325  -0.391   1.085  0.00  0.00    +0.180 C 
ATOM     10  C   LIG    1        2.337  -1.379   0.417  0.00  0.00    +0.300 C 
ATOM     11  H   LIG    1        0.682  -0.269  -0.067  0.00  0.00    +0.420 HD
BRANCH   9  12
ATOM     12  O   LIG    1        4.493  -1.070   1.549  0.00  0.00    -0.540 OA
ATOM     13  H   LIG    1        5.182  -0.482   1.888  0.00  0.00    +0.400 HD
ENDBRANCH   9  12
ENDBRANCH   5   6
BRANCH   1  14
ATOM     14  N   LIG    1        0.181  -2.616   0.079  0.00  0.00    -0.690 NA
ATOM     15  H   LIG    1       -0.061  -1.704   0.437  0.00  0.00    +0.320 HD
BRANCH  14  16
ATOM     16  C   LIG    1       -0.855  -3.604   0.410  0.00  0.00    +0.300 C 
BRANCH  16  23
ATOM     17  C   LIG    1       -2.940  -1.818   2.140  0.00  0.00    +0.160 C 
ATOM     18  C   LIG    1       -1.976  -2.852   2.662  0.00  0.00    +0.020 A 
ATOM     19  N   LIG    1       -1.812  -3.208   3.904  0.00  0.00    -0.360 NA
ATOM     20  O   LIG    1       -0.963  -4.063   4.013  0.00  0.00    +0.100 OA
ATOM     21  C   LIG    1       -0.443  -4.396   2.823  0.00  0.00    +0.010 A 
ATOM     22  C   LIG    1        0.629  -5.423   2.563  0.00  0.00    +0.190 C 
ATOM     23  C   LIG    1       -1.069  -3.626   1.902  0.00  0.00    -0.230 A 
ENDBRANCH  16  23
ENDBRANCH  14  16
ENDBRANCH   1  14
TORSDOF 5
