REMARK  Name = ZINCkj00000y7BVg.0
REMARK                            x       y       z     vdW  Elec       q    Type
REMARK                         _______ _______ _______ _____ _____    ______ ____
ROOT
ATOM      1  C   LIG    1       -0.762   1.255  -1.488  0.00  0.00    +0.170 C 
ATOM      2  C   LIG    1       -1.984   2.158  -1.214  0.00  0.00    +0.050 C 
ATOM      3  C   LIG    1       -2.250   1.986   0.302  0.00  0.00    +0.050 C 
ATOM      4  C   LIG    1       -0.821   1.909   0.894  0.00  0.00    +0.050 C 
ATOM      5  C   LIG    1       -0.024   1.097  -0.147  0.00  0.00    +0.140 C 
ENDROOT
BRANCH   5   6
ATOM      6  N   LIG    1        1.342   1.626  -0.259  0.00  0.00    -0.540 NA
ATOM      7  C   LIG    1        2.239   0.645  -0.909  0.00  0.00    +0.160 C 
ATOM      8  C   LIG    1        3.627   0.804  -0.263  0.00  0.00    -0.000 C 
ATOM      9  C   LIG    1        3.450   1.907   0.807  0.00  0.00    +0.180 C 
ATOM     10  C   LIG    1        1.926   1.881   1.082  0.00  0.00    +0.220 C 
BRANCH   9  11
ATOM     11  O   LIG    1        4.187   1.587   1.989  0.00  0.00    -0.560 OA
ATOM     12  H   LIG    1        5.141   1.516   1.850  0.00  0.00    +0.390 HD
ENDBRANCH   9  11
ENDBRANCH   5   6
BRANCH   1  13
ATOM     13  N   LIG    1        0.121   1.888  -2.477  0.00  0.00    -0.500 N 
ATOM     14  H   LIG    1        0.957   1.334  -2.585  0.00  0.00    +0.420 HD
ATOM     15  H   LIG    1        0.369   2.814  -2.162  0.00  0.00    +0.430 HD
BRANCH  13  16
ATOM     16  C   LIG    1       -0.575   1.980  -3.767  0.00  0.00    +0.360 C 
BRANCH  16  23
ATOM     17  C   LIG    1        1.534   0.528  -5.760  0.00  0.00    +0.160 C 
ATOM     18  C   LIG    1        1.252   2.005  -5.653  0.00  0.00    +0.040 A 
ATOM     19  N   LIG    1        1.807   2.957  -6.345  0.00  0.00    -0.340 NA
ATOM     20  O   LIG    1        1.375   4.043  -6.035  0.00  0.00    +0.120 OA
ATOM     21  C   LIG    1        0.447   3.947  -5.073  0.00  0.00    +0.040 A 
ATOM     22  C   LIG    1       -0.316   5.082  -4.440  0.00  0.00    +0.200 C 
ATOM     23  C   LIG    1        0.331   2.630  -4.782  0.00  0.00    -0.290 A 
ENDBRANCH  16  23
ENDBRANCH  13  16
ENDBRANCH   1  13
TORSDOF 5
