REMARK  Name = ZINCnE000001TyLq.0
REMARK                            x       y       z     vdW  Elec       q    Type
REMARK                         _______ _______ _______ _____ _____    ______ ____
ROOT
ATOM      1  C   LIG    1       -1.287   3.044  -0.194  0.00  0.00    -0.020 A 
ATOM      2  C   LIG    1       -0.060   3.668  -0.102  0.00  0.00    -0.010 A 
ATOM      3  C   LIG    1        1.081   2.923   0.146  0.00  0.00    +0.100 A 
ATOM      4  C   LIG    1        0.997   1.549   0.304  0.00  0.00    -0.040 A 
ATOM      5  C   LIG    1       -0.227   0.917   0.215  0.00  0.00    +0.050 A 
ATOM      6  F   LIG    1        2.281   3.538   0.235  0.00  0.00    -0.140 F 
ATOM      7  C   LIG    1       -1.377   1.661  -0.041  0.00  0.00    -0.060 A 
ENDROOT
BRANCH   7   8
ATOM      8  C   LIG    1       -2.693   0.985  -0.145  0.00  0.00    -0.050 A 
ATOM      9  C   LIG    1       -3.743   1.368   0.688  0.00  0.00    +0.050 A 
ATOM     10  C   LIG    1       -4.973   0.755   0.579  0.00  0.00    -0.010 A 
ATOM     11  C   LIG    1       -5.164  -0.251  -0.360  0.00  0.00    +0.180 A 
ATOM     12  N   LIG    1       -6.415  -0.847  -0.522  0.00  0.00    -0.790 N 
ATOM     13  H   LIG    1       -6.805  -1.393   0.178  0.00  0.00    +0.400 HD
ATOM     14  C   LIG    1       -7.123  -0.617  -1.794  0.00  0.00    +0.260 C 
ATOM     15  C   LIG    1       -6.617  -1.576  -2.846  0.00  0.00    +0.170 C 
ATOM     16  O   LIG    1       -5.238  -1.399  -3.152  0.00  0.00    -0.370 OA
ATOM     17  C   LIG    1       -4.319  -1.801  -2.141  0.00  0.00    +0.270 C 
ATOM     18  C   LIG    1       -4.107  -0.653  -1.170  0.00  0.00    -0.140 A 
ATOM     19  C   LIG    1       -2.881  -0.041  -1.073  0.00  0.00    +0.040 A 
ENDBRANCH   7   8
BRANCH   1  20
ATOM     20  C   LIG    1       -2.528   3.855  -0.464  0.00  0.00    +0.080 C 
BRANCH  20  21
ATOM     21  C   LIG    1       -2.894   3.748  -1.946  0.00  0.00    -0.060 C 
BRANCH  21  23
ATOM     22  O   LIG    1       -4.661   5.188  -1.313  0.00  0.00    -0.700 OA
ATOM     23  C   LIG    1       -4.126   4.572  -2.219  0.00  0.00    +0.490 C 
ATOM     24  O   LIG    1       -4.588   4.622  -3.347  0.00  0.00    -0.700 OA
ENDBRANCH  21  23
ENDBRANCH  20  21
ENDBRANCH   1  20
TORSDOF 4
