REMARK  Name = ZINCpk00000e8We4.0
REMARK                            x       y       z     vdW  Elec       q    Type
REMARK                         _______ _______ _______ _____ _____    ______ ____
ROOT
ATOM      1  C   LIG    1       -3.104  -4.812   0.047  0.00  0.00    +0.270 C 
ENDROOT
BRANCH   1   4
ATOM      2  N   LIG    1       -5.410  -5.709   0.052  0.00  0.00    -0.720 N 
ATOM      3  H   LIG    1       -5.029  -6.601   0.055  0.00  0.00    +0.400 HD
ATOM      4  C   LIG    1       -4.601  -4.631   0.048  0.00  0.00    +0.520 C 
ATOM      5  O   LIG    1       -5.076  -3.516   0.045  0.00  0.00    -0.510 OA
BRANCH   2  11
ATOM      6  C   LIG    1      -11.219  -8.014   0.572  0.00  0.00    +0.100 C 
ATOM      7  C   LIG    1      -10.492  -6.952   1.356  0.00  0.00    +0.510 C 
ATOM      8  N   LIG    1       -9.506  -6.241   0.774  0.00  0.00    -0.620 N 
ATOM      9  C   LIG    1       -9.046  -6.569  -0.582  0.00  0.00    +0.290 C 
ATOM     10  C   LIG    1       -7.528  -6.772  -0.553  0.00  0.00    +0.030 C 
ATOM     11  C   LIG    1       -6.864  -5.533   0.053  0.00  0.00    +0.240 C 
ATOM     12  C   LIG    1       -7.354  -5.342   1.490  0.00  0.00    +0.010 C 
ATOM     13  C   LIG    1       -8.870  -5.123   1.484  0.00  0.00    +0.280 C 
ATOM     14  O   LIG    1      -10.796  -6.737   2.510  0.00  0.00    -0.540 OA
ENDBRANCH   2  11
ENDBRANCH   1   4
BRANCH   1  15
ATOM     15  O   LIG    1       -2.459  -3.512   0.043  0.00  0.00    -0.330 OA
BRANCH  15  16
ATOM     16  C   LIG    1       -1.111  -3.497   0.041  0.00  0.00    +0.540 C 
ATOM     17  O   LIG    1       -0.492  -4.543   0.044  0.00  0.00    -0.490 OA
BRANCH  16  18
ATOM     18  C   LIG    1       -0.391  -2.217   0.037  0.00  0.00    +0.030 A 
ATOM     19  C   LIG    1        0.961  -2.073   0.035  0.00  0.00    +0.070 A 
ATOM     20  C   LIG    1        1.247  -0.687   0.030  0.00  0.00    -0.130 A 
ATOM     21  C   LIG    1        2.439   0.049   0.026  0.00  0.00    +0.070 A 
ATOM     22  C   LIG    1        2.394   1.413   0.023  0.00  0.00    -0.020 A 
ATOM     23  C   LIG    1        1.177   2.081   0.021  0.00  0.00    +0.050 A 
ATOM     24  C   LIG    1       -0.009   1.380   0.025  0.00  0.00    +0.000 A 
ATOM     25  C   LIG    1        0.011  -0.012   0.029  0.00  0.00    +0.120 A 
ATOM     26  N   LIG    1       -0.979  -0.966   0.034  0.00  0.00    -0.570 N 
ATOM     27  H   LIG    1       -1.933  -0.791   0.035  0.00  0.00    +0.430 HD
ENDBRANCH  16  18
ENDBRANCH  15  16
ENDBRANCH   1  15
TORSDOF 5
