REMARK  Name = ZINCrD000000D77z.0
REMARK                            x       y       z     vdW  Elec       q    Type
REMARK                         _______ _______ _______ _____ _____    ______ ____
ROOT
ATOM      1  O   LIG    1        4.210  -0.076   0.417  0.00  0.00    -0.940 OA
ATOM      2  S   LIG    1        3.466  -1.086  -0.251  0.00  0.00    +2.710 S 
ATOM      3  O   LIG    1        3.329  -2.410   0.249  0.00  0.00    -0.940 OA
ENDROOT
BRANCH   2   4
ATOM      4  C   LIG    1        1.831  -0.456  -0.442  0.00  0.00    -0.680 A 
ATOM      5  C   LIG    1        0.770  -1.328  -0.598  0.00  0.00    +0.140 A 
ATOM      6  C   LIG    1       -0.516  -0.840  -0.748  0.00  0.00    +0.010 A 
ATOM      7  C   LIG    1       -0.736   0.526  -0.742  0.00  0.00    +0.130 A 
ATOM      8  O   LIG    1       -1.999   1.021  -0.895  0.00  0.00    -0.320 OA
ATOM      9  C   LIG    1       -2.558   1.663   0.257  0.00  0.00    +0.230 C 
ATOM     10  C   LIG    1       -2.118   3.117   0.330  0.00  0.00    +0.000 C 
ATOM     11  C   LIG    1       -0.619   3.258   0.540  0.00  0.00    +0.230 C 
ATOM     12  O   LIG    1        0.101   2.748  -0.584  0.00  0.00    -0.310 OA
ATOM     13  C   LIG    1        0.329   1.402  -0.586  0.00  0.00    +0.050 A 
ATOM     14  C   LIG    1        1.614   0.911  -0.436  0.00  0.00    +0.130 A 
ENDBRANCH   2   4
BRANCH   2  15
ATOM     15  N   LIG    1        4.119  -1.224  -1.766  0.00  0.00    -1.010 NA
ATOM     16  C   LIG    1        4.041  -2.415  -2.631  0.00  0.00    +0.290 C 
ATOM     17  C   LIG    1        4.213  -1.868  -4.072  0.00  0.00    +0.020 C 
ATOM     18  C   LIG    1        5.261  -0.745  -3.853  0.00  0.00    +0.170 C 
ATOM     19  C   LIG    1        4.878  -0.179  -2.470  0.00  0.00    +0.300 C 
BRANCH  18  20
ATOM     20  O   LIG    1        5.143   0.260  -4.862  0.00  0.00    -0.290 OA
BRANCH  20  21
ATOM     21  C   LIG    1        5.886   0.095  -5.988  0.00  0.00    +0.140 A 
ATOM     22  C   LIG    1        6.622  -1.065  -6.170  0.00  0.00    -0.060 A 
ATOM     23  C   LIG    1        7.377  -1.231  -7.316  0.00  0.00    +0.060 A 
ATOM     24  C   LIG    1        7.399  -0.241  -8.280  0.00  0.00    -0.010 A 
ATOM     25  C   LIG    1        6.665   0.918  -8.102  0.00  0.00    +0.070 A 
ATOM     26  C   LIG    1        5.904   1.086  -6.960  0.00  0.00    -0.070 A 
ATOM     27 CL   LIG    1        4.977   2.537  -6.740  0.00  0.00    -0.050 Cl
ENDBRANCH  20  21
ENDBRANCH  18  20
ENDBRANCH   2  15
TORSDOF 4
