REMARK  Name = ZINCvU00000003YS.0
REMARK                            x       y       z     vdW  Elec       q    Type
REMARK                         _______ _______ _______ _____ _____    ______ ____
ROOT
ATOM      1  C   LIG    1       -5.042  -2.083  -7.848  0.00  0.00    -0.020 C 
ATOM      2  C   LIG    1       -5.186  -2.412  -6.359  0.00  0.00    +0.270 C 
ATOM      3  N   LIG    1       -4.191  -1.638  -5.605  0.00  0.00    -0.610 N 
ATOM      4  C   LIG    1       -2.779  -1.724  -6.003  0.00  0.00    +0.260 C 
ATOM      5  C   LIG    1       -2.661  -1.407  -7.492  0.00  0.00    +0.020 C 
ATOM      6  C   LIG    1       -4.566  -0.858  -4.572  0.00  0.00    +0.520 C 
ATOM      7  O   LIG    1       -5.721  -0.856  -4.202  0.00  0.00    -0.530 OA
ATOM      8  C   LIG    1       -3.595  -2.326  -8.283  0.00  0.00    +0.000 C 
ATOM      9  C   LIG    1       -3.455  -2.031  -9.778  0.00  0.00    +0.030 C 
ENDROOT
BRANCH   6  10
ATOM     10  C   LIG    1       -3.551   0.011  -3.876  0.00  0.00    -0.020 C 
ATOM     11  C   LIG    1       -3.403   1.331  -4.636  0.00  0.00    +0.030 C 
ATOM     12  C   LIG    1       -2.373   2.214  -3.929  0.00  0.00    +0.030 C 
ATOM     13  C   LIG    1       -2.838   2.498  -2.500  0.00  0.00    +0.010 C 
ATOM     14  C   LIG    1       -2.986   1.178  -1.740  0.00  0.00    +0.020 C 
ATOM     15  C   LIG    1       -4.017   0.295  -2.447  0.00  0.00    +0.040 C 
BRANCH  13  16
ATOM     16  C   LIG    1       -1.808   3.381  -1.794  0.00  0.00    -0.050 C 
ATOM     17  C   LIG    1       -2.093   3.779  -0.344  0.00  0.00    +0.000 C 
ATOM     18  C   LIG    1       -2.216   4.818  -1.460  0.00  0.00    +0.000 C 
ENDBRANCH  13  16
ENDBRANCH   6  10
BRANCH   1  19
ATOM     19  C   LIG    1       -5.978  -2.978  -8.662  0.00  0.00    +0.280 C 
BRANCH  19  20
ATOM     20  N   LIG    1       -7.369  -2.663  -8.329  0.00  0.00    -0.700 N 
ATOM     21  H   LIG    1       -7.566  -1.973  -7.676  0.00  0.00    +0.410 HD
BRANCH  20  26
ATOM     22  C   LIG    1      -10.657  -3.728  -9.237  0.00  0.00    +0.350 A 
ATOM     23  N   LIG    1      -10.427  -4.677 -10.132  0.00  0.00    -0.540 NA
ATOM     24  C   LIG    1       -9.190  -5.005 -10.474  0.00  0.00    +0.140 A 
ATOM     25  C   LIG    1       -8.129  -4.346  -9.885  0.00  0.00    -0.120 A 
ATOM     26  C   LIG    1       -8.402  -3.350  -8.944  0.00  0.00    +0.460 A 
ATOM     27  N   LIG    1       -9.667  -3.075  -8.645  0.00  0.00    -0.550 NA
BRANCH  24  28
ATOM     28  C   LIG    1       -8.943  -6.087 -11.494  0.00  0.00    +0.470 C 
ATOM     29  F   LIG    1       -7.753  -5.818 -12.180  0.00  0.00    -0.190 F 
ATOM     30  F   LIG    1      -10.006  -6.122 -12.403  0.00  0.00    -0.180 F 
ENDBRANCH  24  28
BRANCH  22  32
ATOM     31  C   LIG    1      -13.203  -4.494  -9.884  0.00  0.00    +0.140 C 
ATOM     32  S   LIG    1      -12.321  -3.328  -8.816  0.00  0.00    +0.020 S 
ENDBRANCH  22  32
ENDBRANCH  20  26
ENDBRANCH  19  20
ENDBRANCH   1  19
TORSDOF 7
