REMARK  Name = ZINCvU0000000H4c.0
REMARK                            x       y       z     vdW  Elec       q    Type
REMARK                         _______ _______ _______ _____ _____    ______ ____
ROOT
ATOM      1  N   LIG    1       -3.889   1.386   0.571  0.00  0.00    -0.590 N 
ATOM      2  C   LIG    1       -4.318   0.651   1.616  0.00  0.00    +0.610 C 
ATOM      3  O   LIG    1       -3.696  -0.335   1.961  0.00  0.00    -0.520 OA
ENDROOT
BRANCH   2   4
ATOM      4  C   LIG    1       -5.542   1.044   2.343  0.00  0.00    -0.010 A 
ATOM      5  N   LIG    1       -6.208   2.179   2.212  0.00  0.00    -0.250 NA
ATOM      6  N   LIG    1       -7.230   2.187   2.997  0.00  0.00    -0.370 N 
ATOM      7  H   LIG    1       -7.868   2.914   3.072  0.00  0.00    +0.450 HD
ATOM      8  C   LIG    1       -7.280   1.043   3.699  0.00  0.00    +0.010 A 
ATOM      9  C   LIG    1       -8.284   0.613   4.738  0.00  0.00    +0.110 C 
ATOM     10  C   LIG    1       -7.686  -0.555   5.532  0.00  0.00    +0.040 C 
ATOM     11  C   LIG    1       -7.154  -1.617   4.565  0.00  0.00    -0.010 C 
ATOM     12  C   LIG    1       -5.906  -1.080   3.851  0.00  0.00    +0.120 C 
ATOM     13  C   LIG    1       -6.223   0.287   3.311  0.00  0.00    -0.140 A 
BRANCH  11  14
ATOM     14  C   LIG    1       -6.791  -2.881   5.346  0.00  0.00    -0.020 C 
ATOM     15  C   LIG    1       -6.260  -3.942   4.380  0.00  0.00    +0.010 C 
ATOM     16  C   LIG    1       -8.035  -3.417   6.058  0.00  0.00    +0.010 C 
ENDBRANCH  11  14
ENDBRANCH   2   4
BRANCH   1  18
ATOM     17  C   LIG    1       -4.358   3.780   0.733  0.00  0.00    +0.030 C 
ATOM     18  C   LIG    1       -4.726   2.466   0.042  0.00  0.00    +0.270 C 
ENDBRANCH   1  18
BRANCH   1  19
ATOM     19  C   LIG    1       -2.587   1.104  -0.038  0.00  0.00    +0.350 C 
BRANCH  19  20
ATOM     20  C   LIG    1       -2.790   0.425  -1.368  0.00  0.00    -0.090 A 
ATOM     21  C   LIG    1       -3.582   1.018  -2.333  0.00  0.00    +0.030 A 
ATOM     22  C   LIG    1       -3.764   0.398  -3.555  0.00  0.00    +0.030 A 
ATOM     23  C   LIG    1       -3.163  -0.822  -3.807  0.00  0.00    -0.030 A 
ATOM     24  C   LIG    1       -2.375  -1.418  -2.839  0.00  0.00    +0.030 A 
ATOM     25 CL   LIG    1       -3.398  -1.605  -5.338  0.00  0.00    -0.070 Cl
ATOM     26  C   LIG    1       -2.189  -0.794  -1.620  0.00  0.00    +0.050 A 
ENDBRANCH  19  20
BRANCH  19  27
ATOM     27  C   LIG    1       -1.838   2.396  -0.243  0.00  0.00    -0.150 A 
ATOM     28  C   LIG    1       -0.601   2.592   0.351  0.00  0.00    +0.090 A 
ATOM     29  C   LIG    1        0.054   3.794   0.130  0.00  0.00    -0.030 A 
ATOM     30  C   LIG    1       -0.547   4.752  -0.664  0.00  0.00    +0.260 A 
ATOM     31  N   LIG    1       -1.728   4.534  -1.208  0.00  0.00    -0.490 NA
ATOM     32  C   LIG    1       -2.379   3.403  -1.020  0.00  0.00    +0.280 A 
ENDBRANCH  19  27
ENDBRANCH   1  19
TORSDOF 6
