REMARK  Name = ZINCrg000000nWWJ.0
REMARK                            x       y       z     vdW  Elec       q    Type
REMARK                         _______ _______ _______ _____ _____    ______ ____
ROOT
ATOM      1  S   LIG    1       -4.921   3.865  -1.182  0.00  0.00    +2.690 S 
ATOM      2  O   LIG    1       -5.903   2.930  -1.608  0.00  0.00    -0.950 OA
ATOM      3  O   LIG    1       -4.713   5.118  -1.817  0.00  0.00    -0.950 OA
ENDROOT
BRANCH   1   4
ATOM      4  C   LIG    1       -5.269   4.216   0.509  0.00  0.00    -0.700 A 
ATOM      5  C   LIG    1       -4.835   5.402   1.071  0.00  0.00    +0.140 A 
ATOM      6  C   LIG    1       -5.107   5.677   2.397  0.00  0.00    +0.000 A 
ATOM      7  C   LIG    1       -5.817   4.761   3.165  0.00  0.00    +0.210 A 
ATOM      8  C   LIG    1       -6.253   3.573   2.601  0.00  0.00    -0.140 A 
ATOM      9  C   LIG    1       -7.029   2.561   3.401  0.00  0.00    +0.090 C 
ATOM     10  C   LIG    1       -6.801   2.773   4.898  0.00  0.00    +0.020 C 
ATOM     11  C   LIG    1       -7.065   4.246   5.236  0.00  0.00    +0.280 C 
ATOM     12  N   LIG    1       -6.078   5.057   4.510  0.00  0.00    -0.560 N 
ATOM     13  C   LIG    1       -5.436   6.068   5.127  0.00  0.00    +0.510 C 
ATOM     14  O   LIG    1       -4.673   6.774   4.501  0.00  0.00    -0.510 OA
ATOM     15  C   LIG    1       -5.665   6.323   6.595  0.00  0.00    +0.120 C 
ATOM     16  C   LIG    1       -5.980   3.307   1.270  0.00  0.00    +0.140 A 
ENDBRANCH   1   4
BRANCH   1  23
ATOM     17  N   LIG    1        1.098   2.018  -0.160  0.00  0.00    -0.750 N 
ATOM     18  H   LIG    1        1.076   2.986  -0.213  0.00  0.00    +0.400 HD
ATOM     19  C   LIG    1       -0.053   1.317  -0.145  0.00  0.00    +0.710 C 
ATOM     20  N   LIG    1       -1.235   1.963  -0.108  0.00  0.00    -0.630 N 
ATOM     21  C   LIG    1       -1.288   3.429  -0.187  0.00  0.00    +0.270 C 
ATOM     22  C   LIG    1       -2.210   3.819  -1.355  0.00  0.00    +0.300 C 
ATOM     23  N   LIG    1       -3.468   3.070  -1.228  0.00  0.00    -1.000 NA
ATOM     24  C   LIG    1       -3.414   1.604  -1.143  0.00  0.00    +0.300 C 
ATOM     25  C   LIG    1       -2.493   1.214   0.019  0.00  0.00    +0.290 C 
ATOM     26  O   LIG    1       -0.025   0.101  -0.170  0.00  0.00    -0.590 OA
BRANCH  17  28
ATOM     27  C   LIG    1        3.523   2.338  -0.128  0.00  0.00    +0.030 C 
ATOM     28  C   LIG    1        2.384   1.317  -0.095  0.00  0.00    +0.270 C 
ENDBRANCH  17  28
ENDBRANCH   1  23
TORSDOF 3
