REMARK  Name = ZINCvU0000000GNV.0
REMARK                            x       y       z     vdW  Elec       q    Type
REMARK                         _______ _______ _______ _____ _____    ______ ____
ROOT
ATOM      1  N   LIG    1        1.492   6.508   0.151  0.00  0.00    -0.940 N 
ENDROOT
BRANCH   1   5
ATOM      2  C   LIG    1        1.333   9.674   2.857  0.00  0.00    +0.140 A 
ATOM      3  C   LIG    1        0.646   9.755   1.655  0.00  0.00    +0.000 A 
ATOM      4  C   LIG    1        0.699   8.706   0.758  0.00  0.00    +0.070 A 
ATOM      5  C   LIG    1        1.439   7.571   1.060  0.00  0.00    +0.090 A 
ATOM      6  C   LIG    1        2.122   7.489   2.266  0.00  0.00    +0.070 A 
ATOM      7  C   LIG    1        2.072   8.540   3.160  0.00  0.00    -0.050 A 
BRANCH   2   9
ATOM      8  C   LIG    1        2.012  10.557   4.959  0.00  0.00    +0.240 C 
ATOM      9  O   LIG    1        1.281  10.707   3.740  0.00  0.00    -0.310 OA
ENDBRANCH   2   9
ENDBRANCH   1   5
BRANCH   1  10
ATOM     10  S   LIG    1        2.951   6.010  -0.455  0.00  0.00    +2.680 S 
ATOM     11  O   LIG    1        2.772   4.663  -0.873  0.00  0.00    -0.940 OA
ATOM     12  O   LIG    1        3.935   6.407   0.490  0.00  0.00    -0.940 OA
BRANCH  10  13
ATOM     13  C   LIG    1        3.256   6.947  -1.916  0.00  0.00    -0.680 A 
ATOM     14  C   LIG    1        2.824   6.476  -3.142  0.00  0.00    +0.140 A 
ATOM     15  C   LIG    1        3.060   7.213  -4.287  0.00  0.00    +0.020 A 
ATOM     16  C   LIG    1        3.737   8.417  -4.208  0.00  0.00    +0.020 A 
ATOM     17  C   LIG    1        4.174   8.885  -2.981  0.00  0.00    +0.020 A 
ATOM     18 CL   LIG    1        4.040   9.339  -5.647  0.00  0.00    -0.050 Cl
ATOM     19  C   LIG    1        3.933   8.149  -1.836  0.00  0.00    +0.150 A 
ENDBRANCH  10  13
ENDBRANCH   1  10
BRANCH   1  20
ATOM     20  C   LIG    1        0.259   5.836  -0.264  0.00  0.00    +0.370 C 
BRANCH  20  21
ATOM     21  C   LIG    1       -0.085   4.757   0.730  0.00  0.00    -0.100 A 
ATOM     22  C   LIG    1        0.798   4.452   1.749  0.00  0.00    -0.030 A 
ATOM     23  C   LIG    1        0.484   3.460   2.664  0.00  0.00    +0.100 A 
ATOM     24  C   LIG    1       -0.719   2.769   2.552  0.00  0.00    +0.100 A 
ATOM     25  C   LIG    1       -1.602   3.084   1.532  0.00  0.00    -0.030 A 
ATOM     26  C   LIG    1       -1.282   4.075   0.622  0.00  0.00    -0.070 A 
ATOM     27  C   LIG    1       -2.242   4.412  -0.490  0.00  0.00    +0.100 C 
BRANCH  24  28
ATOM     28  O   LIG    1       -1.029   1.791   3.444  0.00  0.00    -0.310 OA
ATOM     29  C   LIG    1       -2.281   1.125   3.267  0.00  0.00    +0.240 C 
ENDBRANCH  24  28
BRANCH  23  30
ATOM     30  O   LIG    1        1.352   3.158   3.667  0.00  0.00    -0.300 OA
ATOM     31  C   LIG    1        2.570   3.904   3.717  0.00  0.00    +0.230 C 
ENDBRANCH  23  30
ENDBRANCH  20  21
ENDBRANCH   1  20
TORSDOF 8
