REMARK  Name = ZINCkj000005eCPS.0
REMARK                            x       y       z     vdW  Elec       q    Type
REMARK                         _______ _______ _______ _____ _____    ______ ____
ROOT
ATOM      1  N   LIG    1        1.604   1.237   2.252  0.00  0.00    -0.530 NA
ATOM      2  C   LIG    1        2.496   1.231   1.083  0.00  0.00    +0.220 C 
ATOM      3  C   LIG    1        1.717   1.692  -0.151  0.00  0.00    +0.260 C 
ATOM      4  N   LIG    1        0.580   0.790  -0.377  0.00  0.00    -0.390 N 
ATOM      5  C   LIG    1       -0.314   0.826   0.788  0.00  0.00    +0.270 C 
ATOM      6  H   LIG    1        0.918  -0.150  -0.513  0.00  0.00    +0.420 HD
ATOM      7  C   LIG    1        0.448   0.358   2.030  0.00  0.00    +0.210 C 
ENDROOT
BRANCH   1   8
ATOM      8  C   LIG    1        2.330   0.854   3.470  0.00  0.00    +0.210 C 
BRANCH   8   9
ATOM      9  C   LIG    1        2.554  -0.659   3.476  0.00  0.00    +0.170 C 
BRANCH   9  10
ATOM     10  O   LIG    1        3.417  -1.018   2.395  0.00  0.00    -0.560 OA
ATOM     11  H   LIG    1        4.288  -0.600   2.433  0.00  0.00    +0.380 HD
ENDBRANCH   9  10
BRANCH   9  12
ATOM     12  C   LIG    1        3.197  -1.074   4.801  0.00  0.00    +0.000 C 
BRANCH  12  13
ATOM     13  C   LIG    1        3.306  -2.599   4.859  0.00  0.00    +0.050 C 
BRANCH  13  15
ATOM     14  C   LIG    1        3.327  -3.857   6.952  0.00  0.00    +0.020 C 
ATOM     15  C   LIG    1        3.939  -3.008   6.164  0.00  0.00    -0.060 C 
ENDBRANCH  13  15
ENDBRANCH  12  13
ENDBRANCH   9  12
ENDBRANCH   8   9
ENDBRANCH   1   8
BRANCH   4  16
ATOM     16  C   LIG    1       -0.157   1.222  -1.572  0.00  0.00    +0.260 C 
BRANCH  16  17
ATOM     17  C   LIG    1       -1.414   0.365  -1.734  0.00  0.00    -0.020 C 
ATOM     18  C   LIG    1       -1.012  -1.085  -2.019  0.00  0.00    -0.010 C 
ATOM     19  C   LIG    1       -2.273  -1.919  -2.257  0.00  0.00    +0.220 C 
ATOM     20  O   LIG    1       -3.017  -1.357  -3.340  0.00  0.00    -0.370 OA
ATOM     21  C   LIG    1       -3.460  -0.018  -3.111  0.00  0.00    +0.230 C 
ATOM     22  C   LIG    1       -2.246   0.892  -2.907  0.00  0.00    +0.020 C 
ENDBRANCH  16  17
ENDBRANCH   4  16
TORSDOF 8
