REMARK  Name = ZINCrH000004murs.0
REMARK                            x       y       z     vdW  Elec       q    Type
REMARK                         _______ _______ _______ _____ _____    ______ ____
ROOT
ATOM      1  C   LIG    1       -2.122  12.042   0.191  0.00  0.00    +0.560 C 
ATOM      2  N   LIG    1       -2.169  10.699   0.082  0.00  0.00    -0.680 N 
ATOM      3  H   LIG    1       -3.024  10.248   0.010  0.00  0.00    +0.410 HD
ATOM      4  O   LIG    1       -1.050  12.616   0.184  0.00  0.00    -0.500 OA
ENDROOT
BRANCH   1   8
ATOM      5  C   LIG    1       -5.721  14.269   0.558  0.00  0.00    +0.200 A 
ATOM      6  C   LIG    1       -5.767  12.883   0.445  0.00  0.00    -0.110 A 
ATOM      7  C   LIG    1       -4.604  12.158   0.321  0.00  0.00    +0.140 A 
ATOM      8  C   LIG    1       -3.370  12.814   0.318  0.00  0.00    -0.220 A 
ATOM      9  C   LIG    1       -3.324  14.212   0.432  0.00  0.00    +0.230 A 
ATOM     10  C   LIG    1       -4.502  14.930   0.551  0.00  0.00    -0.110 A 
BRANCH   5  12
ATOM     11  C   LIG    1       -8.093  14.233   0.676  0.00  0.00    +0.250 C 
ATOM     12  O   LIG    1       -6.873  14.976   0.675  0.00  0.00    -0.310 OA
ENDBRANCH   5  12
BRANCH   9  13
ATOM     13  O   LIG    1       -2.131  14.858   0.425  0.00  0.00    -0.280 OA
ATOM     14  C   LIG    1       -2.163  16.281   0.544  0.00  0.00    +0.250 C 
ENDBRANCH   9  13
ENDBRANCH   1   8
BRANCH   2  15
ATOM     15  C   LIG    1       -0.983   9.957   0.072  0.00  0.00    +0.150 A 
ATOM     16  C   LIG    1       -0.899   8.793  -0.683  0.00  0.00    +0.000 A 
ATOM     17  C   LIG    1        0.271   8.055  -0.697  0.00  0.00    +0.030 A 
ATOM     18  C   LIG    1        1.364   8.471   0.034  0.00  0.00    +0.020 A 
ATOM     19  C   LIG    1        1.288   9.638   0.801  0.00  0.00    +0.030 A 
ATOM     20  C   LIG    1        0.107  10.382   0.814  0.00  0.00    +0.050 A 
BRANCH  19  21
ATOM     21  C   LIG    1        2.419  10.070   1.565  0.00  0.00    -0.070 C 
ATOM     22  C   LIG    1        3.347  10.425   2.191  0.00  0.00    -0.110 C 
BRANCH  22  23
ATOM     23  C   LIG    1        4.478  10.858   2.955  0.00  0.00    +0.230 A 
ATOM     24  C   LIG    1        4.396  12.027   3.715  0.00  0.00    +0.000 A 
ATOM     25  C   LIG    1        5.496  12.428   4.451  0.00  0.00    +0.070 A 
ATOM     26  C   LIG    1        6.647  11.655   4.398  0.00  0.00    -0.030 A 
ATOM     27  C   LIG    1        6.661  10.508   3.626  0.00  0.00    +0.270 A 
ATOM     28  N   LIG    1        5.599  10.143   2.937  0.00  0.00    -0.470 NA
ENDBRANCH  22  23
ENDBRANCH  19  21
ENDBRANCH   2  15
TORSDOF 6
