REMARK  Name = ZINCpe000000Wp7w.0
REMARK                            x       y       z     vdW  Elec       q    Type
REMARK                         _______ _______ _______ _____ _____    ______ ____
ROOT
ATOM      1  N   LIG    1        2.859   4.191  -1.384  0.00  0.00    -0.610 N 
ATOM      2  C   LIG    1        3.713   3.297  -2.175  0.00  0.00    +0.290 C 
ATOM      3  C   LIG    1        3.509   3.730  -3.646  0.00  0.00    +0.000 C 
ATOM      4  C   LIG    1        3.094   5.210  -3.482  0.00  0.00    +0.070 C 
ATOM      5  C   LIG    1        2.504   5.279  -2.090  0.00  0.00    +0.520 C 
ATOM      6  O   LIG    1        1.812   6.183  -1.673  0.00  0.00    -0.520 OA
ENDROOT
BRANCH   3   7
ATOM      7  C   LIG    1        4.795   3.613  -4.422  0.00  0.00    +0.530 C 
ATOM      8  N   LIG    1        4.860   4.064  -5.691  0.00  0.00    -0.610 N 
ATOM      9  C   LIG    1        3.679   4.667  -6.315  0.00  0.00    +0.290 C 
ATOM     10  O   LIG    1        5.772   3.113  -3.905  0.00  0.00    -0.510 OA
BRANCH   8  11
ATOM     11  C   LIG    1        6.110   3.950  -6.445  0.00  0.00    +0.430 C 
BRANCH  11  12
ATOM     12  C   LIG    1        6.137   2.634  -7.178  0.00  0.00    +0.200 A 
ATOM     13  N   LIG    1        6.620   1.513  -6.710  0.00  0.00    -0.290 NA
ATOM     14  N   LIG    1        6.441   0.544  -7.711  0.00  0.00    -0.480 N 
ATOM     15  H   LIG    1        6.695  -0.391  -7.667  0.00  0.00    +0.440 HD
ATOM     16  C   LIG    1        5.853   1.172  -8.744  0.00  0.00    +0.480 A 
ATOM     17  N   LIG    1        5.676   2.424  -8.411  0.00  0.00    -0.540 NA
ENDBRANCH  11  12
ENDBRANCH   8  11
ENDBRANCH   3   7
BRANCH   1  18
ATOM     18  C   LIG    1        2.452   3.935  -0.000  0.00  0.00    +0.350 C 
BRANCH  18  22
ATOM     19  C   LIG    1       -1.223   1.754   0.017  0.00  0.00    +0.130 A 
ATOM     20  C   LIG    1       -0.013   1.076   0.008  0.00  0.00    -0.030 A 
ATOM     21  C   LIG    1        1.174   1.783   0.000  0.00  0.00    +0.070 A 
ATOM     22  C   LIG    1        1.156   3.166   0.007  0.00  0.00    -0.150 A 
ATOM     23  C   LIG    1       -0.049   3.844   0.022  0.00  0.00    +0.080 A 
ATOM     24  C   LIG    1       -1.238   3.141   0.030  0.00  0.00    -0.080 A 
BRANCH  19  26
ATOM     25  C   LIG    1       -3.599   1.824   0.029  0.00  0.00    +0.250 C 
ATOM     26  O   LIG    1       -2.392   1.060   0.019  0.00  0.00    -0.320 OA
ENDBRANCH  19  26
ENDBRANCH  18  22
ENDBRANCH   1  18
TORSDOF 6
