REMARK  Name = ZINCpe000000Wp7w.1
REMARK                            x       y       z     vdW  Elec       q    Type
REMARK                         _______ _______ _______ _____ _____    ______ ____
ROOT
ATOM      1  N   LIG    1       -3.200   0.742   5.105  0.00  0.00    -0.610 N 
ATOM      2  C   LIG    1       -3.348   0.588   3.653  0.00  0.00    +0.280 C 
ATOM      3  C   LIG    1       -2.289   1.524   3.030  0.00  0.00    -0.010 C 
ATOM      4  C   LIG    1       -1.238   1.610   4.160  0.00  0.00    +0.080 C 
ATOM      5  C   LIG    1       -2.022   1.308   5.419  0.00  0.00    +0.520 C 
ATOM      6  O   LIG    1       -1.642   1.543   6.546  0.00  0.00    -0.520 OA
ENDROOT
BRANCH   3   7
ATOM      7  C   LIG    1       -1.695   0.915   1.786  0.00  0.00    +0.530 C 
ATOM      8  N   LIG    1       -1.165   1.708   0.834  0.00  0.00    -0.620 N 
ATOM      9  C   LIG    1       -1.261   3.165   0.956  0.00  0.00    +0.290 C 
ATOM     10  O   LIG    1       -1.694  -0.289   1.642  0.00  0.00    -0.500 OA
BRANCH   8  11
ATOM     11  C   LIG    1       -0.491   1.113  -0.323  0.00  0.00    +0.420 C 
BRANCH  11  12
ATOM     12  C   LIG    1       -1.493   0.887  -1.426  0.00  0.00    +0.150 A 
ATOM     13  N   LIG    1       -2.267  -0.155  -1.565  0.00  0.00    -0.260 NA
ATOM     14  N   LIG    1       -2.998  -0.014  -2.615  0.00  0.00    -0.300 NA
ATOM     15  C   LIG    1       -2.715   1.120  -3.197  0.00  0.00    +0.380 A 
ATOM     16  N   LIG    1       -1.752   1.723  -2.459  0.00  0.00    -0.580 N 
ATOM     17  H   LIG    1       -1.334   2.581  -2.635  0.00  0.00    +0.430 HD
ENDBRANCH  11  12
ENDBRANCH   8  11
ENDBRANCH   3   7
BRANCH   1  18
ATOM     18  C   LIG    1       -4.207   0.331   6.086  0.00  0.00    +0.350 C 
BRANCH  18  22
ATOM     19  C   LIG    1       -3.492  -3.716   7.255  0.00  0.00    +0.130 A 
ATOM     20  C   LIG    1       -2.897  -2.676   7.954  0.00  0.00    -0.020 A 
ATOM     21  C   LIG    1       -3.130  -1.368   7.574  0.00  0.00    +0.070 A 
ATOM     22  C   LIG    1       -3.955  -1.096   6.499  0.00  0.00    -0.150 A 
ATOM     23  C   LIG    1       -4.553  -2.131   5.804  0.00  0.00    +0.060 A 
ATOM     24  C   LIG    1       -4.319  -3.441   6.176  0.00  0.00    -0.080 A 
BRANCH  19  26
ATOM     25  C   LIG    1       -3.909  -6.024   6.861  0.00  0.00    +0.250 C 
ATOM     26  O   LIG    1       -3.264  -5.003   7.627  0.00  0.00    -0.320 OA
ENDBRANCH  19  26
ENDBRANCH  18  22
ENDBRANCH   1  18
TORSDOF 6
