REMARK  Name = ZINCtV00000L6juE.0
REMARK                            x       y       z     vdW  Elec       q    Type
REMARK                         _______ _______ _______ _____ _____    ______ ____
ROOT
ATOM      1  C   LIG    1       -2.447   0.869  -1.356  0.00  0.00    +0.060 A 
ATOM      2  C   LIG    1       -3.479   0.987  -2.227  0.00  0.00    -0.540 A 
ATOM      3  N   LIG    1       -4.475   0.201  -1.791  0.00  0.00    -0.370 NA
ATOM      4  C   LIG    1       -4.093  -0.388  -0.680  0.00  0.00    +0.270 A 
ATOM      5  O   LIG    1       -2.838   0.012  -0.390  0.00  0.00    -0.170 OA
ENDROOT
BRANCH   4   6
ATOM      6  C   LIG    1       -4.899  -1.324   0.115  0.00  0.00    +0.040 A 
ATOM      7  C   LIG    1       -4.506  -1.942   1.265  0.00  0.00    +0.020 A 
ATOM      8  C   LIG    1       -5.586  -2.742   1.684  0.00  0.00    -0.060 A 
ATOM      9  C   LIG    1       -6.571  -2.584   0.777  0.00  0.00    +0.220 A 
ATOM     10  O   LIG    1       -6.153  -1.727  -0.169  0.00  0.00    -0.140 OA
ENDBRANCH   4   6
BRANCH   2  11
ATOM     11  S   LIG    1       -3.507   1.991  -3.675  0.00  0.00    +2.610 S 
ATOM     12  O   LIG    1       -2.548   3.019  -3.468  0.00  0.00    -0.910 OA
ATOM     13  O   LIG    1       -4.875   2.250  -3.958  0.00  0.00    -0.910 OA
BRANCH  11  14
ATOM     14  C   LIG    1       -2.901   1.006  -5.004  0.00  0.00    -0.660 A 
ATOM     15  C   LIG    1       -1.550   0.992  -5.295  0.00  0.00    +0.140 A 
ATOM     16  C   LIG    1       -1.074   0.216  -6.334  0.00  0.00    +0.020 A 
ATOM     17  C   LIG    1       -1.952  -0.540  -7.091  0.00  0.00    +0.020 A 
ATOM     18  C   LIG    1       -3.305  -0.522  -6.803  0.00  0.00    +0.020 A 
ATOM     19 CL   LIG    1       -1.356  -1.509  -8.402  0.00  0.00    -0.050 Cl
ATOM     20  C   LIG    1       -3.779   0.251  -5.760  0.00  0.00    +0.160 A 
ENDBRANCH  11  14
ENDBRANCH   2  11
BRANCH   1  21
ATOM     21  S   LIG    1       -0.890   1.687  -1.462  0.00  0.00    +0.080 S 
BRANCH  21  23
ATOM     22  C   LIG    1       -0.729   1.579   1.267  0.00  0.00    +0.070 C 
ATOM     23  C   LIG    1       -0.013   1.086   0.008  0.00  0.00    +0.050 C 
BRANCH  23  24
ATOM     24  C   LIG    1        1.401   1.607  -0.003  0.00  0.00    -0.080 A 
ATOM     25  C   LIG    1        1.635   2.970  -0.003  0.00  0.00    +0.030 A 
ATOM     26  C   LIG    1        2.932   3.448  -0.009  0.00  0.00    +0.020 A 
ATOM     27  C   LIG    1        3.995   2.564  -0.023  0.00  0.00    +0.020 A 
ATOM     28  C   LIG    1        3.761   1.202  -0.027  0.00  0.00    +0.010 A 
ATOM     29  C   LIG    1        2.464   0.724  -0.018  0.00  0.00    +0.030 A 
ENDBRANCH  23  24
ENDBRANCH  21  23
ENDBRANCH   1  21
TORSDOF 6
