REMARK  Name = ZINCqH0000001bk6.0
REMARK                            x       y       z     vdW  Elec       q    Type
REMARK                         _______ _______ _______ _____ _____    ______ ____
ROOT
ATOM      1  N   LIG    1       -2.414  -0.391   0.033  0.00  0.00    -0.660 N 
ATOM      2  H   LIG    1       -1.598  -0.662   0.481  0.00  0.00    +0.420 HD
ATOM      3  C   LIG    1       -2.447   0.756  -0.674  0.00  0.00    +0.610 C 
ATOM      4  O   LIG    1       -3.440   1.049  -1.311  0.00  0.00    -0.510 OA
ENDROOT
BRANCH   1   9
ATOM      5  C   LIG    1       -5.948  -1.404   0.220  0.00  0.00    +0.160 A 
ATOM      6  C   LIG    1       -5.819  -2.785   0.292  0.00  0.00    +0.010 A 
ATOM      7  C   LIG    1       -4.564  -3.365   0.278  0.00  0.00    +0.050 A 
ATOM      8  C   LIG    1       -3.435  -2.574   0.192  0.00  0.00    -0.030 A 
ATOM      9  C   LIG    1       -3.558  -1.192   0.119  0.00  0.00    +0.160 A 
ATOM     10  C   LIG    1       -4.815  -0.606   0.139  0.00  0.00    -0.010 A 
BRANCH   5  12
ATOM     11  C   LIG    1       -8.202  -1.359   0.981  0.00  0.00    +0.520 C 
ATOM     12  N   LIG    1       -7.218  -0.818   0.235  0.00  0.00    -0.670 N 
ATOM     13  H   LIG    1       -7.391  -0.022  -0.292  0.00  0.00    +0.410 HD
ATOM     14  O   LIG    1       -8.011  -2.400   1.573  0.00  0.00    -0.520 OA
BRANCH  11  16
ATOM     15  C   LIG    1      -10.468  -1.487   1.980  0.00  0.00    +0.050 C 
ATOM     16  C   LIG    1       -9.539  -0.671   1.079  0.00  0.00    -0.010 C 
ATOM     17  C   LIG    1       -9.351   0.726   1.672  0.00  0.00    +0.040 C 
ENDBRANCH  11  16
ENDBRANCH   5  12
ENDBRANCH   1   9
BRANCH   3  18
ATOM     18  C   LIG    1       -1.277   1.657  -0.674  0.00  0.00    -0.010 A 
ATOM     19  N   LIG    1       -0.141   1.465  -0.031  0.00  0.00    -0.260 NA
ATOM     20  N   LIG    1        0.660   2.446  -0.249  0.00  0.00    -0.230 N 
ATOM     21  C   LIG    1        0.073   3.355  -1.070  0.00  0.00    +0.180 A 
ATOM     22  C   LIG    1       -1.163   2.888  -1.363  0.00  0.00    +0.010 A 
BRANCH  20  23
ATOM     23  C   LIG    1        1.951   2.560   0.283  0.00  0.00    +0.130 A 
ATOM     24  C   LIG    1        2.735   3.664  -0.025  0.00  0.00    +0.020 A 
ATOM     25  C   LIG    1        4.005   3.777   0.505  0.00  0.00    +0.040 A 
ATOM     26  C   LIG    1        4.501   2.787   1.333  0.00  0.00    +0.010 A 
ATOM     27  C   LIG    1        3.725   1.683   1.637  0.00  0.00    +0.040 A 
ATOM     28  C   LIG    1        2.452   1.567   1.114  0.00  0.00    +0.030 A 
ENDBRANCH  20  23
ENDBRANCH   3  18
TORSDOF 5
