REMARK  Name = ZINCpe000000SuWu.0
REMARK                            x       y       z     vdW  Elec       q    Type
REMARK                         _______ _______ _______ _____ _____    ______ ____
ROOT
ATOM      1  N   LIG    1       -0.412   6.943   3.052  0.00  0.00    -0.520 NA
ATOM      2  C   LIG    1        0.896   7.603   2.936  0.00  0.00    +0.190 C 
ATOM      3  C   LIG    1        1.469   7.351   1.539  0.00  0.00    +0.190 C 
ATOM      4  N   LIG    1        1.590   5.904   1.315  0.00  0.00    -0.540 NA
ATOM      5  C   LIG    1        0.282   5.245   1.431  0.00  0.00    +0.190 C 
ATOM      6  C   LIG    1       -0.291   5.496   2.828  0.00  0.00    +0.190 C 
ENDROOT
BRANCH   1   7
ATOM      7  C   LIG    1       -1.030   7.224   4.354  0.00  0.00    +0.220 C 
BRANCH   7  10
ATOM      8  N   LIG    1       -3.227   6.899   5.444  0.00  0.00    -0.730 N 
ATOM      9  H   LIG    1       -2.860   7.319   6.238  0.00  0.00    +0.400 HD
ATOM     10  C   LIG    1       -2.459   6.745   4.347  0.00  0.00    +0.510 C 
ATOM     11  O   LIG    1       -2.917   6.221   3.354  0.00  0.00    -0.520 OA
BRANCH   8  12
ATOM     12  C   LIG    1       -4.616   6.433   5.436  0.00  0.00    +0.300 C 
BRANCH  12  14
ATOM     13  C   LIG    1       -6.359   7.414   6.836  0.00  0.00    +0.040 C 
ATOM     14  C   LIG    1       -5.249   6.722   6.773  0.00  0.00    -0.060 C 
ENDBRANCH  12  14
ENDBRANCH   8  12
ENDBRANCH   7  10
ENDBRANCH   1   7
BRANCH   4  15
ATOM     15  C   LIG    1        2.208   5.623   0.012  0.00  0.00    +0.210 C 
BRANCH  15  16
ATOM     16  C   LIG    1        3.713   5.887   0.093  0.00  0.00    +0.200 C 
BRANCH  16  17
ATOM     17  O   LIG    1        4.311   4.960   1.002  0.00  0.00    -0.290 OA
BRANCH  17  18
ATOM     18  C   LIG    1        5.653   5.059   1.190  0.00  0.00    +0.140 A 
ATOM     19  C   LIG    1        6.379   6.029   0.515  0.00  0.00    -0.010 A 
ATOM     20  C   LIG    1        7.744   6.128   0.709  0.00  0.00    +0.080 A 
ATOM     21  C   LIG    1        8.385   5.261   1.575  0.00  0.00    +0.060 A 
ATOM     22  C   LIG    1        7.663   4.294   2.249  0.00  0.00    -0.000 A 
ATOM     23  C   LIG    1        6.298   4.191   2.059  0.00  0.00    +0.070 A 
BRANCH  22  24
ATOM     24  N   LIG    1        8.352   3.368   3.175  0.00  0.00    +0.030 N 
ATOM     25  O   LIG    1        9.555   3.458   3.343  0.00  0.00    -0.150 OA
ATOM     26  O   LIG    1        7.717   2.515   3.769  0.00  0.00    -0.150 OA
ENDBRANCH  22  24
ENDBRANCH  17  18
ENDBRANCH  16  17
ENDBRANCH  15  16
ENDBRANCH   4  15
TORSDOF 9
