REMARK  Name = ZINCrg00000bW3RR.0
REMARK                            x       y       z     vdW  Elec       q    Type
REMARK                         _______ _______ _______ _____ _____    ______ ____
ROOT
ATOM      1  N   LIG    1       -6.936   1.627   0.945  0.00  0.00    -0.430 N 
ATOM      2  C   LIG    1       -6.994   0.425   1.786  0.00  0.00    +0.220 C 
ATOM      3  C   LIG    1       -6.020  -0.625   1.245  0.00  0.00    +0.100 C 
ATOM      4  C   LIG    1       -4.603  -0.045   1.244  0.00  0.00    +0.100 C 
ATOM      5  C   LIG    1       -3.635  -1.063   0.644  0.00  0.00    +0.280 C 
ATOM      6  N   LIG    1       -2.261  -0.569   0.826  0.00  0.00    -0.610 N 
ATOM      7  C   LIG    1       -1.858  -0.124   2.170  0.00  0.00    +0.260 C 
ATOM      8  C   LIG    1       -2.915   0.856   2.692  0.00  0.00    +0.210 C 
ATOM      9  C   LIG    1       -1.398  -0.520  -0.208  0.00  0.00    +0.510 C 
ATOM     10  O   LIG    1       -1.749  -0.891  -1.308  0.00  0.00    -0.510 OA
ATOM     11  C   LIG    1       -4.580   1.233   0.403  0.00  0.00    +0.030 C 
ATOM     12  O   LIG    1       -4.208   0.256   2.583  0.00  0.00    -0.360 OA
ATOM     13  C   LIG    1       -5.596   2.228   0.968  0.00  0.00    +0.230 C 
ENDROOT
BRANCH   9  14
ATOM     14  C   LIG    1        0.002  -0.004   0.002  0.00  0.00    +0.230 C 
ATOM     15  C   LIG    1       -0.019   1.525   0.010  0.00  0.00    +0.040 C 
ATOM     16  C   LIG    1        1.427   2.036  -0.001  0.00  0.00    +0.050 C 
ATOM     17  C   LIG    1        2.056   1.681  -1.350  0.00  0.00    +0.070 C 
ATOM     18  C   LIG    1        1.801   0.235  -1.668  0.00  0.00    +0.520 C 
ATOM     19  O   LIG    1        2.485  -0.295  -2.518  0.00  0.00    -0.540 OA
ATOM     20  N   LIG    1        0.863  -0.497  -1.066  0.00  0.00    -0.590 N 
ATOM     21  C   LIG    1        0.686  -1.883  -1.506  0.00  0.00    +0.290 C 
ENDBRANCH   9  14
BRANCH   1  26
ATOM     22  C   LIG    1       -9.454   5.798   0.794  0.00  0.00    +0.200 C 
ATOM     23  C   LIG    1       -9.103   4.432   1.327  0.00  0.00    +0.290 A 
ATOM     24  N   LIG    1       -9.755   3.914   2.327  0.00  0.00    -0.480 NA
ATOM     25  S   LIG    1       -9.049   2.392   2.599  0.00  0.00    +0.190 S 
ATOM     26  C   LIG    1       -7.897   2.546   1.326  0.00  0.00    +0.270 A 
ATOM     27  N   LIG    1       -8.128   3.730   0.799  0.00  0.00    -0.540 NA
ENDBRANCH   1  26
TORSDOF 2
