REMARK  Name = ZINCvU0000000Dnv.0
REMARK                            x       y       z     vdW  Elec       q    Type
REMARK                         _______ _______ _______ _____ _____    ______ ____
ROOT
ATOM      1  C   LIG    1       -2.731  -2.383   0.139  0.00  0.00    +0.160 A 
ATOM      2  N   LIG    1       -3.335  -1.237  -0.084  0.00  0.00    -0.280 NA
ATOM      3  N   LIG    1       -2.469  -0.291  -0.171  0.00  0.00    -0.260 NA
ATOM      4  C   LIG    1       -1.259  -0.775  -0.008  0.00  0.00    +0.240 A 
ATOM      5  N   LIG    1       -1.390  -2.131   0.190  0.00  0.00    -0.460 N 
ENDROOT
BRANCH   4   6
ATOM      6  C   LIG    1        0.005  -0.010  -0.037  0.00  0.00    -0.080 A 
ATOM      7  C   LIG    1        1.170  -0.538   0.531  0.00  0.00    +0.070 A 
ATOM      8  C   LIG    1        2.327   0.219   0.477  0.00  0.00    -0.030 A 
ATOM      9  C   LIG    1        2.296   1.462  -0.129  0.00  0.00    +0.280 A 
ATOM     10  N   LIG    1        1.183   1.935  -0.656  0.00  0.00    -0.480 NA
ATOM     11  C   LIG    1        0.057   1.252  -0.631  0.00  0.00    +0.320 A 
ENDBRANCH   4   6
BRANCH   1  12
ATOM     12  S   LIG    1       -3.508  -3.953   0.330  0.00  0.00    +0.050 S 
BRANCH  12  13
ATOM     13  C   LIG    1       -5.241  -3.473   0.131  0.00  0.00    +0.230 C 
BRANCH  13  22
ATOM     14  N   LIG    1       -6.650  -5.149   1.425  0.00  0.00    -0.540 N 
ATOM     15  C   LIG    1       -7.386  -6.278   1.125  0.00  0.00    +0.060 A 
ATOM     16  C   LIG    1       -8.144  -7.166   1.876  0.00  0.00    +0.020 A 
ATOM     17  C   LIG    1       -8.772  -8.224   1.254  0.00  0.00    +0.050 A 
ATOM     18  C   LIG    1       -8.651  -8.407  -0.116  0.00  0.00    +0.020 A 
ATOM     19  C   LIG    1       -7.908  -7.543  -0.871  0.00  0.00    +0.080 A 
ATOM     20  C   LIG    1       -7.264  -6.463  -0.263  0.00  0.00    +0.050 A 
ATOM     21  N   LIG    1       -6.481  -5.456  -0.729  0.00  0.00    -0.440 NA
ATOM     22  C   LIG    1       -6.118  -4.692   0.260  0.00  0.00    +0.300 A 
BRANCH  14  24
ATOM     23  F   LIG    1       -7.723  -4.189   3.268  0.00  0.00    -0.180 F 
ATOM     24  C   LIG    1       -6.475  -4.554   2.752  0.00  0.00    +0.640 C 
ATOM     25  F   LIG    1       -5.872  -5.486   3.605  0.00  0.00    -0.180 F 
ENDBRANCH  14  24
ENDBRANCH  13  22
ENDBRANCH  12  13
ENDBRANCH   1  12
BRANCH   5  26
ATOM     26  C   LIG    1       -0.315  -3.101   0.412  0.00  0.00    +0.430 C 
BRANCH  26  27
ATOM     27  C   LIG    1       -0.141  -3.328   1.892  0.00  0.00    -0.070 A 
ATOM     28  C   LIG    1       -0.780  -4.257   2.625  0.00  0.00    -0.010 A 
ATOM     29  C   LIG    1       -0.317  -4.119   3.954  0.00  0.00    -0.050 A 
ATOM     30  C   LIG    1        0.571  -3.109   3.954  0.00  0.00    +0.200 A 
ATOM     31  O   LIG    1        0.674  -2.634   2.703  0.00  0.00    -0.170 OA
ENDBRANCH  26  27
ENDBRANCH   5  26
TORSDOF 7
