REMARK  Name = ZINCrH000004olpn.0
REMARK                            x       y       z     vdW  Elec       q    Type
REMARK                         _______ _______ _______ _____ _____    ______ ____
ROOT
ATOM      1  N   LIG    1       -2.855   0.343  -0.344  0.00  0.00    -0.720 N 
ATOM      2  H   LIG    1       -2.174  -0.342  -0.253  0.00  0.00    +0.390 HD
ATOM      3  C   LIG    1       -2.515   1.645  -0.280  0.00  0.00    +0.590 C 
ATOM      4  O   LIG    1       -3.369   2.503  -0.393  0.00  0.00    -0.530 OA
ENDROOT
BRANCH   3   5
ATOM      5  C   LIG    1       -1.108   2.029  -0.073  0.00  0.00    -0.280 A 
ATOM      6  C   LIG    1       -0.017   1.186  -0.039  0.00  0.00    +0.300 A 
ATOM      7  N   LIG    1        1.077   1.935   0.164  0.00  0.00    -0.460 N 
ATOM      8  H   LIG    1        1.983   1.595   0.227  0.00  0.00    +0.450 HD
ATOM      9  N   LIG    1        0.713   3.280   0.272  0.00  0.00    -0.270 NA
ATOM     10  C   LIG    1       -0.590   3.384   0.139  0.00  0.00    +0.170 A 
BRANCH  10  11
ATOM     11  C   LIG    1       -1.384   4.635   0.189  0.00  0.00    -0.010 A 
ATOM     12  C   LIG    1       -2.581   4.676   0.903  0.00  0.00    +0.080 A 
ATOM     13  C   LIG    1       -3.317   5.843   0.947  0.00  0.00    +0.030 A 
ATOM     14  C   LIG    1       -2.869   6.971   0.284  0.00  0.00    +0.040 A 
ATOM     15  C   LIG    1       -1.681   6.938  -0.426  0.00  0.00    -0.040 A 
ATOM     16 CL   LIG    1       -1.126   8.359  -1.254  0.00  0.00    -0.070 Cl
ATOM     17  C   LIG    1       -0.935   5.776  -0.473  0.00  0.00    +0.050 A 
ENDBRANCH  10  11
ENDBRANCH   3   5
BRANCH   1  19
ATOM     18  C   LIG    1       -4.979  -0.068   0.799  0.00  0.00    +0.040 C 
ATOM     19  C   LIG    1       -4.254  -0.040  -0.549  0.00  0.00    +0.290 C 
BRANCH  19  20
ATOM     20  C   LIG    1       -4.314  -1.407  -1.179  0.00  0.00    -0.110 A 
ATOM     21  C   LIG    1       -3.435  -2.394  -0.772  0.00  0.00    +0.020 A 
ATOM     22  C   LIG    1       -3.491  -3.650  -1.345  0.00  0.00    -0.010 A 
ATOM     23  C   LIG    1       -4.424  -3.918  -2.338  0.00  0.00    +0.160 A 
ATOM     24  C   LIG    1       -5.301  -2.923  -2.748  0.00  0.00    +0.030 A 
ATOM     25  C   LIG    1       -5.244  -1.671  -2.168  0.00  0.00    +0.040 A 
BRANCH  23  26
ATOM     26  N   LIG    1       -4.479  -5.188  -2.923  0.00  0.00    -0.690 N 
ATOM     27  H   LIG    1       -4.302  -5.977  -2.388  0.00  0.00    +0.410 HD
ATOM     28  C   LIG    1       -4.780  -5.314  -4.231  0.00  0.00    +0.700 C 
ATOM     29  O   LIG    1       -5.085  -4.334  -4.882  0.00  0.00    -0.570 OA
ATOM     30  N   LIG    1       -4.743  -6.528  -4.816  0.00  0.00    -0.860 N 
ATOM     31  H   LIG    1       -4.959  -6.619  -5.757  0.00  0.00    +0.420 HD
ATOM     32  H   LIG    1       -4.499  -7.310  -4.297  0.00  0.00    +0.400 HD
ENDBRANCH  23  26
ENDBRANCH  19  20
ENDBRANCH   1  19
TORSDOF 5
