REMARK  Name = ZINCAx0000000aFs.1
REMARK                            x       y       z     vdW  Elec       q    Type
REMARK                         _______ _______ _______ _____ _____    ______ ____
ROOT
ATOM      1  C   LIG    1       -3.921   1.955   1.943  0.00  0.00    -0.220 C 
ATOM      2  C   LIG    1       -3.072   1.058   1.396  0.00  0.00    +0.180 C 
ATOM      3  N   LIG    1       -2.488   0.086   2.157  0.00  0.00    -0.650 N 
ATOM      4  H   LIG    1       -1.882  -0.534   1.721  0.00  0.00    +0.430 HD
ATOM      5  C   LIG    1       -2.705  -0.061   3.470  0.00  0.00    +0.710 C 
ATOM      6  N   LIG    1       -3.531   0.754   4.155  0.00  0.00    -0.710 N 
ATOM      7  H   LIG    1       -3.675   0.630   5.107  0.00  0.00    +0.440 HD
ATOM      8  O   LIG    1       -2.139  -0.958   4.063  0.00  0.00    -0.560 OA
ATOM      9  C   LIG    1       -4.212   1.837   3.426  0.00  0.00    +0.340 C 
ENDROOT
BRANCH   9  10
ATOM     10  C   LIG    1       -5.697   1.652   3.599  0.00  0.00    -0.110 A 
ATOM     11  C   LIG    1       -6.246   0.384   3.552  0.00  0.00    +0.030 A 
ATOM     12  C   LIG    1       -7.608   0.214   3.715  0.00  0.00    +0.000 A 
ATOM     13  C   LIG    1       -8.423   1.312   3.916  0.00  0.00    +0.010 A 
ATOM     14  C   LIG    1       -7.875   2.581   3.957  0.00  0.00    +0.000 A 
ATOM     15  C   LIG    1       -6.512   2.751   3.798  0.00  0.00    +0.020 A 
ENDBRANCH   9  10
BRANCH   1  16
ATOM     16  C   LIG    1       -4.522   2.966   1.158  0.00  0.00    +0.540 C 
ATOM     17  O   LIG    1       -4.112   4.110   1.221  0.00  0.00    -0.470 OA
BRANCH  16  18
ATOM     18  O   LIG    1       -5.550   2.662   0.338  0.00  0.00    -0.350 OA
BRANCH  18  20
ATOM     19  C   LIG    1       -7.254   3.199  -1.289  0.00  0.00    +0.070 C 
ATOM     20  C   LIG    1       -6.109   3.732  -0.426  0.00  0.00    +0.200 C 
ENDBRANCH  18  20
ENDBRANCH  16  18
ENDBRANCH   1  16
BRANCH   2  21
ATOM     21  C   LIG    1       -2.759   1.135  -0.076  0.00  0.00    +0.400 C 
BRANCH  21  22
ATOM     22  N   LIG    1       -1.342   1.459  -0.258  0.00  0.00    -0.580 N 
ATOM     23  C   LIG    1       -0.369   0.546  -0.356  0.00  0.00    +0.700 C 
ATOM     24  N   LIG    1        0.844   1.104  -0.525  0.00  0.00    -0.710 N 
ATOM     25  H   LIG    1        1.688   0.637  -0.623  0.00  0.00    +0.440 HD
ATOM     26  C   LIG    1        0.639   2.563  -0.532  0.00  0.00    +0.180 C 
ATOM     27  O   LIG    1       -0.560  -0.653  -0.303  0.00  0.00    -0.540 OA
ATOM     28  C   LIG    1       -0.857   2.714  -0.343  0.00  0.00    +0.530 C 
ATOM     29  O   LIG    1       -1.487   3.748  -0.285  0.00  0.00    -0.430 OA
BRANCH  26  30
ATOM     30  C   LIG    1        1.389   3.209   0.605  0.00  0.00    -0.140 A 
ATOM     31  C   LIG    1        1.856   4.504   0.476  0.00  0.00    +0.080 A 
ATOM     32  C   LIG    1        2.538   5.101   1.519  0.00  0.00    -0.070 A 
ATOM     33  C   LIG    1        2.764   4.395   2.692  0.00  0.00    +0.140 A 
ATOM     34  C   LIG    1        2.299   3.094   2.816  0.00  0.00    -0.010 A 
ATOM     35  C   LIG    1        1.612   2.504   1.773  0.00  0.00    +0.070 A 
BRANCH  33  36
ATOM     36  O   LIG    1        3.440   4.977   3.716  0.00  0.00    -0.310 OA
ATOM     37  C   LIG    1        3.889   6.319   3.518  0.00  0.00    +0.240 C 
ENDBRANCH  33  36
ENDBRANCH  26  30
BRANCH  26  38
ATOM     38  C   LIG    1        1.076   3.161  -1.871  0.00  0.00    +0.060 C 
ATOM     39  C   LIG    1        0.264   2.526  -3.002  0.00  0.00    +0.020 C 
ENDBRANCH  26  38
ENDBRANCH  21  22
ENDBRANCH   2  21
TORSDOF 9
