REMARK  Name = ZINCAx0000000aFs.0
REMARK                            x       y       z     vdW  Elec       q    Type
REMARK                         _______ _______ _______ _____ _____    ______ ____
ROOT
ATOM      1  C   LIG    1       -1.663   2.590  -1.397  0.00  0.00    +0.050 C 
ATOM      2  C   LIG    1       -0.775   3.756  -1.750  0.00  0.00    +0.250 C 
ATOM      3  N   LIG    1       -0.384   4.585  -0.842  0.00  0.00    -0.500 NA
ATOM      4  C   LIG    1       -0.728   4.436   0.447  0.00  0.00    +0.660 C 
ATOM      5  N   LIG    1       -1.236   3.278   0.906  0.00  0.00    -0.730 N 
ATOM      6  H   LIG    1       -1.539   3.213   1.825  0.00  0.00    +0.420 HD
ATOM      7  O   LIG    1       -0.578   5.366   1.216  0.00  0.00    -0.500 OA
ATOM      8  C   LIG    1       -1.332   2.114   0.020  0.00  0.00    +0.330 C 
ENDROOT
BRANCH   8   9
ATOM      9  C   LIG    1       -0.017   1.378   0.010  0.00  0.00    -0.120 A 
ATOM     10  C   LIG    1        1.171   2.086   0.002  0.00  0.00    +0.020 A 
ATOM     11  C   LIG    1        2.377   1.411  -0.014  0.00  0.00    +0.020 A 
ATOM     12  C   LIG    1        2.396   0.029  -0.022  0.00  0.00    +0.020 A 
ATOM     13  C   LIG    1        1.208  -0.679  -0.014  0.00  0.00    +0.010 A 
ATOM     14  C   LIG    1        0.002  -0.004   0.002  0.00  0.00    +0.030 A 
ENDBRANCH   8   9
BRANCH   1  15
ATOM     15  C   LIG    1       -3.106   3.020  -1.459  0.00  0.00    +0.470 C 
ATOM     16  O   LIG    1       -3.799   2.953  -0.471  0.00  0.00    -0.480 OA
BRANCH  15  17
ATOM     17  O   LIG    1       -3.621   3.478  -2.611  0.00  0.00    -0.350 OA
BRANCH  17  19
ATOM     18  C   LIG    1       -5.423   4.365  -3.988  0.00  0.00    +0.070 C 
ATOM     19  C   LIG    1       -5.018   3.875  -2.596  0.00  0.00    +0.210 C 
ENDBRANCH  17  19
ENDBRANCH  15  17
ENDBRANCH   1  15
BRANCH   2  20
ATOM     20  C   LIG    1       -0.340   3.955  -3.179  0.00  0.00    +0.430 C 
BRANCH  20  21
ATOM     21  N   LIG    1        0.511   5.144  -3.269  0.00  0.00    -0.560 N 
ATOM     22  C   LIG    1        0.053   6.379  -3.506  0.00  0.00    +0.710 C 
ATOM     23  N   LIG    1        1.038   7.295  -3.537  0.00  0.00    -0.710 N 
ATOM     24  H   LIG    1        0.939   8.248  -3.691  0.00  0.00    +0.440 HD
ATOM     25  C   LIG    1        2.297   6.568  -3.299  0.00  0.00    +0.180 C 
ATOM     26  O   LIG    1       -1.121   6.644  -3.672  0.00  0.00    -0.530 OA
ATOM     27  C   LIG    1        1.851   5.129  -3.129  0.00  0.00    +0.550 C 
ATOM     28  O   LIG    1        2.554   4.166  -2.912  0.00  0.00    -0.450 OA
BRANCH  25  29
ATOM     29  C   LIG    1        3.219   6.701  -4.483  0.00  0.00    -0.140 A 
ATOM     30  C   LIG    1        4.585   6.574  -4.312  0.00  0.00    +0.080 A 
ATOM     31  C   LIG    1        5.432   6.690  -5.398  0.00  0.00    -0.080 A 
ATOM     32  C   LIG    1        4.911   6.946  -6.658  0.00  0.00    +0.140 A 
ATOM     33  C   LIG    1        3.540   7.079  -6.826  0.00  0.00    -0.010 A 
ATOM     34  C   LIG    1        2.697   6.956  -5.738  0.00  0.00    +0.070 A 
BRANCH  32  35
ATOM     35  O   LIG    1        5.742   7.067  -7.726  0.00  0.00    -0.320 OA
ATOM     36  C   LIG    1        7.142   6.918  -7.479  0.00  0.00    +0.240 C 
ENDBRANCH  32  35
ENDBRANCH  25  29
BRANCH  25  37
ATOM     37  C   LIG    1        2.978   7.074  -2.025  0.00  0.00    +0.060 C 
ATOM     38  C   LIG    1        2.001   6.978  -0.852  0.00  0.00    +0.030 C 
ENDBRANCH  25  37
ENDBRANCH  20  21
ENDBRANCH   2  20
TORSDOF 9
