REMARK  Name = ZINCpk00000KfKNa.0
REMARK                            x       y       z     vdW  Elec       q    Type
REMARK                         _______ _______ _______ _____ _____    ______ ____
ROOT
ATOM      1  C   LIG    1        2.101  -0.048  -1.260  0.00  0.00    +0.010 C 
ATOM      2  C   LIG    1        2.137   1.483  -1.252  0.00  0.00    +0.030 C 
ATOM      3  C   LIG    1        1.417   1.995  -0.001  0.00  0.00    +0.030 C 
ATOM      4  C   LIG    1       -0.018   1.464   0.010  0.00  0.00    +0.170 C 
ATOM      5  N   LIG    1        0.002  -0.004   0.002  0.00  0.00    -0.530 NA
ATOM      6  C   LIG    1        0.646  -0.520  -1.213  0.00  0.00    +0.190 C 
ENDROOT
BRANCH   1  11
ATOM      7  N   LIG    1        4.969  -1.158  -2.638  0.00  0.00    -0.580 N 
ATOM      8  C   LIG    1        4.244  -2.278  -2.546  0.00  0.00    +0.700 C 
ATOM      9  N   LIG    1        2.923  -2.031  -2.481  0.00  0.00    -0.720 N 
ATOM     10  H   LIG    1        2.213  -2.688  -2.410  0.00  0.00    +0.440 HD
ATOM     11  C   LIG    1        2.765  -0.567  -2.537  0.00  0.00    +0.130 C 
ATOM     12  C   LIG    1        1.952  -0.160  -3.768  0.00  0.00    +0.090 C 
ATOM     13  O   LIG    1        4.724  -3.394  -2.524  0.00  0.00    -0.540 OA
ATOM     14  C   LIG    1        4.188  -0.056  -2.644  0.00  0.00    +0.530 C 
ATOM     15  O   LIG    1        4.547   1.100  -2.719  0.00  0.00    -0.460 OA
BRANCH   7  17
ATOM     16  C   LIG    1        6.857  -1.184  -4.194  0.00  0.00    +0.030 C 
ATOM     17  C   LIG    1        6.432  -1.129  -2.725  0.00  0.00    +0.310 C 
ENDBRANCH   7  17
ENDBRANCH   1  11
BRANCH   5  18
ATOM     18  C   LIG    1       -1.354  -0.550   0.152  0.00  0.00    +0.320 C 
BRANCH  18  19
ATOM     19  C   LIG    1       -1.885  -0.206   1.519  0.00  0.00    +0.180 A 
ATOM     20  N   LIG    1       -1.762  -0.924   2.595  0.00  0.00    -0.370 NA
ATOM     21  O   LIG    1       -2.297  -0.370   3.533  0.00  0.00    +0.080 OA
ATOM     22  C   LIG    1       -2.837   0.783   3.129  0.00  0.00    +0.210 A 
ATOM     23  N   LIG    1       -2.581   0.897   1.849  0.00  0.00    -0.480 NA
BRANCH  22  24
ATOM     24  C   LIG    1       -3.597   1.766   3.983  0.00  0.00    +0.070 C 
ATOM     25  C   LIG    1       -3.604   1.529   5.495  0.00  0.00    +0.070 C 
ATOM     26  C   LIG    1       -4.868   1.267   4.673  0.00  0.00    +0.070 C 
ENDBRANCH  22  24
ENDBRANCH  18  19
ENDBRANCH   5  18
TORSDOF 5
