REMARK  Name = ZINCkj000005g0Ph.1
REMARK                            x       y       z     vdW  Elec       q    Type
REMARK                         _______ _______ _______ _____ _____    ______ ____
ROOT
ATOM      1  N   LIG    1       -2.183   5.679   1.042  0.00  0.00    -0.730 N 
ATOM      2  H   LIG    1       -2.641   5.079   1.651  0.00  0.00    +0.400 HD
ATOM      3  C   LIG    1       -2.289   7.013   1.202  0.00  0.00    +0.600 C 
ATOM      4  O   LIG    1       -1.714   7.765   0.438  0.00  0.00    -0.510 OA
ENDROOT
BRANCH   3   5
ATOM      5  C   LIG    1       -3.099   7.558   2.298  0.00  0.00    -0.290 A 
ATOM      6  C   LIG    1       -3.271   8.870   2.555  0.00  0.00    +0.170 A 
ATOM      7  C   LIG    1       -4.090   9.121   3.649  0.00  0.00    -0.160 A 
ATOM      8  C   LIG    1       -4.558   7.995   4.265  0.00  0.00    -0.010 A 
ATOM      9  S   LIG    1       -3.982   6.597   3.474  0.00  0.00    +0.240 S 
BRANCH   7  10
ATOM     10  C   LIG    1       -4.419  10.482   4.109  0.00  0.00    +0.580 C 
ATOM     11  O   LIG    1       -3.973  11.448   3.519  0.00  0.00    -0.530 OA
ATOM     12  N   LIG    1       -5.215  10.656   5.182  0.00  0.00    -0.850 N 
ATOM     13  H   LIG    1       -5.432  11.552   5.485  0.00  0.00    +0.410 HD
ATOM     14  H   LIG    1       -5.571   9.886   5.652  0.00  0.00    +0.400 HD
ENDBRANCH   7  10
ENDBRANCH   3   5
BRANCH   1  15
ATOM     15  C   LIG    1       -1.374   5.135  -0.052  0.00  0.00    +0.290 C 
BRANCH  15  20
ATOM     16  N   LIG    1       -0.722   1.571  -1.182  0.00  0.00    -0.380 N 
ATOM     17  C   LIG    1       -0.013   1.086   0.008  0.00  0.00    +0.250 C 
ATOM     18  C   LIG    1       -0.728   1.579   1.268  0.00  0.00    +0.060 C 
ATOM     19  C   LIG    1       -0.745   3.110   1.272  0.00  0.00    +0.040 C 
ATOM     20  C   LIG    1       -1.421   3.606  -0.009  0.00  0.00    -0.020 C 
ATOM     21  C   LIG    1       -0.681   3.038  -1.222  0.00  0.00    +0.270 C 
ATOM     22  H   LIG    1       -1.682   1.264  -1.149  0.00  0.00    +0.420 HD
BRANCH  16  24
ATOM     23  C   LIG    1       -0.238  -0.489  -2.413  0.00  0.00    +0.080 C 
ATOM     24  C   LIG    1       -0.078   1.032  -2.388  0.00  0.00    +0.250 C 
ENDBRANCH  16  24
ENDBRANCH  15  20
ENDBRANCH   1  15
TORSDOF 5
