REMARK  Name = ZINCkj000005g0Ph.0
REMARK                            x       y       z     vdW  Elec       q    Type
REMARK                         _______ _______ _______ _____ _____    ______ ____
ROOT
ATOM      1  N   LIG    1        1.312  -2.130  -3.652  0.00  0.00    -0.730 N 
ATOM      2  H   LIG    1        1.012  -2.674  -2.907  0.00  0.00    +0.400 HD
ATOM      3  C   LIG    1        2.000  -2.695  -4.664  0.00  0.00    +0.600 C 
ATOM      4  O   LIG    1        2.377  -2.013  -5.599  0.00  0.00    -0.510 OA
ENDROOT
BRANCH   3   5
ATOM      5  C   LIG    1        2.296  -4.132  -4.638  0.00  0.00    -0.280 A 
ATOM      6  C   LIG    1        2.974  -4.801  -5.592  0.00  0.00    +0.170 A 
ATOM      7  C   LIG    1        3.118  -6.157  -5.327  0.00  0.00    -0.160 A 
ATOM      8  C   LIG    1        2.547  -6.559  -4.153  0.00  0.00    -0.010 A 
ATOM      9  S   LIG    1        1.824  -5.236  -3.355  0.00  0.00    +0.240 S 
BRANCH   7  10
ATOM     10  C   LIG    1        3.824  -7.080  -6.233  0.00  0.00    +0.580 C 
ATOM     11  O   LIG    1        4.312  -6.664  -7.266  0.00  0.00    -0.530 OA
ATOM     12  N   LIG    1        3.928  -8.386  -5.917  0.00  0.00    -0.850 N 
ATOM     13  H   LIG    1        4.393  -8.994  -6.513  0.00  0.00    +0.410 HD
ATOM     14  H   LIG    1        3.539  -8.718  -5.093  0.00  0.00    +0.400 HD
ENDBRANCH   7  10
ENDBRANCH   3   5
BRANCH   1  15
ATOM     15  C   LIG    1        1.018  -0.695  -3.678  0.00  0.00    +0.290 C 
BRANCH  15  20
ATOM     16  N   LIG    1       -0.723   1.572  -1.182  0.00  0.00    -0.380 N 
ATOM     17  C   LIG    1       -2.061   0.971  -1.231  0.00  0.00    +0.250 C 
ATOM     18  C   LIG    1       -1.942  -0.553  -1.222  0.00  0.00    +0.050 C 
ATOM     19  C   LIG    1       -1.135  -1.003  -2.443  0.00  0.00    +0.040 C 
ATOM     20  C   LIG    1        0.232  -0.313  -2.422  0.00  0.00    -0.030 C 
ATOM     21  C   LIG    1        0.032   1.203  -2.386  0.00  0.00    +0.280 C 
ATOM     22  H   LIG    1       -0.808   2.577  -1.135  0.00  0.00    +0.430 HD
BRANCH  16  24
ATOM     23  C   LIG    1       -0.729   1.579   1.267  0.00  0.00    +0.080 C 
ATOM     24  C   LIG    1       -0.013   1.086   0.008  0.00  0.00    +0.240 C 
ENDBRANCH  16  24
ENDBRANCH  15  20
ENDBRANCH   1  15
TORSDOF 5
