REMARK  Name = ZINCrD000000CQJd.0
REMARK                            x       y       z     vdW  Elec       q    Type
REMARK                         _______ _______ _______ _____ _____    ______ ____
ROOT
ATOM      1  N   LIG    1       -5.521   0.752  -0.862  0.00  0.00    -0.730 N 
ATOM      2  H   LIG    1       -5.826   1.288  -0.114  0.00  0.00    +0.400 HD
ENDROOT
BRANCH   1   7
ATOM      3  C   LIG    1       -8.005   1.641  -3.420  0.00  0.00    -0.030 A 
ATOM      4  C   LIG    1       -7.569   0.875  -4.485  0.00  0.00    -0.050 A 
ATOM      5  C   LIG    1       -6.453   0.069  -4.350  0.00  0.00    +0.050 A 
ATOM      6  C   LIG    1       -5.769   0.030  -3.152  0.00  0.00    -0.060 A 
ATOM      7  C   LIG    1       -6.208   0.793  -2.077  0.00  0.00    +0.210 A 
ATOM      8  C   LIG    1       -7.329   1.602  -2.216  0.00  0.00    -0.060 A 
BRANCH   3  12
ATOM      9  O   LIG    1      -12.345   2.447  -5.311  0.00  0.00    -0.530 OA
ATOM     10  C   LIG    1      -11.194   2.599  -4.961  0.00  0.00    +0.520 C 
ATOM     11  C   LIG    1      -10.451   1.688  -4.008  0.00  0.00    +0.070 C 
ATOM     12  C   LIG    1       -9.221   2.518  -3.572  0.00  0.00    +0.040 C 
ATOM     13  C   LIG    1       -9.057   3.489  -4.762  0.00  0.00    +0.270 C 
ATOM     14  N   LIG    1      -10.392   3.600  -5.363  0.00  0.00    -0.730 N 
ATOM     15  H   LIG    1      -10.661   4.306  -5.971  0.00  0.00    +0.410 HD
ENDBRANCH   3  12
ENDBRANCH   1   7
BRANCH   1  16
ATOM     16  C   LIG    1       -4.339  -0.102  -0.717  0.00  0.00    +0.250 C 
ATOM     17  C   LIG    1       -4.125  -0.482   0.766  0.00  0.00    +0.070 C 
ATOM     18  C   LIG    1       -3.135   0.609   1.231  0.00  0.00    +0.270 C 
ATOM     19  N   LIG    1       -2.428   1.038   0.019  0.00  0.00    -0.580 N 
ATOM     20  C   LIG    1       -3.088   0.663  -1.090  0.00  0.00    +0.510 C 
ATOM     21  O   LIG    1       -2.731   0.900  -2.225  0.00  0.00    -0.500 OA
BRANCH  19  22
ATOM     22  C   LIG    1       -1.223   1.754   0.017  0.00  0.00    +0.110 A 
ATOM     23  C   LIG    1       -0.013   1.076   0.008  0.00  0.00    +0.080 A 
ATOM     24  C   LIG    1        1.174   1.783   0.000  0.00  0.00    +0.040 A 
ATOM     25  C   LIG    1        1.158   3.167   0.009  0.00  0.00    -0.000 A 
ATOM     26  C   LIG    1       -0.048   3.847   0.024  0.00  0.00    +0.010 A 
ATOM     27 CL   LIG    1        2.651   4.051   0.000  0.00  0.00    -0.050 Cl
ATOM     28  C   LIG    1       -1.239   3.144   0.031  0.00  0.00    +0.120 A 
ATOM     29  F   LIG    1       -2.415   3.808   0.046  0.00  0.00    -0.120 F 
ENDBRANCH  19  22
ENDBRANCH   1  16
TORSDOF 4
