REMARK  Name = ZINCtV00000L6kJi.0
REMARK                            x       y       z     vdW  Elec       q    Type
REMARK                         _______ _______ _______ _____ _____    ______ ____
ROOT
ATOM      1  C   LIG    1        2.618   4.968  -0.921  0.00  0.00    +0.100 A 
ATOM      2  C   LIG    1        3.814   5.680  -0.923  0.00  0.00    -0.060 A 
ATOM      3  C   LIG    1        4.811   5.365  -0.009  0.00  0.00    -0.010 A 
ATOM      4  C   LIG    1        4.619   4.341   0.906  0.00  0.00    +0.150 A 
ATOM      5  C   LIG    1        3.429   3.631   0.917  0.00  0.00    +0.020 A 
ATOM      6  C   LIG    1        2.425   3.937   0.001  0.00  0.00    -0.000 A 
ENDROOT
BRANCH   6   7
ATOM      7  C   LIG    1        1.153   3.174   0.008  0.00  0.00    -0.040 A 
ATOM      8  C   LIG    1        1.174   1.781   0.000  0.00  0.00    +0.050 A 
ATOM      9  C   LIG    1       -0.013   1.076   0.008  0.00  0.00    +0.050 A 
ATOM     10  C   LIG    1       -1.221   1.750   0.017  0.00  0.00    -0.080 A 
ATOM     11  C   LIG    1       -1.247   3.134   0.031  0.00  0.00    +0.060 A 
ATOM     12 BR   LIG    1       -2.843   0.778   0.019  0.00  0.00    -0.040 Br
ATOM     13  C   LIG    1       -0.066   3.849   0.023  0.00  0.00    +0.020 A 
ENDBRANCH   6   7
BRANCH   4  14
ATOM     14  O   LIG    1        5.598   4.037   1.798  0.00  0.00    -0.490 OA
ATOM     15  H   LIG    1        5.538   4.526   2.630  0.00  0.00    +0.400 HD
ENDBRANCH   4  14
BRANCH   1  16
ATOM     16  O   LIG    1        1.639   5.275  -1.814  0.00  0.00    -0.250 OA
BRANCH  16  17
ATOM     17  C   LIG    1        0.735   6.197  -1.437  0.00  0.00    +0.600 C 
ATOM     18  O   LIG    1        0.815   6.713  -0.340  0.00  0.00    -0.530 OA
BRANCH  17  20
ATOM     19  C   LIG    1       -1.199   7.547  -1.799  0.00  0.00    +0.310 C 
ATOM     20  O   LIG    1       -0.259   6.546  -2.273  0.00  0.00    -0.320 OA
ENDBRANCH  17  20
ENDBRANCH  16  17
ENDBRANCH   1  16
BRANCH   2  21
ATOM     21  S   LIG    1        4.062   6.982  -2.084  0.00  0.00    -0.060 S 
BRANCH  21  22
ATOM     22  C   LIG    1        5.729   7.574  -1.683  0.00  0.00    +0.140 C 
BRANCH  22  23
ATOM     23  C   LIG    1        6.095   8.708  -2.605  0.00  0.00    -0.050 A 
ATOM     24  C   LIG    1        6.734   8.443  -3.804  0.00  0.00    +0.040 A 
ATOM     25  C   LIG    1        7.067   9.475  -4.655  0.00  0.00    +0.070 A 
ATOM     26  C   LIG    1        6.769  10.792  -4.300  0.00  0.00    -0.020 A 
ATOM     27  C   LIG    1        6.129  11.054  -3.087  0.00  0.00    +0.070 A 
ATOM     28  C   LIG    1        5.796  10.011  -2.248  0.00  0.00    +0.040 A 
BRANCH  26  29
ATOM     29  C   LIG    1        7.117  11.870  -5.176  0.00  0.00    +0.250 C 
ATOM     30  N   LIG    1        7.394  12.725  -5.871  0.00  0.00    -0.410 NA
ENDBRANCH  26  29
ENDBRANCH  22  23
ENDBRANCH  21  22
ENDBRANCH   2  21
TORSDOF 9
