REMARK  Name = ZINCqH000000235B.0
REMARK                            x       y       z     vdW  Elec       q    Type
REMARK                         _______ _______ _______ _____ _____    ______ ____
ROOT
ATOM      1  C   LIG    1       -3.872   2.392   1.274  0.00  0.00    +0.030 C 
ATOM      2  C   LIG    1       -3.693   1.522   0.028  0.00  0.00    +0.200 C 
ATOM      3  C   LIG    1       -4.702   0.355   0.053  0.00  0.00    -0.020 C 
ATOM      4  C   LIG    1       -3.863  -0.818   0.627  0.00  0.00    +0.060 C 
ATOM      5  C   LIG    1       -2.470  -0.535   0.004  0.00  0.00    +0.260 C 
ATOM      6  C   LIG    1       -3.902   2.364  -1.232  0.00  0.00    +0.050 C 
ATOM      7  N   LIG    1       -2.345   0.934   0.018  0.00  0.00    -0.630 N 
ATOM      8  C   LIG    1       -1.187   1.624   0.017  0.00  0.00    +0.730 C 
ATOM      9  N   LIG    1       -0.011   0.966   0.007  0.00  0.00    -0.740 N 
ATOM     10  H   LIG    1        0.002  -0.004   0.002  0.00  0.00    +0.400 HD
ATOM     11  O   LIG    1       -1.204   2.840   0.023  0.00  0.00    -0.580 OA
ENDROOT
BRANCH   3  12
ATOM     12  C   LIG    1       -5.881   0.678   0.972  0.00  0.00    +0.470 C 
ATOM     13  F   LIG    1       -5.412   0.897   2.272  0.00  0.00    -0.170 F 
ATOM     14  F   LIG    1       -6.778  -0.396   0.975  0.00  0.00    -0.180 F 
ATOM     15  F   LIG    1       -6.531   1.827   0.511  0.00  0.00    -0.180 F 
ENDBRANCH   3  12
BRANCH   9  16
ATOM     16  C   LIG    1        1.248   1.716  -0.001  0.00  0.00    +0.370 C 
BRANCH  16  17
ATOM     17  C   LIG    1        2.406   0.752  -0.017  0.00  0.00    -0.250 A 
ATOM     18  C   LIG    1        3.032   0.241   1.069  0.00  0.00    +0.260 A 
ATOM     19  N   LIG    1        4.012  -0.581   0.630  0.00  0.00    -0.320 N 
ATOM     20  N   LIG    1        3.991  -0.566  -0.771  0.00  0.00    -0.290 NA
ATOM     21  C   LIG    1        3.028   0.232  -1.157  0.00  0.00    +0.270 A 
BRANCH  19  22
ATOM     22  C   LIG    1        4.896  -1.313   1.434  0.00  0.00    +0.150 A 
ATOM     23  C   LIG    1        4.809  -1.231   2.817  0.00  0.00    -0.010 A 
ATOM     24  C   LIG    1        5.679  -1.958   3.607  0.00  0.00    +0.040 A 
ATOM     25  C   LIG    1        6.641  -2.759   3.021  0.00  0.00    +0.000 A 
ATOM     26  C   LIG    1        6.734  -2.839   1.644  0.00  0.00    +0.040 A 
ATOM     27  C   LIG    1        5.864  -2.119   0.849  0.00  0.00    +0.020 A 
ENDBRANCH  19  22
ENDBRANCH  16  17
ENDBRANCH   9  16
TORSDOF 4
