REMARK  Name = ZINCrD0000073SZq.0
REMARK                            x       y       z     vdW  Elec       q    Type
REMARK                         _______ _______ _______ _____ _____    ______ ____
ROOT
ATOM      1  C   LIG    1       -3.580   3.257  -0.032  0.00  0.00    +0.510 C 
ATOM      2  N   LIG    1       -2.426   3.853  -0.392  0.00  0.00    -0.670 N 
ATOM      3  H   LIG    1       -2.434   4.766  -0.719  0.00  0.00    +0.420 HD
ATOM      4  O   LIG    1       -3.562   2.150   0.464  0.00  0.00    -0.510 OA
ENDROOT
BRANCH   2   5
ATOM      5  C   LIG    1       -1.216   3.154  -0.292  0.00  0.00    +0.140 A 
ATOM      6  C   LIG    1       -0.210   3.371  -1.225  0.00  0.00    +0.010 A 
ATOM      7  C   LIG    1        0.980   2.679  -1.130  0.00  0.00    +0.030 A 
ATOM      8  C   LIG    1        1.176   1.774  -0.096  0.00  0.00    +0.070 A 
ATOM      9  C   LIG    1        0.174   1.561   0.839  0.00  0.00    +0.040 A 
ATOM     10  C   LIG    1       -1.020   2.249   0.742  0.00  0.00    +0.040 A 
BRANCH   8  11
ATOM     11  O   LIG    1        2.351   1.096   0.000  0.00  0.00    -0.260 OA
BRANCH  11  12
ATOM     12  C   LIG    1        3.428   1.754   0.502  0.00  0.00    +0.120 A 
ATOM     13  C   LIG    1        3.309   3.077   0.904  0.00  0.00    -0.070 A 
ATOM     14  C   LIG    1        4.404   3.743   1.419  0.00  0.00    +0.050 A 
ATOM     15  C   LIG    1        5.622   3.095   1.524  0.00  0.00    -0.020 A 
ATOM     16  C   LIG    1        5.744   1.779   1.119  0.00  0.00    +0.050 A 
ATOM     17  C   LIG    1        4.651   1.107   0.609  0.00  0.00    -0.020 A 
ENDBRANCH  11  12
ENDBRANCH   8  11
ENDBRANCH   2   5
BRANCH   1  19
ATOM     18  C   LIG    1       -5.078   4.259  -1.735  0.00  0.00    +0.060 C 
ATOM     19  C   LIG    1       -4.893   3.965  -0.245  0.00  0.00    +0.250 C 
BRANCH  19  20
ATOM     20  N   LIG    1       -5.989   3.114   0.225  0.00  0.00    -0.720 N 
ATOM     21  H   LIG    1       -5.876   2.151   0.258  0.00  0.00    +0.410 HD
ATOM     22  C   LIG    1       -7.155   3.669   0.611  0.00  0.00    +0.530 C 
ATOM     23  O   LIG    1       -7.297   4.873   0.570  0.00  0.00    -0.530 OA
BRANCH  22  24
ATOM     24  C   LIG    1       -8.283   2.793   1.094  0.00  0.00    -0.010 C 
ATOM     25  C   LIG    1       -8.695   1.827  -0.021  0.00  0.00    +0.010 C 
ATOM     26  C   LIG    1       -9.891   0.997   0.451  0.00  0.00    +0.210 C 
ATOM     27  O   LIG    1      -10.963   1.871   0.813  0.00  0.00    -0.380 OA
ATOM     28  C   LIG    1      -10.650   2.765   1.883  0.00  0.00    +0.210 C 
ATOM     29  C   LIG    1       -9.484   3.666   1.469  0.00  0.00    +0.020 C 
ENDBRANCH  22  24
ENDBRANCH  19  20
ENDBRANCH   1  19
TORSDOF 6
