REMARK  Name = ZINCrg00000SjSnh.0
REMARK                            x       y       z     vdW  Elec       q    Type
REMARK                         _______ _______ _______ _____ _____    ______ ____
ROOT
ATOM      1  C   LIG    1        2.887   1.270   6.343  0.00  0.00    +0.500 C 
ATOM      2  O   LIG    1        2.105   0.338   6.300  0.00  0.00    -0.550 OA
ENDROOT
BRANCH   1   3
ATOM      3  N   LIG    1        2.774   2.274   5.475  0.00  0.00    -0.650 NA
ATOM      4  C   LIG    1        1.804   2.258   4.559  0.00  0.00    +0.480 A 
ATOM      5  C   LIG    1        0.833   1.252   4.389  0.00  0.00    -0.100 A 
ATOM      6  C   LIG    1        0.034   1.605   3.356  0.00  0.00    +0.360 A 
ATOM      7  N   LIG    1        0.459   2.800   2.859  0.00  0.00    -0.380 N 
ATOM      8  N   LIG    1        1.572   3.215   3.603  0.00  0.00    -0.470 N 
ATOM      9  H   LIG    1        2.083   4.029   3.468  0.00  0.00    +0.450 HD
BRANCH   7  10
ATOM     10  C   LIG    1       -0.140   3.525   1.735  0.00  0.00    +0.380 C 
BRANCH  10  11
ATOM     11  C   LIG    1        0.438   2.996   0.421  0.00  0.00    +0.050 C 
BRANCH  11  12
ATOM     12  C   LIG    1       -0.179   3.741  -0.735  0.00  0.00    +0.520 C 
ATOM     13  O   LIG    1       -1.000   4.609  -0.528  0.00  0.00    -0.540 OA
ATOM     14  N   LIG    1        0.182   3.442  -1.998  0.00  0.00    -0.850 N 
ATOM     15  H   LIG    1       -0.215   3.922  -2.742  0.00  0.00    +0.410 HD
ATOM     16  H   LIG    1        0.839   2.748  -2.164  0.00  0.00    +0.400 HD
ENDBRANCH  11  12
ENDBRANCH  10  11
ENDBRANCH   7  10
ENDBRANCH   1   3
BRANCH   1  19
ATOM     17  N   LIG    1        4.085   0.273   8.246  0.00  0.00    -0.710 N 
ATOM     18  H   LIG    1        3.463  -0.470   8.213  0.00  0.00    +0.410 HD
ATOM     19  C   LIG    1        3.971   1.289   7.368  0.00  0.00    +0.520 C 
ATOM     20  O   LIG    1        4.750   2.219   7.411  0.00  0.00    -0.500 OA
BRANCH  17  21
ATOM     21  C   LIG    1        5.150   0.291   9.253  0.00  0.00    +0.270 C 
BRANCH  21  22
ATOM     22  C   LIG    1        5.057  -0.968  10.117  0.00  0.00    -0.030 C 
ATOM     23  C   LIG    1        5.212  -2.207   9.232  0.00  0.00    +0.040 C 
ATOM     24  C   LIG    1        3.696  -1.008  10.815  0.00  0.00    +0.040 C 
BRANCH  22  31
ATOM     25  C   LIG    1        5.469  -3.262  11.825  0.00  0.00    +0.080 C 
ATOM     26  C   LIG    1        6.349  -2.047  11.969  0.00  0.00    -0.080 A 
ATOM     27  C   LIG    1        7.357  -2.033  12.915  0.00  0.00    +0.000 A 
ATOM     28  C   LIG    1        8.161  -0.916  13.051  0.00  0.00    +0.000 A 
ATOM     29  C   LIG    1        7.960   0.184  12.238  0.00  0.00    +0.000 A 
ATOM     30  C   LIG    1        6.955   0.167  11.288  0.00  0.00    +0.010 A 
ATOM     31  C   LIG    1        6.152  -0.950  11.152  0.00  0.00    -0.070 A 
ENDBRANCH  22  31
ENDBRANCH  21  22
ENDBRANCH  17  21
ENDBRANCH   1  19
TORSDOF 8
