REMARK  Name = ZINCrD0000071QhV.0
REMARK                            x       y       z     vdW  Elec       q    Type
REMARK                         _______ _______ _______ _____ _____    ______ ____
ROOT
ATOM      1  C   LIG    1        3.905   3.454  -0.692  0.00  0.00    -0.280 A 
ATOM      2  C   LIG    1        5.219   3.784  -0.429  0.00  0.00    +0.280 A 
ATOM      3  N   LIG    1        5.744   2.811   0.330  0.00  0.00    -0.350 N 
ATOM      4  N   LIG    1        4.777   1.833   0.578  0.00  0.00    -0.270 NA
ATOM      5  C   LIG    1        3.658   2.175  -0.021  0.00  0.00    +0.180 A 
ENDROOT
BRANCH   5   6
ATOM      6  C   LIG    1        2.385   1.414  -0.013  0.00  0.00    -0.030 A 
ATOM      7  C   LIG    1        1.167   2.091   0.002  0.00  0.00    +0.110 A 
ATOM      8  C   LIG    1       -0.017   1.382   0.010  0.00  0.00    -0.040 A 
ATOM      9  C   LIG    1        0.002  -0.004   0.002  0.00  0.00    +0.120 A 
ATOM     10  C   LIG    1        1.216  -0.686  -0.013  0.00  0.00    +0.080 A 
ATOM     11  C   LIG    1        2.405   0.020  -0.021  0.00  0.00    +0.000 A 
BRANCH  10  12
ATOM     12  O   LIG    1        1.233  -2.046  -0.020  0.00  0.00    -0.310 OA
ATOM     13  C   LIG    1        2.514  -2.680  -0.036  0.00  0.00    +0.230 C 
ENDBRANCH  10  12
BRANCH   9  14
ATOM     14  O   LIG    1       -1.167  -0.699   0.009  0.00  0.00    -0.310 OA
ATOM     15  C   LIG    1       -2.375   0.064   0.024  0.00  0.00    +0.250 C 
ENDBRANCH   9  14
ENDBRANCH   5   6
BRANCH   1  18
ATOM     16  N   LIG    1        3.319   5.400  -2.049  0.00  0.00    -0.730 N 
ATOM     17  H   LIG    1        4.224   5.727  -1.926  0.00  0.00    +0.400 HD
ATOM     18  C   LIG    1        2.943   4.233  -1.489  0.00  0.00    +0.590 C 
ATOM     19  O   LIG    1        1.808   3.823  -1.643  0.00  0.00    -0.530 OA
BRANCH  16  21
ATOM     20  C   LIG    1        3.038   7.446  -3.358  0.00  0.00    +0.030 C 
ATOM     21  C   LIG    1        2.361   6.175  -2.842  0.00  0.00    +0.260 C 
ENDBRANCH  16  21
ENDBRANCH   1  18
BRANCH   3  22
ATOM     22  C   LIG    1        7.121   2.780   0.829  0.00  0.00    +0.380 C 
BRANCH  22  23
ATOM     23  C   LIG    1        7.109   2.626   2.328  0.00  0.00    -0.120 A 
ATOM     24  C   LIG    1        7.092   3.747   3.138  0.00  0.00    +0.020 A 
ATOM     25  C   LIG    1        7.076   3.605   4.513  0.00  0.00    +0.000 A 
ATOM     26  C   LIG    1        7.088   2.344   5.078  0.00  0.00    +0.010 A 
ATOM     27  C   LIG    1        7.111   1.224   4.268  0.00  0.00    +0.010 A 
ATOM     28  C   LIG    1        7.122   1.365   2.893  0.00  0.00    +0.040 A 
ENDBRANCH  22  23
ENDBRANCH   3  22
TORSDOF 7
