REMARK  Name = ZINCpk00000Fd0sC.0
REMARK                            x       y       z     vdW  Elec       q    Type
REMARK                         _______ _______ _______ _____ _____    ______ ____
ROOT
ATOM      1  C   LIG    1       -0.756   1.594   1.262  0.00  0.00    +0.170 C 
ATOM      2  C   LIG    1       -1.545   2.819   0.722  0.00  0.00    +0.080 C 
ATOM      3  C   LIG    1       -1.915   2.349  -0.707  0.00  0.00    +0.230 C 
ATOM      4  N   LIG    1       -0.743   1.582  -1.167  0.00  0.00    -0.600 N 
ATOM      5  C   LIG    1       -0.398   1.373  -2.453  0.00  0.00    +0.630 C 
ATOM      6  O   LIG    1       -1.079   1.834  -3.349  0.00  0.00    -0.480 OA
ATOM      7  C   LIG    1       -0.013   1.086   0.008  0.00  0.00    +0.250 C 
ENDROOT
BRANCH   5   8
ATOM      8  C   LIG    1        0.807   0.584  -2.774  0.00  0.00    -0.080 A 
ATOM      9  C   LIG    1        1.281   0.281  -4.004  0.00  0.00    -0.110 A 
ATOM     10  C   LIG    1        0.786   0.643  -5.374  0.00  0.00    +0.130 C 
ATOM     11  C   LIG    1        1.926   0.395  -6.373  0.00  0.00    +0.030 C 
ATOM     12  C   LIG    1        2.505  -1.005  -6.162  0.00  0.00    +0.030 C 
ATOM     13  C   LIG    1        3.308  -1.049  -4.854  0.00  0.00    +0.140 C 
ATOM     14  C   LIG    1        2.445  -0.486  -3.756  0.00  0.00    +0.020 A 
ATOM     15  N   LIG    1        2.559  -0.577  -2.474  0.00  0.00    -0.330 NA
ATOM     16  O   LIG    1        1.662   0.008  -1.900  0.00  0.00    +0.100 OA
ENDBRANCH   5   8
BRANCH   3  17
ATOM     17  C   LIG    1       -2.154   3.534  -1.606  0.00  0.00    +0.530 C 
ATOM     18  N   LIG    1       -3.354   4.147  -1.609  0.00  0.00    -0.620 N 
ATOM     19  C   LIG    1       -4.515   3.761  -0.794  0.00  0.00    +0.240 C 
ATOM     20  C   LIG    1       -5.665   4.727  -1.148  0.00  0.00    +0.030 C 
ATOM     21  C   LIG    1       -5.265   5.239  -2.557  0.00  0.00    +0.040 C 
ATOM     22  C   LIG    1       -3.722   5.311  -2.435  0.00  0.00    +0.260 C 
ATOM     23  O   LIG    1       -1.266   3.936  -2.327  0.00  0.00    -0.500 OA
ENDBRANCH   3  17
BRANCH   1  25
ATOM     24  C   LIG    1        0.515   0.950   3.189  0.00  0.00    +0.220 C 
ATOM     25  O   LIG    1        0.172   1.992   2.273  0.00  0.00    -0.370 OA
ENDBRANCH   1  25
TORSDOF 3
