REMARK  Name = ZINCtV000002ILjq.0
REMARK                            x       y       z     vdW  Elec       q    Type
REMARK                         _______ _______ _______ _____ _____    ______ ____
ROOT
ATOM      1  C   LIG    1       -5.217   2.484   5.187  0.00  0.00    +0.240 A 
ATOM      2  N   LIG    1       -4.072   1.973   4.862  0.00  0.00    -0.510 NA
ATOM      3  C   LIG    1       -3.991   1.386   3.676  0.00  0.00    +0.180 A 
ATOM      4  C   LIG    1       -5.140   1.400   2.975  0.00  0.00    -0.130 A 
ATOM      5  S   LIG    1       -6.357   2.232   3.939  0.00  0.00    +0.240 S 
ENDROOT
BRANCH   3   6
ATOM      6  C   LIG    1       -2.744   0.762   3.167  0.00  0.00    -0.100 A 
ATOM      7  C   LIG    1       -1.548   0.707   3.812  0.00  0.00    +0.070 A 
ATOM      8  N   LIG    1       -0.663   0.050   3.006  0.00  0.00    -0.400 N 
ATOM      9  C   LIG    1       -1.299  -0.310   1.851  0.00  0.00    +0.020 A 
ATOM     10  C   LIG    1       -0.676  -1.053   0.698  0.00  0.00    +0.120 C 
ATOM     11  C   LIG    1       -1.251   1.272   5.177  0.00  0.00    +0.140 C 
ATOM     12  C   LIG    1       -2.575   0.116   1.916  0.00  0.00    -0.030 A 
BRANCH   8  13
ATOM     13  C   LIG    1        0.679  -0.212   3.312  0.00  0.00    +0.120 A 
ATOM     14  C   LIG    1        1.000  -1.052   4.370  0.00  0.00    +0.020 A 
ATOM     15  C   LIG    1        2.323  -1.312   4.668  0.00  0.00    +0.020 A 
ATOM     16  C   LIG    1        3.329  -0.729   3.919  0.00  0.00    +0.020 A 
ATOM     17  C   LIG    1        3.013   0.112   2.867  0.00  0.00    +0.020 A 
ATOM     18  C   LIG    1        1.691   0.372   2.562  0.00  0.00    +0.020 A 
ENDBRANCH   8  13
ENDBRANCH   3   6
BRANCH   1  20
ATOM     19  C   LIG    1       -6.714   3.629   6.623  0.00  0.00    +0.560 C 
ATOM     20  N   LIG    1       -5.482   3.138   6.383  0.00  0.00    -0.620 N 
ATOM     21  H   LIG    1       -4.781   3.242   7.045  0.00  0.00    +0.420 HD
ATOM     22  O   LIG    1       -7.593   3.499   5.793  0.00  0.00    -0.490 OA
BRANCH  19  28
ATOM     23  C   LIG    1       -9.818   6.270   9.502  0.00  0.00    +0.090 C 
ATOM     24  C   LIG    1       -8.487   5.597   9.285  0.00  0.00    -0.100 A 
ATOM     25  C   LIG    1       -7.526   5.632  10.280  0.00  0.00    +0.050 A 
ATOM     26  C   LIG    1       -6.301   5.016  10.088  0.00  0.00    +0.000 A 
ATOM     27  C   LIG    1       -6.031   4.364   8.903  0.00  0.00    +0.050 A 
ATOM     28  C   LIG    1       -6.997   4.326   7.896  0.00  0.00    -0.140 A 
ATOM     29  C   LIG    1       -8.228   4.952   8.093  0.00  0.00    -0.010 A 
ATOM     30  C   LIG    1       -9.274   4.921   7.009  0.00  0.00    +0.110 C 
ENDBRANCH  19  28
ENDBRANCH   1  20
TORSDOF 4
