REMARK  Name = ZINCpe00000yWd7f.0
REMARK                            x       y       z     vdW  Elec       q    Type
REMARK                         _______ _______ _______ _____ _____    ______ ____
ROOT
ATOM      1  C   LIG    1       -2.095   2.422  -0.724  0.00  0.00    +0.230 C 
ATOM      2  C   LIG    1       -0.566   2.233  -0.550  0.00  0.00    +0.220 C 
ATOM      3  O   LIG    1       -0.430   0.825  -0.250  0.00  0.00    -0.360 OA
ATOM      4  C   LIG    1       -1.361   0.127  -1.093  0.00  0.00    +0.210 C 
ATOM      5  C   LIG    1       -2.507   1.103  -1.423  0.00  0.00    +0.220 C 
ENDROOT
BRANCH   1   7
ATOM      6  C   LIG    1       -3.612   4.135  -1.560  0.00  0.00    +0.520 C 
ATOM      7  N   LIG    1       -2.385   3.578  -1.576  0.00  0.00    -0.720 N 
ATOM      8  H   LIG    1       -1.694   3.942  -2.151  0.00  0.00    +0.400 HD
ATOM      9  O   LIG    1       -4.476   3.680  -0.841  0.00  0.00    -0.520 OA
BRANCH   6  13
ATOM     10  C   LIG    1       -3.786   5.770  -6.259  0.00  0.00    +0.020 C 
ATOM     11  C   LIG    1       -4.000   6.151  -4.792  0.00  0.00    -0.010 C 
ATOM     12  C   LIG    1       -3.697   4.944  -3.903  0.00  0.00    +0.040 C 
ATOM     13  C   LIG    1       -3.911   5.324  -2.436  0.00  0.00    -0.010 C 
ATOM     14  C   LIG    1       -5.363   5.758  -2.229  0.00  0.00    +0.050 C 
ATOM     15  C   LIG    1       -5.667   6.966  -3.119  0.00  0.00    -0.060 C 
ATOM     16  C   LIG    1       -4.732   8.119  -2.749  0.00  0.00    +0.030 C 
ATOM     17  C   LIG    1       -7.119   7.400  -2.911  0.00  0.00    +0.040 C 
ATOM     18  C   LIG    1       -5.452   6.585  -4.585  0.00  0.00    +0.010 C 
ENDBRANCH   6  13
ENDBRANCH   1   7
BRANCH   5  19
ATOM     19  N   LIG    1       -2.614   1.298  -2.870  0.00  0.00    -0.700 N 
ATOM     20  H   LIG    1       -2.145   2.033  -3.297  0.00  0.00    +0.400 HD
ATOM     21  C   LIG    1       -3.363   0.457  -3.611  0.00  0.00    +0.610 C 
ATOM     22  O   LIG    1       -3.950  -0.464  -3.076  0.00  0.00    -0.520 OA
BRANCH  21  23
ATOM     23  C   LIG    1       -3.470   0.654  -5.071  0.00  0.00    -0.040 A 
ATOM     24  N   LIG    1       -2.896   1.601  -5.797  0.00  0.00    -0.240 NA
ATOM     25  N   LIG    1       -3.232   1.435  -7.027  0.00  0.00    -0.230 N 
ATOM     26  H   LIG    1       -2.939   2.002  -7.757  0.00  0.00    +0.470 HD
ATOM     27  N   LIG    1       -4.007   0.418  -7.161  0.00  0.00    -0.280 NA
ATOM     28  C   LIG    1       -4.201  -0.131  -5.986  0.00  0.00    +0.250 A 
ENDBRANCH  21  23
ENDBRANCH   5  19
TORSDOF 4
