REMARK  Name = ZINCpe00000yWd7f.1
REMARK                            x       y       z     vdW  Elec       q    Type
REMARK                         _______ _______ _______ _____ _____    ______ ____
ROOT
ATOM      1  C   LIG    1       -2.424   0.756   0.513  0.00  0.00    +0.220 C 
ATOM      2  C   LIG    1       -3.245   0.714  -0.795  0.00  0.00    +0.210 C 
ATOM      3  O   LIG    1       -2.312   1.094  -1.829  0.00  0.00    -0.370 OA
ATOM      4  C   LIG    1       -1.529   2.166  -1.261  0.00  0.00    +0.230 C 
ATOM      5  C   LIG    1       -1.268   1.733   0.199  0.00  0.00    +0.230 C 
ENDROOT
BRANCH   1   7
ATOM      6  C   LIG    1       -2.595  -1.397   1.640  0.00  0.00    +0.520 C 
ATOM      7  N   LIG    1       -1.899  -0.574   0.832  0.00  0.00    -0.720 N 
ATOM      8  H   LIG    1       -1.050  -0.862   0.461  0.00  0.00    +0.400 HD
ATOM      9  O   LIG    1       -3.657  -1.037   2.103  0.00  0.00    -0.530 OA
BRANCH   6  13
ATOM     10  C   LIG    1        1.205  -3.874   3.692  0.00  0.00    +0.020 C 
ATOM     11  C   LIG    1       -0.151  -4.014   2.997  0.00  0.00    -0.020 C 
ATOM     12  C   LIG    1       -0.699  -2.625   2.663  0.00  0.00    +0.020 C 
ATOM     13  C   LIG    1       -2.055  -2.765   1.968  0.00  0.00    -0.010 C 
ATOM     14  C   LIG    1       -3.032  -3.490   2.897  0.00  0.00    +0.050 C 
ATOM     15  C   LIG    1       -2.483  -4.879   3.230  0.00  0.00    -0.060 C 
ATOM     16  C   LIG    1       -2.314  -5.684   1.940  0.00  0.00    +0.020 C 
ATOM     17  C   LIG    1       -3.460  -5.603   4.159  0.00  0.00    +0.040 C 
ATOM     18  C   LIG    1       -1.128  -4.739   3.925  0.00  0.00    +0.030 C 
ENDBRANCH   6  13
ENDBRANCH   1   7
BRANCH   5  19
ATOM     19  N   LIG    1        0.024   1.052   0.310  0.00  0.00    -0.720 N 
ATOM     20  H   LIG    1        0.430   0.651  -0.474  0.00  0.00    +0.400 HD
ATOM     21  C   LIG    1        0.652   0.989   1.501  0.00  0.00    +0.600 C 
ATOM     22  O   LIG    1        0.143   1.492   2.484  0.00  0.00    -0.490 OA
BRANCH  21  23
ATOM     23  C   LIG    1        1.954   0.310   1.611  0.00  0.00    -0.080 A 
ATOM     24  C   LIG    1        2.716   0.159   2.739  0.00  0.00    +0.240 A 
ATOM     25  N   LIG    1        3.805  -0.517   2.370  0.00  0.00    -0.260 NA
ATOM     26  N   LIG    1        3.742  -0.774   1.113  0.00  0.00    -0.030 NA
ATOM     27  N   LIG    1        2.653  -0.308   0.608  0.00  0.00    -0.380 N 
ATOM     28  H   LIG    1        2.378  -0.380  -0.320  0.00  0.00    +0.450 HD
ENDBRANCH  21  23
ENDBRANCH   5  19
TORSDOF 4
