REMARK  Name = ZINCrD000000ApAC.0
REMARK                            x       y       z     vdW  Elec       q    Type
REMARK                         _______ _______ _______ _____ _____    ______ ____
ROOT
ATOM      1  N   LIG    1       -1.188  -0.035   2.110  0.00  0.00    -0.720 N 
ATOM      2  H   LIG    1       -1.203   0.935   2.119  0.00  0.00    +0.420 HD
ENDROOT
BRANCH   1   3
ATOM      3  C   LIG    1       -0.582  -0.717   1.049  0.00  0.00    +0.260 A 
ATOM      4  C   LIG    1       -0.560  -2.103   1.035  0.00  0.00    -0.070 A 
ATOM      5  C   LIG    1        0.039  -2.776  -0.015  0.00  0.00    +0.070 A 
ATOM      6  C   LIG    1        0.618  -2.070  -1.052  0.00  0.00    -0.030 A 
ATOM      7  C   LIG    1        0.597  -0.686  -1.050  0.00  0.00    -0.020 A 
ATOM      8 CL   LIG    1        1.319   0.196  -2.359  0.00  0.00    -0.050 Cl
ATOM      9  C   LIG    1        0.002  -0.004   0.002  0.00  0.00    +0.020 A 
BRANCH   9  10
ATOM     10  N   LIG    1       -0.017   1.397   0.010  0.00  0.00    -0.490 N 
ATOM     11  C   LIG    1       -0.795   1.919  -1.123  0.00  0.00    +0.160 C 
ATOM     12  C   LIG    1       -0.840   3.448  -1.042  0.00  0.00    +0.230 C 
ATOM     13  O   LIG    1        0.496   3.958  -1.022  0.00  0.00    -0.380 OA
ATOM     14  C   LIG    1        1.282   3.470   0.069  0.00  0.00    +0.230 C 
ATOM     15  C   LIG    1        1.348   1.942  -0.000  0.00  0.00    +0.150 C 
ENDBRANCH   9  10
ENDBRANCH   1   3
BRANCH   1  16
ATOM     16  C   LIG    1       -1.801  -0.786   3.209  0.00  0.00    +0.280 C 
BRANCH  16  18
ATOM     17  O   LIG    1       -2.288   1.372   4.032  0.00  0.00    -0.530 OA
ATOM     18  C   LIG    1       -2.379   0.176   4.215  0.00  0.00    +0.510 C 
ATOM     19  N   LIG    1       -2.997  -0.292   5.317  0.00  0.00    -0.730 N 
ATOM     20  H   LIG    1       -3.070  -1.248   5.463  0.00  0.00    +0.400 HD
BRANCH  19  21
ATOM     21  C   LIG    1       -3.559   0.644   6.295  0.00  0.00    +0.260 C 
BRANCH  21  22
ATOM     22  C   LIG    1       -4.199  -0.141   7.442  0.00  0.00    +0.010 C 
BRANCH  22  23
ATOM     23  C   LIG    1       -4.785   0.836   8.463  0.00  0.00    +0.080 C 
BRANCH  23  24
ATOM     24  C   LIG    1       -5.415   0.064   9.593  0.00  0.00    -0.080 A 
ATOM     25  C   LIG    1       -6.748  -0.297   9.525  0.00  0.00    +0.000 A 
ATOM     26  C   LIG    1       -7.325  -1.010  10.559  0.00  0.00    +0.000 A 
ATOM     27  C   LIG    1       -6.572  -1.353  11.666  0.00  0.00    +0.000 A 
ATOM     28  C   LIG    1       -5.240  -0.988  11.736  0.00  0.00    +0.000 A 
ATOM     29  C   LIG    1       -4.662  -0.280  10.700  0.00  0.00    +0.000 A 
ENDBRANCH  23  24
ENDBRANCH  22  23
ENDBRANCH  21  22
ENDBRANCH  19  21
ENDBRANCH  16  18
ENDBRANCH   1  16
TORSDOF 8
