REMARK  Name = ZINCpe000000YTt5.1
REMARK                            x       y       z     vdW  Elec       q    Type
REMARK                         _______ _______ _______ _____ _____    ______ ____
ROOT
ATOM      1  N   LIG    1        0.930   4.999   2.078  0.00  0.00    -0.520 NA
ATOM      2  C   LIG    1        1.689   5.795   1.105  0.00  0.00    +0.180 C 
ATOM      3  C   LIG    1        2.361   6.970   1.819  0.00  0.00    +0.070 C 
ATOM      4  C   LIG    1        1.288   7.835   2.487  0.00  0.00    -0.070 C 
ATOM      5  C   LIG    1        1.962   8.972   3.258  0.00  0.00    +0.060 C 
ATOM      6  C   LIG    1        2.537   9.970   2.245  0.00  0.00    +0.160 C 
ATOM      7  C   LIG    1        1.378  10.652   1.518  0.00  0.00    +0.240 C 
ATOM      8  N   LIG    1        0.443   9.659   1.003  0.00  0.00    -0.720 N 
ATOM      9  H   LIG    1       -0.167   9.931   0.299  0.00  0.00    +0.400 HD
ATOM     10  C   LIG    1        0.482   6.970   3.461  0.00  0.00    +0.060 C 
ATOM     11  C   LIG    1        0.373   8.401   1.439  0.00  0.00    +0.530 C 
ATOM     12  O   LIG    1       -0.475   7.675   0.965  0.00  0.00    -0.540 OA
ATOM     13  C   LIG    1       -0.136   5.795   2.700  0.00  0.00    +0.180 C 
ENDROOT
BRANCH   6  14
ATOM     14  O   LIG    1        3.318  10.951   2.929  0.00  0.00    -0.550 OA
ATOM     15  H   LIG    1        3.703  11.622   2.348  0.00  0.00    +0.380 HD
ENDBRANCH   6  14
BRANCH   1  16
ATOM     16  C   LIG    1        0.384   3.785   1.454  0.00  0.00    +0.210 C 
BRANCH  16  18
ATOM     17  O   LIG    1        2.655   3.332   1.000  0.00  0.00    -0.510 OA
ATOM     18  C   LIG    1        1.503   3.002   0.817  0.00  0.00    +0.520 C 
ATOM     19  N   LIG    1        1.222   1.935   0.042  0.00  0.00    -0.580 N 
BRANCH  19  20
ATOM     20  C   LIG    1       -0.170   1.605  -0.274  0.00  0.00    +0.240 C 
ATOM     21  C   LIG    1       -0.816   2.753  -1.077  0.00  0.00    +0.000 C 
ATOM     22  C   LIG    1       -2.271   2.813  -0.549  0.00  0.00    +0.020 C 
ATOM     23  C   LIG    1       -2.098   2.530   0.964  0.00  0.00    +0.010 C 
ATOM     24  C   LIG    1       -0.985   1.463   1.024  0.00  0.00    +0.010 C 
ENDBRANCH  19  20
BRANCH  19  25
ATOM     25  C   LIG    1        2.309   1.106  -0.484  0.00  0.00    +0.200 C 
ATOM     26  C   LIG    1        3.721   1.695  -0.464  0.00  0.00    +0.040 C 
ATOM     27  C   LIG    1        3.343   0.580   0.514  0.00  0.00    +0.000 C 
ENDBRANCH  19  25
ENDBRANCH  16  18
ENDBRANCH   1  16
TORSDOF 5
