REMARK  Name = ZINCqH0000004pQt.0
REMARK                            x       y       z     vdW  Elec       q    Type
REMARK                         _______ _______ _______ _____ _____    ______ ____
ROOT
ATOM      1  C   LIG    1       -2.839   0.596   1.782  0.00  0.00    +0.360 C 
ENDROOT
BRANCH   1   2
ATOM      2  C   LIG    1       -2.545   0.822   3.243  0.00  0.00    +0.190 A 
ATOM      3  N   LIG    1       -3.006   1.804   3.965  0.00  0.00    -0.460 NA
ATOM      4  C   LIG    1       -2.536   1.688   5.223  0.00  0.00    +0.050 A 
ATOM      5  C   LIG    1       -1.750   0.581   5.270  0.00  0.00    +0.150 A 
ATOM      6  N   LIG    1       -1.765   0.036   4.017  0.00  0.00    -0.560 N 
ATOM      7  H   LIG    1       -1.299  -0.767   3.734  0.00  0.00    +0.420 HD
BRANCH   4   8
ATOM      8  C   LIG    1       -2.825   2.604   6.354  0.00  0.00    -0.000 A 
ATOM      9  C   LIG    1       -2.275   2.360   7.611  0.00  0.00    +0.010 A 
ATOM     10  C   LIG    1       -2.543   3.219   8.658  0.00  0.00    +0.000 A 
ATOM     11  C   LIG    1       -3.366   4.314   8.464  0.00  0.00    +0.000 A 
ATOM     12  C   LIG    1       -3.919   4.558   7.220  0.00  0.00    +0.000 A 
ATOM     13  C   LIG    1       -3.654   3.709   6.165  0.00  0.00    +0.040 A 
ENDBRANCH   4   8
ENDBRANCH   1   2
BRANCH   1  15
ATOM     14  C   LIG    1       -4.654   0.403   0.076  0.00  0.00    +0.020 C 
ATOM     15  C   LIG    1       -4.354   0.543   1.570  0.00  0.00    +0.040 C 
ENDBRANCH   1  15
BRANCH   1  16
ATOM     16  N   LIG    1       -2.241  -0.671   1.354  0.00  0.00    -1.110 NA
ATOM     17  H   LIG    1       -2.698  -1.508   1.531  0.00  0.00    +0.430 HD
BRANCH  16  18
ATOM     18  S   LIG    1       -0.784  -0.674   0.567  0.00  0.00    +2.690 S 
ATOM     19  O   LIG    1       -0.478  -2.035   0.295  0.00  0.00    -0.940 OA
ATOM     20  O   LIG    1       -0.873   0.320  -0.445  0.00  0.00    -0.930 OA
BRANCH  18  21
ATOM     21  C   LIG    1        0.429  -0.110   1.713  0.00  0.00    -0.710 A 
ATOM     22  C   LIG    1        1.399  -0.979   2.176  0.00  0.00    +0.140 A 
ATOM     23  C   LIG    1        2.352  -0.536   3.077  0.00  0.00    +0.080 A 
ATOM     24  C   LIG    1        2.334   0.777   3.514  0.00  0.00    +0.100 A 
ATOM     25  C   LIG    1        1.365   1.646   3.051  0.00  0.00    +0.020 A 
ATOM     26  F   LIG    1        3.299  -1.386   3.531  0.00  0.00    -0.120 F 
ATOM     27  C   LIG    1        0.411   1.203   2.150  0.00  0.00    +0.190 A 
ATOM     28  F   LIG    1       -0.533   2.054   1.694  0.00  0.00    -0.110 F 
ENDBRANCH  18  21
ENDBRANCH  16  18
ENDBRANCH   1  16
TORSDOF 6
