REMARK  Name = ZINCnE000004vRWQ.0
REMARK                            x       y       z     vdW  Elec       q    Type
REMARK                         _______ _______ _______ _____ _____    ______ ____
ROOT
ATOM      1  C   LIG    1       -2.568   5.989   0.622  0.00  0.00    +0.600 C 
ATOM      2  N   LIG    1       -2.823   4.722   1.004  0.00  0.00    -0.730 N 
ATOM      3  H   LIG    1       -3.106   4.537   1.913  0.00  0.00    +0.400 HD
ATOM      4  O   LIG    1       -2.214   6.220  -0.518  0.00  0.00    -0.540 OA
ENDROOT
BRANCH   2   5
ATOM      5  C   LIG    1       -2.673   3.623   0.046  0.00  0.00    +0.300 C 
ATOM      6  C   LIG    1       -3.513   2.406   0.488  0.00  0.00    +0.050 C 
ATOM      7  C   LIG    1       -2.640   1.218   0.033  0.00  0.00    +0.100 C 
ATOM      8  C   LIG    1       -1.222   1.749   0.017  0.00  0.00    -0.070 A 
ATOM      9  C   LIG    1       -0.013   1.076   0.008  0.00  0.00    +0.030 A 
ATOM     10  C   LIG    1        1.177   1.781   0.000  0.00  0.00    +0.070 A 
ATOM     11  C   LIG    1        1.158   3.167   0.008  0.00  0.00    +0.070 A 
ATOM     12  C   LIG    1       -0.051   3.839   0.022  0.00  0.00    +0.060 A 
ATOM     13  F   LIG    1        2.317   3.861   0.001  0.00  0.00    -0.130 F 
ATOM     14  F   LIG    1        2.356   1.121  -0.014  0.00  0.00    -0.130 F 
ATOM     15  C   LIG    1       -1.242   3.132   0.030  0.00  0.00    -0.090 A 
ENDBRANCH   2   5
BRANCH   1  20
ATOM     16  C   LIG    1       -2.495  10.749   2.260  0.00  0.00    +0.120 C 
ATOM     17  C   LIG    1       -2.696   9.259   2.365  0.00  0.00    -0.110 A 
ATOM     18  C   LIG    1       -3.098   8.648   3.521  0.00  0.00    -0.170 A 
ATOM     19  S   LIG    1       -3.229   6.914   3.258  0.00  0.00    +0.160 S 
ATOM     20  C   LIG    1       -2.719   7.093   1.585  0.00  0.00    -0.300 A 
ATOM     21  C   LIG    1       -2.490   8.412   1.312  0.00  0.00    +0.100 A 
BRANCH  18  22
ATOM     22  C   LIG    1       -3.384   9.336   4.785  0.00  0.00    +0.540 C 
ATOM     23  O   LIG    1       -3.739   8.693   5.764  0.00  0.00    -0.680 OA
ATOM     24  O   LIG    1       -3.266  10.552   4.861  0.00  0.00    -0.660 OA
ENDBRANCH  18  22
ENDBRANCH   1  20
TORSDOF 3
