REMARK  Name = ZINCpk000005ZzjT.0
REMARK                            x       y       z     vdW  Elec       q    Type
REMARK                         _______ _______ _______ _____ _____    ______ ____
ROOT
ATOM      1  C   LIG    1       -2.082  -0.485  -1.658  0.00  0.00    +0.540 C 
ATOM      2  N   LIG    1       -1.249   0.501  -2.047  0.00  0.00    -0.610 N 
ATOM      3  C   LIG    1       -0.651   0.645  -3.389  0.00  0.00    +0.240 C 
ATOM      4  C   LIG    1       -0.325   2.155  -3.518  0.00  0.00    +0.040 C 
ATOM      5  C   LIG    1        0.123   2.503  -2.072  0.00  0.00    +0.270 C 
ATOM      6  C   LIG    1       -0.784   1.608  -1.210  0.00  0.00    +0.160 C 
ATOM      7  C   LIG    1       -0.013   1.086   0.008  0.00  0.00    +0.020 C 
ATOM      8  C   LIG    1       -0.766   1.599   1.255  0.00  0.00    +0.010 C 
ATOM      9  C   LIG    1       -1.535   2.845   0.747  0.00  0.00    +0.020 C 
ATOM     10  C   LIG    1       -1.975   2.422  -0.678  0.00  0.00    +0.030 C 
ATOM     11  O   LIG    1       -2.514  -0.502  -0.525  0.00  0.00    -0.510 OA
ENDROOT
BRANCH   1  15
ATOM     12  O   LIG    1       -3.329  -4.990  -2.590  0.00  0.00    -0.440 OA
ATOM     13  C   LIG    1       -2.740  -3.948  -2.428  0.00  0.00    +0.490 C 
ATOM     14  C   LIG    1       -3.335  -2.643  -1.931  0.00  0.00    +0.090 C 
ATOM     15  C   LIG    1       -2.478  -1.565  -2.631  0.00  0.00    -0.020 C 
ATOM     16  C   LIG    1       -1.239  -2.354  -3.103  0.00  0.00    +0.280 C 
ATOM     17  O   LIG    1       -1.432  -3.726  -2.655  0.00  0.00    -0.350 OA
ENDBRANCH   1  15
BRANCH   5  18
ATOM     18  N   LIG    1        1.533   2.164  -1.866  0.00  0.00    -0.720 N 
ATOM     19  H   LIG    1        1.780   1.276  -1.565  0.00  0.00    +0.400 HD
ATOM     20  C   LIG    1        2.488   3.088  -2.094  0.00  0.00    +0.590 C 
ATOM     21  O   LIG    1        2.179   4.202  -2.471  0.00  0.00    -0.530 OA
BRANCH  20  22
ATOM     22  C   LIG    1        3.907   2.747  -1.886  0.00  0.00    -0.240 A 
ATOM     23  C   LIG    1        4.416   1.552  -1.470  0.00  0.00    +0.230 A 
ATOM     24  O   LIG    1        5.747   1.658  -1.411  0.00  0.00    -0.170 OA
ATOM     25  C   LIG    1        6.146   2.886  -1.774  0.00  0.00    +0.180 A 
ATOM     26  C   LIG    1        5.070   3.623  -2.091  0.00  0.00    -0.010 A 
ENDBRANCH  20  22
ENDBRANCH   5  18
TORSDOF 3
