REMARK  Name = ZINCpe00000VSyXD.0
REMARK                            x       y       z     vdW  Elec       q    Type
REMARK                         _______ _______ _______ _____ _____    ______ ____
ROOT
ATOM      1  C   LIG    1       -2.519   1.373   0.022  0.00  0.00    +0.560 C 
ATOM      2  N   LIG    1       -3.688   2.035   0.133  0.00  0.00    -0.600 N 
ATOM      3  C   LIG    1       -3.718   3.504   0.142  0.00  0.00    +0.270 C 
ATOM      4  C   LIG    1       -4.478   3.974   1.386  0.00  0.00    +0.030 C 
ATOM      5  C   LIG    1       -5.860   3.317   1.414  0.00  0.00    +0.070 C 
ATOM      6  C   LIG    1       -5.702   1.796   1.489  0.00  0.00    -0.480 C 
ATOM      7  C   LIG    1       -4.957   1.302   0.240  0.00  0.00    +0.330 C 
ATOM      8  O   LIG    1       -2.513   0.160  -0.061  0.00  0.00    -0.520 OA
ENDROOT
BRANCH   1  14
ATOM      9  C   LIG    1       -0.225   1.808   0.920  0.00  0.00    +0.020 A 
ATOM     10  C   LIG    1        0.974   2.519   0.886  0.00  0.00    +0.070 A 
ATOM     11  C   LIG    1        1.153   3.526  -0.043  0.00  0.00    +0.040 A 
ATOM     12  C   LIG    1        0.148   3.837  -0.942  0.00  0.00    +0.050 A 
ATOM     13  C   LIG    1       -1.047   3.143  -0.924  0.00  0.00    +0.050 A 
ATOM     14  C   LIG    1       -1.245   2.121   0.001  0.00  0.00    -0.080 A 
BRANCH   9  16
ATOM     15  N   LIG    1       -0.566  -0.066   2.642  0.00  0.00    -0.390 NA
ATOM     16  C   LIG    1       -0.415   0.763   1.880  0.00  0.00    +0.240 C 
ENDBRANCH   9  16
ENDBRANCH   1  14
BRANCH   6  17
ATOM     17  S   LIG    1       -7.340   1.021   1.562  0.00  0.00    +2.610 S 
ATOM     18  O   LIG    1       -8.025   1.186   0.328  0.00  0.00    -0.940 OA
ATOM     19  O   LIG    1       -7.977   1.314   2.798  0.00  0.00    -0.940 OA
BRANCH  17  20
ATOM     20  N   LIG    1       -7.025  -0.603   1.640  0.00  0.00    -1.000 NA
ATOM     21  C   LIG    1       -6.912  -1.413   0.416  0.00  0.00    +0.270 C 
ATOM     22  C   LIG    1       -5.605  -2.218   0.493  0.00  0.00    +0.210 C 
ATOM     23  O   LIG    1       -5.567  -2.932   1.731  0.00  0.00    -0.370 OA
ATOM     24  C   LIG    1       -5.558  -2.094   2.890  0.00  0.00    +0.210 C 
ATOM     25  C   LIG    1       -6.856  -1.281   2.935  0.00  0.00    +0.280 C 
ENDBRANCH  17  20
ENDBRANCH   6  17
TORSDOF 4
