REMARK  Name = ZINCqH0000005IdB.0
REMARK                            x       y       z     vdW  Elec       q    Type
REMARK                         _______ _______ _______ _____ _____    ______ ____
ROOT
ATOM      1  C   LIG    1       -2.205  -3.050  -0.322  0.00  0.00    -0.160 A 
ATOM      2  C   LIG    1       -3.444  -2.403  -0.314  0.00  0.00    +0.140 A 
ATOM      3  C   LIG    1       -3.502  -1.032  -0.201  0.00  0.00    +0.010 A 
ATOM      4  C   LIG    1       -2.330  -0.291  -0.093  0.00  0.00    +0.170 A 
ATOM      5  C   LIG    1       -1.095  -0.931  -0.106  0.00  0.00    -0.090 A 
ATOM      6  C   LIG    1       -1.029  -2.301  -0.214  0.00  0.00    +0.140 A 
ENDROOT
BRANCH   1   7
ATOM      7  C   LIG    1       -2.138  -4.518  -0.444  0.00  0.00    +0.520 C 
ATOM      8  O   LIG    1       -3.161  -5.167  -0.539  0.00  0.00    -0.500 OA
BRANCH   7   9
ATOM      9  O   LIG    1       -0.943  -5.140  -0.452  0.00  0.00    -0.330 OA
BRANCH   9  10
ATOM     10  C   LIG    1       -0.953  -6.587  -0.575  0.00  0.00    +0.230 C 
ATOM     11  C   LIG    1       -0.902  -6.973  -2.055  0.00  0.00    +0.070 C 
BRANCH  10  12
ATOM     12  C   LIG    1        0.246  -7.160   0.136  0.00  0.00    +0.460 C 
ATOM     13  O   LIG    1        1.029  -6.425   0.689  0.00  0.00    -0.480 OA
BRANCH  12  15
ATOM     14  C   LIG    1        1.619  -8.969   0.857  0.00  0.00    +0.290 C 
ATOM     15  O   LIG    1        0.444  -8.487   0.153  0.00  0.00    -0.350 OA
ENDBRANCH  12  15
ENDBRANCH  10  12
ENDBRANCH   9  10
ENDBRANCH   7   9
ENDBRANCH   1   7
BRANCH   4  16
ATOM     16  O   LIG    1       -2.391   1.060   0.019  0.00  0.00    -0.240 OA
BRANCH  16  17
ATOM     17  C   LIG    1       -1.224   1.755   0.004  0.00  0.00    +0.150 A 
ATOM     18  C   LIG    1       -0.585   2.065   1.195  0.00  0.00    +0.060 A 
ATOM     19  C   LIG    1        0.605   2.767   1.177  0.00  0.00    +0.130 A 
ATOM     20  C   LIG    1        1.157   3.165  -0.028  0.00  0.00    -0.040 A 
ATOM     21  C   LIG    1        0.517   2.861  -1.217  0.00  0.00    +0.130 A 
ATOM     22 CL   LIG    1        2.652   4.047  -0.048  0.00  0.00    -0.020 Cl
ATOM     23  C   LIG    1       -0.672   2.160  -1.203  0.00  0.00    -0.050 A 
BRANCH  23  24
ATOM     24  N   LIG    1       -1.356   1.836  -2.476  0.00  0.00    +0.030 N 
ATOM     25  O   LIG    1       -2.405   1.218  -2.463  0.00  0.00    -0.130 OA
ATOM     26  O   LIG    1       -0.869   2.188  -3.535  0.00  0.00    -0.150 OA
ENDBRANCH  23  24
ENDBRANCH  16  17
ENDBRANCH   4  16
TORSDOF 8
