REMARK  Name = ZINCrH000004ugFS.0
REMARK                            x       y       z     vdW  Elec       q    Type
REMARK                         _______ _______ _______ _____ _____    ______ ____
ROOT
ATOM      1  N   LIG    1        0.458  -6.540  -0.043  0.00  0.00    -0.720 N 
ATOM      2  H   LIG    1        1.404  -6.752  -0.051  0.00  0.00    +0.400 HD
ATOM      3  C   LIG    1       -0.455  -7.532  -0.037  0.00  0.00    +0.560 C 
ATOM      4  O   LIG    1       -1.642  -7.266  -0.028  0.00  0.00    -0.510 OA
ENDROOT
BRANCH   3   5
ATOM      5  C   LIG    1       -0.015  -8.939  -0.043  0.00  0.00    -0.190 A 
ATOM      6  C   LIG    1        1.347  -9.259  -0.054  0.00  0.00    +0.120 A 
ATOM      7  C   LIG    1        1.708 -10.595  -0.058  0.00  0.00    -0.040 A 
ATOM      8  C   LIG    1        0.724 -11.567  -0.052  0.00  0.00    +0.310 A 
ATOM      9  N   LIG    1       -0.555 -11.246  -0.041  0.00  0.00    -0.480 NA
ATOM     10  C   LIG    1       -0.956  -9.983  -0.031  0.00  0.00    +0.150 A 
BRANCH  10  11
ATOM     11  S   LIG    1       -2.678  -9.612  -0.010  0.00  0.00    +0.150 S 
BRANCH  11  12
ATOM     12  C   LIG    1       -3.344 -11.236  -0.158  0.00  0.00    -0.150 A 
ATOM     13  C   LIG    1       -3.510 -11.809  -1.413  0.00  0.00    +0.080 A 
ATOM     14  C   LIG    1       -4.027 -13.084  -1.525  0.00  0.00    +0.040 A 
ATOM     15  C   LIG    1       -4.390 -13.788  -0.390  0.00  0.00    -0.060 A 
ATOM     16  C   LIG    1       -4.232 -13.218   0.861  0.00  0.00    +0.040 A 
ATOM     17 BR   LIG    1       -5.105 -15.531  -0.549  0.00  0.00    -0.050 Br
ATOM     18  C   LIG    1       -3.710 -11.945   0.980  0.00  0.00    +0.090 A 
ENDBRANCH  11  12
ENDBRANCH  10  11
ENDBRANCH   3   5
BRANCH   1  19
ATOM     19  C   LIG    1        0.020  -5.142  -0.038  0.00  0.00    +0.270 C 
BRANCH  19  20
ATOM     20  C   LIG    1        1.245  -4.225  -0.046  0.00  0.00    +0.270 C 
BRANCH  20  23
ATOM     21  O   LIG    1        2.907  -2.101  -0.056  0.00  0.00    -0.520 OA
ATOM     22  C   LIG    1        1.720  -1.835  -0.046  0.00  0.00    +0.610 C 
ATOM     23  N   LIG    1        0.807  -2.826  -0.040  0.00  0.00    -0.720 N 
ATOM     24  H   LIG    1       -0.139  -2.614  -0.033  0.00  0.00    +0.410 HD
BRANCH  22  25
ATOM     25  C   LIG    1        1.282  -0.435  -0.041  0.00  0.00    -0.090 A 
ATOM     26  C   LIG    1        2.097   0.660  -0.045  0.00  0.00    +0.050 A 
ATOM     27  C   LIG    1        1.259   1.787  -0.037  0.00  0.00    -0.070 A 
ATOM     28  C   LIG    1       -0.015   1.335  -0.027  0.00  0.00    +0.210 A 
ATOM     29  O   LIG    1        0.004  -0.004  -0.029  0.00  0.00    -0.170 OA
ENDBRANCH  22  25
ENDBRANCH  20  23
ENDBRANCH  19  20
ENDBRANCH   1  19
TORSDOF 7
