REMARK  Name = ZINCpk00000y6wPn.0
REMARK                            x       y       z     vdW  Elec       q    Type
REMARK                         _______ _______ _______ _____ _____    ______ ____
ROOT
ATOM      1  C   LIG    1        2.001   5.262   2.079  0.00  0.00    +0.590 C 
ATOM      2  N   LIG    1        2.273   5.178   0.762  0.00  0.00    -0.610 N 
ATOM      3  C   LIG    1        2.447   6.319  -0.154  0.00  0.00    +0.240 C 
ATOM      4  C   LIG    1        3.317   5.770  -1.312  0.00  0.00    +0.170 C 
ATOM      5  C   LIG    1        2.769   4.322  -1.457  0.00  0.00    +0.080 C 
ATOM      6  C   LIG    1        2.445   3.932   0.001  0.00  0.00    +0.270 C 
ATOM      7  O   LIG    1        1.835   6.349   2.597  0.00  0.00    -0.520 OA
ENDROOT
BRANCH   1  14
ATOM      8  C   LIG    1        1.827  -0.717   5.079  0.00  0.00    +0.390 C 
ATOM      9  N   LIG    1        1.595   0.718   5.261  0.00  0.00    -0.380 N 
ATOM     10  N   LIG    1        1.163   1.353   6.433  0.00  0.00    +0.020 NA
ATOM     11  N   LIG    1        1.070   2.620   6.227  0.00  0.00    -0.190 NA
ATOM     12  C   LIG    1        1.419   2.908   4.952  0.00  0.00    -0.080 A 
ATOM     13  C   LIG    1        1.494   4.100   4.225  0.00  0.00    +0.260 A 
ATOM     14  C   LIG    1        1.905   4.033   2.894  0.00  0.00    -0.210 A 
ATOM     15  C   LIG    1        2.220   2.788   2.336  0.00  0.00    +0.380 A 
ATOM     16  N   LIG    1        2.146   1.687   3.047  0.00  0.00    -0.480 NA
ATOM     17  C   LIG    1        1.760   1.699   4.316  0.00  0.00    +0.290 A 
ENDBRANCH   1  14
BRANCH   6  18
ATOM     18  C   LIG    1        1.172   3.125   0.044  0.00  0.00    -0.090 A 
ATOM     19  C   LIG    1        1.224   1.748  -0.061  0.00  0.00    +0.020 A 
ATOM     20  C   LIG    1        0.057   1.006  -0.021  0.00  0.00    +0.060 A 
ATOM     21  C   LIG    1       -1.162   1.642   0.118  0.00  0.00    -0.010 A 
ATOM     22  C   LIG    1       -1.214   3.022   0.229  0.00  0.00    +0.100 A 
ATOM     23  F   LIG    1       -2.405   3.644   0.371  0.00  0.00    -0.140 F 
ATOM     24  C   LIG    1       -0.045   3.763   0.189  0.00  0.00    +0.010 A 
ENDBRANCH   6  18
BRANCH   4  25
ATOM     25  O   LIG    1        3.107   6.519  -2.511  0.00  0.00    -0.550 OA
ATOM     26  H   LIG    1        3.345   7.454  -2.437  0.00  0.00    +0.390 HD
ENDBRANCH   4  25
TORSDOF 3
