REMARK  Name = ZINCpk00000ebjC3.0
REMARK                            x       y       z     vdW  Elec       q    Type
REMARK                         _______ _______ _______ _____ _____    ______ ____
ROOT
ATOM      1  C   LIG    1        5.292  -1.570  -1.682  0.00  0.00    +0.570 C 
ATOM      2  N   LIG    1        4.131  -0.937  -1.422  0.00  0.00    -0.720 N 
ATOM      3  H   LIG    1        3.571  -0.632  -2.153  0.00  0.00    +0.400 HD
ATOM      4  O   LIG    1        5.994  -1.952  -0.766  0.00  0.00    -0.530 OA
ENDROOT
BRANCH   1  12
ATOM      5  C   LIG    1        9.517  -3.873  -4.590  0.00  0.00    +0.380 C 
ATOM      6  N   LIG    1        8.378  -3.252  -5.270  0.00  0.00    -0.310 N 
ATOM      7  N   LIG    1        8.216  -3.163  -6.545  0.00  0.00    -0.010 NA
ATOM      8  N   LIG    1        7.117  -2.564  -6.846  0.00  0.00    -0.260 NA
ATOM      9  C   LIG    1        6.476  -2.215  -5.713  0.00  0.00    +0.030 A 
ATOM     10  C   LIG    1        5.274  -1.560  -5.428  0.00  0.00    +0.100 A 
ATOM     11  C   LIG    1        4.900  -1.357  -4.134  0.00  0.00    +0.050 A 
ATOM     12  C   LIG    1        5.711  -1.799  -3.080  0.00  0.00    -0.110 A 
ATOM     13  C   LIG    1        6.914  -2.448  -3.345  0.00  0.00    +0.130 A 
ATOM     14  C   LIG    1        7.298  -2.663  -4.659  0.00  0.00    +0.010 A 
ENDBRANCH   1  12
BRANCH   2  15
ATOM     15  C   LIG    1        3.715  -0.710  -0.036  0.00  0.00    +0.340 C 
BRANCH  15  16
ATOM     16  C   LIG    1        2.391   0.011  -0.020  0.00  0.00    -0.040 A 
ATOM     17  C   LIG    1        1.198  -0.696  -0.013  0.00  0.00    -0.010 A 
ATOM     18  C   LIG    1        0.002  -0.004   0.002  0.00  0.00    +0.310 A 
ATOM     19  N   LIG    1       -0.016   1.315   0.009  0.00  0.00    -0.490 NA
ATOM     20  C   LIG    1        1.101   2.024   0.002  0.00  0.00    +0.350 A 
ATOM     21  C   LIG    1        2.339   1.395  -0.013  0.00  0.00    -0.010 A 
BRANCH  20  22
ATOM     22  N   LIG    1        1.034   3.421   0.011  0.00  0.00    -0.410 N 
ATOM     23  C   LIG    1       -0.102   4.183   0.116  0.00  0.00    +0.150 A 
ATOM     24  C   LIG    1        0.288   5.471   0.085  0.00  0.00    +0.150 A 
ATOM     25  N   LIG    1        1.623   5.502  -0.045  0.00  0.00    -0.470 NA
ATOM     26  C   LIG    1        2.082   4.281  -0.090  0.00  0.00    +0.400 A 
ENDBRANCH  20  22
ENDBRANCH  15  16
ENDBRANCH   2  15
TORSDOF 4
