REMARK  Name = ZINCqH0000036Zek.0
REMARK                            x       y       z     vdW  Elec       q    Type
REMARK                         _______ _______ _______ _____ _____    ______ ____
ROOT
ATOM      1  N   LIG    1        1.678   4.252   1.032  0.00  0.00    -0.700 N 
ATOM      2  H   LIG    1        1.341   4.382   1.932  0.00  0.00    +0.420 HD
ATOM      3  C   LIG    1        2.899   4.712   0.696  0.00  0.00    +0.600 C 
ATOM      4  O   LIG    1        3.321   4.548  -0.433  0.00  0.00    -0.520 OA
ENDROOT
BRANCH   1  15
ATOM      5  C   LIG    1       -0.764   3.665   1.978  0.00  0.00    +0.050 C 
ATOM      6  C   LIG    1       -0.630   3.540   0.459  0.00  0.00    +0.210 C 
ATOM      7  O   LIG    1       -1.073   2.246   0.014  0.00  0.00    -0.290 OA
ATOM      8  C   LIG    1       -0.017   1.388   0.010  0.00  0.00    +0.140 A 
ATOM      9  C   LIG    1        0.002  -0.004   0.002  0.00  0.00    -0.040 A 
ATOM     10  C   LIG    1        1.205  -0.683  -0.021  0.00  0.00    +0.140 A 
ATOM     11  C   LIG    1        2.401   0.015  -0.037  0.00  0.00    -0.040 A 
ATOM     12  C   LIG    1        2.389   1.398  -0.025  0.00  0.00    +0.110 A 
ATOM     13  F   LIG    1        1.215  -2.034  -0.028  0.00  0.00    -0.130 F 
ATOM     14  C   LIG    1        1.190   2.076   0.002  0.00  0.00    -0.200 A 
ATOM     15  C   LIG    1        0.858   3.555   0.037  0.00  0.00    +0.290 C 
ENDBRANCH   1  15
BRANCH   3  16
ATOM     16  C   LIG    1        3.723   5.412   1.697  0.00  0.00    +0.000 A 
ATOM     17  C   LIG    1        4.965   5.898   1.414  0.00  0.00    -0.020 A 
ATOM     18  S   LIG    1        5.605   6.641   2.815  0.00  0.00    +0.250 S 
ATOM     19  C   LIG    1        4.143   6.249   3.714  0.00  0.00    +0.070 A 
ATOM     20  N   LIG    1        3.312   5.623   2.938  0.00  0.00    -0.400 NA
BRANCH  19  21
ATOM     21  C   LIG    1        3.898   6.586   5.132  0.00  0.00    +0.170 A 
ATOM     22  N   LIG    1        2.749   6.242   5.702  0.00  0.00    -0.420 NA
ATOM     23  C   LIG    1        2.494   6.520   6.964  0.00  0.00    +0.270 A 
ATOM     24  C   LIG    1        3.415   7.195   7.745  0.00  0.00    +0.020 A 
ATOM     25  C   LIG    1        4.627   7.579   7.190  0.00  0.00    +0.060 A 
ATOM     26  C   LIG    1        4.874   7.271   5.861  0.00  0.00    +0.060 A 
ATOM     27  F   LIG    1        6.041   7.625   5.280  0.00  0.00    -0.120 F 
ENDBRANCH  19  21
ENDBRANCH   3  16
TORSDOF 3
