REMARK  Name = ZINCrD000000AegD.0
REMARK                            x       y       z     vdW  Elec       q    Type
REMARK                         _______ _______ _______ _____ _____    ______ ____
ROOT
ATOM      1  O   LIG    1        2.138   4.851   3.793  0.00  0.00    -0.530 OA
ATOM      2  C   LIG    1        2.344   5.614   2.873  0.00  0.00    +0.520 C 
ATOM      3  N   LIG    1        2.709   6.887   3.123  0.00  0.00    -0.620 N 
ATOM      4  C   LIG    1        2.860   7.384   4.500  0.00  0.00    +0.290 C 
ATOM      5  C   LIG    1        4.335   7.752   4.703  0.00  0.00    +0.070 C 
ATOM      6  C   LIG    1        4.841   8.585   3.555  0.00  0.00    -0.080 A 
ATOM      7  C   LIG    1        5.990   9.338   3.765  0.00  0.00    +0.030 A 
ATOM      8  C   LIG    1        6.524  10.104   2.751  0.00  0.00    -0.010 A 
ATOM      9  C   LIG    1        5.909  10.126   1.508  0.00  0.00    +0.110 A 
ATOM     10  C   LIG    1        4.761   9.380   1.299  0.00  0.00    -0.010 A 
ATOM     11  C   LIG    1        4.225   8.614   2.324  0.00  0.00    -0.080 A 
ATOM     12  C   LIG    1        2.966   7.835   2.033  0.00  0.00    +0.340 C 
ENDROOT
BRANCH   9  13
ATOM     13  O   LIG    1        6.431  10.874   0.500  0.00  0.00    -0.500 OA
ATOM     14  H   LIG    1        6.089  11.778   0.464  0.00  0.00    +0.390 HD
ENDBRANCH   9  13
BRANCH   2  15
ATOM     15  C   LIG    1        2.192   5.138   1.451  0.00  0.00    +0.060 C 
BRANCH  15  16
ATOM     16  C   LIG    1        1.774   3.667   1.447  0.00  0.00    +0.060 C 
BRANCH  16  17
ATOM     17  C   LIG    1        1.620   3.184   0.004  0.00  0.00    +0.200 C 
BRANCH  17  18
ATOM     18  C   LIG    1        1.207   1.735  -0.000  0.00  0.00    +0.170 A 
ATOM     19  N   LIG    1       -0.015   1.282   0.009  0.00  0.00    -0.280 NA
ATOM     20  N   LIG    1        0.002  -0.004   0.002  0.00  0.00    -0.270 NA
ATOM     21  C   LIG    1        1.247  -0.420  -0.012  0.00  0.00    +0.210 A 
ATOM     22  O   LIG    1        2.034   0.675  -0.014  0.00  0.00    -0.220 OA
BRANCH  21  23
ATOM     23  C   LIG    1        1.701  -1.827  -0.024  0.00  0.00    -0.030 A 
ATOM     24  C   LIG    1        3.065  -2.122  -0.045  0.00  0.00    +0.050 A 
ATOM     25  C   LIG    1        3.483  -3.437  -0.051  0.00  0.00    +0.010 A 
ATOM     26  C   LIG    1        2.553  -4.462  -0.047  0.00  0.00    +0.040 A 
ATOM     27  C   LIG    1        1.199  -4.175  -0.032  0.00  0.00    +0.020 A 
ATOM     28  C   LIG    1        0.768  -2.865  -0.020  0.00  0.00    +0.070 A 
ENDBRANCH  21  23
ENDBRANCH  17  18
ENDBRANCH  16  17
ENDBRANCH  15  16
ENDBRANCH   2  15
TORSDOF 6
