REMARK  Name = ZINCrH000004jBZK.0
REMARK                            x       y       z     vdW  Elec       q    Type
REMARK                         _______ _______ _______ _____ _____    ______ ____
ROOT
ATOM      1  C   LIG    1       -3.027  -1.234  -0.177  0.00  0.00    +0.570 C 
ATOM      2  N   LIG    1       -2.966  -0.334  -1.177  0.00  0.00    -0.610 N 
ATOM      3  C   LIG    1       -4.187   0.305  -1.685  0.00  0.00    +0.280 C 
ATOM      4  C   LIG    1       -4.252   0.108  -3.203  0.00  0.00    +0.040 C 
ATOM      5  C   LIG    1       -2.960   0.629  -3.837  0.00  0.00    +0.160 C 
ATOM      6  C   LIG    1       -1.769  -0.165  -3.297  0.00  0.00    +0.010 C 
ATOM      7  C   LIG    1       -1.676   0.029  -1.780  0.00  0.00    +0.290 C 
ATOM      8  O   LIG    1       -2.003  -1.685   0.299  0.00  0.00    -0.520 OA
ENDROOT
BRANCH   1  13
ATOM      9  C   LIG    1       -5.920  -3.431   0.813  0.00  0.00    -0.120 A 
ATOM     10  C   LIG    1       -6.812  -2.484   1.321  0.00  0.00    +0.070 A 
ATOM     11  C   LIG    1       -6.467  -1.147   1.338  0.00  0.00    +0.020 A 
ATOM     12  C   LIG    1       -5.239  -0.738   0.859  0.00  0.00    +0.060 A 
ATOM     13  C   LIG    1       -4.340  -1.675   0.342  0.00  0.00    -0.130 A 
ATOM     14  C   LIG    1       -4.681  -3.025   0.322  0.00  0.00    +0.110 A 
BRANCH   9  17
ATOM     15  C   LIG    1       -6.909  -6.923   1.941  0.00  0.00    +0.290 C 
ATOM     16  N   LIG    1       -6.633  -5.484   1.942  0.00  0.00    -0.620 N 
ATOM     17  C   LIG    1       -6.291  -4.863   0.796  0.00  0.00    +0.560 C 
ATOM     18  O   LIG    1       -6.287  -5.479  -0.252  0.00  0.00    -0.530 OA
ATOM     19  C   LIG    1       -6.729  -4.720   3.188  0.00  0.00    +0.280 C 
ENDBRANCH   9  17
ENDBRANCH   1  13
BRANCH   5  20
ATOM     20  O   LIG    1       -3.030   0.477  -5.256  0.00  0.00    -0.300 OA
BRANCH  20  21
ATOM     21  C   LIG    1       -2.380   1.402  -6.009  0.00  0.00    +0.140 A 
ATOM     22  C   LIG    1       -1.590   2.365  -5.397  0.00  0.00    -0.060 A 
ATOM     23  C   LIG    1       -0.926   3.302  -6.165  0.00  0.00    +0.070 A 
ATOM     24  C   LIG    1       -1.056   3.287  -7.542  0.00  0.00    -0.070 A 
ATOM     25  C   LIG    1       -1.847   2.331  -8.154  0.00  0.00    +0.070 A 
ATOM     26 CL   LIG    1       -0.225   4.469  -8.504  0.00  0.00    -0.070 Cl
ATOM     27  C   LIG    1       -2.509   1.389  -7.390  0.00  0.00    +0.000 A 
ENDBRANCH  20  21
ENDBRANCH   5  20
TORSDOF 4
