REMARK  Name = ZINCqH0000001H2R.0
REMARK                            x       y       z     vdW  Elec       q    Type
REMARK                         _______ _______ _______ _____ _____    ______ ____
ROOT
ATOM      1  C   LIG    1        1.709  -1.885  -0.025  0.00  0.00    +0.410 C 
ENDROOT
BRANCH   1   2
ATOM      2  N   LIG    1        0.910  -2.634  -0.998  0.00  0.00    -0.620 N 
ATOM      3  C   LIG    1        1.437  -3.343  -2.171  0.00  0.00    +0.340 C 
ATOM      4  C   LIG    1        0.245  -3.958  -2.861  0.00  0.00    -0.080 A 
ATOM      5  C   LIG    1        0.106  -4.729  -3.992  0.00  0.00    +0.030 A 
ATOM      6  C   LIG    1       -1.151  -5.151  -4.391  0.00  0.00    +0.060 A 
ATOM      7  C   LIG    1       -2.269  -4.800  -3.655  0.00  0.00    +0.000 A 
ATOM      8  C   LIG    1       -2.140  -4.028  -2.519  0.00  0.00    +0.090 A 
ATOM      9  C   LIG    1       -0.876  -3.598  -2.111  0.00  0.00    -0.160 A 
ATOM     10  C   LIG    1       -0.425  -2.781  -0.968  0.00  0.00    +0.560 C 
ATOM     11  O   LIG    1       -1.157  -2.308  -0.120  0.00  0.00    -0.500 OA
ENDBRANCH   1   2
BRANCH   1  12
ATOM     12  C   LIG    1        1.264  -0.445  -0.012  0.00  0.00    +0.170 A 
ATOM     13  N   LIG    1        2.041   0.609  -0.014  0.00  0.00    -0.460 NA
ATOM     14  C   LIG    1        1.208   1.675  -0.001  0.00  0.00    +0.210 A 
ATOM     15  N   LIG    1       -0.014   1.209   0.009  0.00  0.00    -0.370 NA
ATOM     16  O   LIG    1        0.002  -0.004   0.002  0.00  0.00    +0.120 OA
BRANCH  14  17
ATOM     17  C   LIG    1        1.605   3.104   0.003  0.00  0.00    -0.030 A 
ATOM     18  C   LIG    1        2.955   3.453  -0.002  0.00  0.00    +0.080 A 
ATOM     19  C   LIG    1        3.322   4.782  -0.004  0.00  0.00    -0.010 A 
ATOM     20  C   LIG    1        2.348   5.772   0.012  0.00  0.00    +0.130 A 
ATOM     21  C   LIG    1        1.003   5.427   0.023  0.00  0.00    -0.010 A 
ATOM     22  C   LIG    1        0.630   4.100   0.019  0.00  0.00    +0.070 A 
BRANCH  20  23
ATOM     23  O   LIG    1        2.712   7.081   0.015  0.00  0.00    -0.500 OA
ATOM     24  H   LIG    1        2.826   7.455   0.899  0.00  0.00    +0.400 HD
ENDBRANCH  20  23
ENDBRANCH  14  17
ENDBRANCH   1  12
BRANCH   1  26
ATOM     25  C   LIG    1        1.968  -3.952   1.354  0.00  0.00    +0.050 C 
ATOM     26  C   LIG    1        1.516  -2.490   1.367  0.00  0.00    -0.010 C 
ATOM     27  C   LIG    1        2.350  -1.708   2.383  0.00  0.00    +0.040 C 
ENDBRANCH   1  26
TORSDOF 5
