REMARK  Name = ZINCrg00000J00XH.1
REMARK                            x       y       z     vdW  Elec       q    Type
REMARK                         _______ _______ _______ _____ _____    ______ ____
ROOT
ATOM      1  N   LIG    1       -0.729   1.575  -1.178  0.00  0.00    -0.570 N 
ATOM      2  C   LIG    1       -0.092   1.320   0.121  0.00  0.00    +0.290 C 
ATOM      3  C   LIG    1       -1.021   1.813   1.235  0.00  0.00    +0.010 C 
ATOM      4  C   LIG    1       -2.398   1.159   1.067  0.00  0.00    +0.030 C 
ATOM      5  C   LIG    1       -2.998   1.565  -0.281  0.00  0.00    +0.130 C 
ATOM      6  C   LIG    1       -2.088   1.069  -1.410  0.00  0.00    +0.300 C 
ENDROOT
BRANCH   1  12
ATOM      7  C   LIG    1        3.375   3.713  -2.863  0.00  0.00    +0.320 C 
ATOM      8  N   LIG    1        1.966   3.330  -2.987  0.00  0.00    -0.480 N 
ATOM      9  C   LIG    1        1.255   3.664  -4.101  0.00  0.00    +0.160 A 
ATOM     10  C   LIG    1       -0.043   3.317  -4.224  0.00  0.00    +0.190 A 
ATOM     11  N   LIG    1       -0.679   2.634  -3.273  0.00  0.00    -0.510 NA
ATOM     12  C   LIG    1       -0.058   2.282  -2.167  0.00  0.00    +0.350 A 
ATOM     13  C   LIG    1        1.354   2.642  -1.997  0.00  0.00    +0.480 A 
ATOM     14  O   LIG    1        1.961   2.327  -0.988  0.00  0.00    -0.520 OA
ENDBRANCH   1  12
BRANCH   5  15
ATOM     15  N   LIG    1       -4.331   0.963  -0.426  0.00  0.00    -0.680 NA
ATOM     16  H   LIG    1       -4.548   0.796  -1.397  0.00  0.00    +0.340 HD
BRANCH  15  17
ATOM     17  C   LIG    1       -5.358   1.801   0.207  0.00  0.00    +0.290 C 
BRANCH  17  18
ATOM     18  C   LIG    1       -6.708   1.153   0.039  0.00  0.00    -0.060 A 
ATOM     19  C   LIG    1       -7.325   0.343   0.925  0.00  0.00    +0.260 A 
ATOM     20  N   LIG    1       -8.504  -0.026   0.418  0.00  0.00    -0.480 NA
ATOM     21  C   LIG    1       -8.655   0.522  -0.778  0.00  0.00    +0.240 A 
ATOM     22  C   LIG    1       -9.698   0.452  -1.726  0.00  0.00    +0.090 A 
ATOM     23  C   LIG    1       -9.585   1.129  -2.896  0.00  0.00    +0.070 A 
ATOM     24  C   LIG    1       -8.421   1.898  -3.149  0.00  0.00    -0.040 A 
ATOM     25  C   LIG    1       -7.424   1.951  -2.218  0.00  0.00    +0.290 A 
ATOM     26  N   LIG    1       -7.538   1.271  -1.045  0.00  0.00    -0.360 N 
BRANCH  24  27
ATOM     27  C   LIG    1       -8.290   2.617  -4.380  0.00  0.00    +0.260 C 
ATOM     28  N   LIG    1       -8.187   3.187  -5.357  0.00  0.00    -0.390 NA
ENDBRANCH  24  27
ENDBRANCH  17  18
ENDBRANCH  15  17
ENDBRANCH   5  15
TORSDOF 5
