REMARK  Name = ZINCrD000000Cace.0
REMARK                            x       y       z     vdW  Elec       q    Type
REMARK                         _______ _______ _______ _____ _____    ______ ____
ROOT
ATOM      1  O   LIG    1       -1.058   3.534  -0.070  0.00  0.00    -0.510 OA
ATOM      2  C   LIG    1       -0.013   4.149  -0.076  0.00  0.00    +0.530 C 
ATOM      3  N   LIG    1        1.159   3.489   0.010  0.00  0.00    -0.660 N 
ATOM      4  H   LIG    1        1.991   3.983   0.070  0.00  0.00    +0.420 HD
ENDROOT
BRANCH   2   5
ATOM      5  C   LIG    1       -0.024   5.653  -0.181  0.00  0.00    +0.000 C 
ATOM      6  C   LIG    1        0.567   6.118  -1.532  0.00  0.00    +0.080 C 
ATOM      7  C   LIG    1       -0.277   7.313  -1.915  0.00  0.00    +0.520 C 
ATOM      8  N   LIG    1       -1.409   7.331  -1.189  0.00  0.00    -0.620 N 
ATOM      9  O   LIG    1        0.022   8.135  -2.755  0.00  0.00    -0.520 OA
ATOM     10  C   LIG    1       -1.470   6.190  -0.269  0.00  0.00    +0.310 C 
BRANCH   8  11
ATOM     11  C   LIG    1       -2.447   8.359  -1.302  0.00  0.00    +0.300 C 
BRANCH  11  12
ATOM     12  C   LIG    1       -2.145   9.499  -0.327  0.00  0.00    +0.060 C 
BRANCH  12  13
ATOM     13  C   LIG    1       -3.212  10.556  -0.444  0.00  0.00    -0.090 A 
ATOM     14  C   LIG    1       -3.059  11.597  -1.339  0.00  0.00    +0.010 A 
ATOM     15  C   LIG    1       -4.041  12.564  -1.450  0.00  0.00    +0.000 A 
ATOM     16  C   LIG    1       -5.171  12.495  -0.657  0.00  0.00    +0.000 A 
ATOM     17  C   LIG    1       -5.322  11.456   0.242  0.00  0.00    +0.000 A 
ATOM     18  C   LIG    1       -4.343  10.486   0.349  0.00  0.00    +0.000 A 
ENDBRANCH  12  13
ENDBRANCH  11  12
ENDBRANCH   8  11
ENDBRANCH   2   5
BRANCH   3  19
ATOM     19  C   LIG    1        1.174   2.087   0.013  0.00  0.00    +0.130 A 
ATOM     20  C   LIG    1        0.148   1.382   0.624  0.00  0.00    +0.060 A 
ATOM     21  C   LIG    1        0.166  -0.000   0.626  0.00  0.00    +0.010 A 
ATOM     22  C   LIG    1        1.205  -0.682   0.021  0.00  0.00    +0.040 A 
ATOM     23  C   LIG    1        2.231   0.014  -0.590  0.00  0.00    -0.030 A 
ATOM     24  C   LIG    1        2.221   1.399  -0.597  0.00  0.00    +0.080 A 
BRANCH  24  25
ATOM     25  O   LIG    1        3.230   2.086  -1.197  0.00  0.00    -0.320 OA
BRANCH  25  26
ATOM     26  C   LIG    1        4.270   1.314  -1.801  0.00  0.00    +0.590 C 
ATOM     27  F   LIG    1        3.725   0.498  -2.798  0.00  0.00    -0.200 F 
ATOM     28  F   LIG    1        4.883   0.516  -0.829  0.00  0.00    -0.200 F 
ENDBRANCH  25  26
ENDBRANCH  24  25
ENDBRANCH   3  19
TORSDOF 7
