REMARK  Name = ZINCpe000027pHvY.0
REMARK                            x       y       z     vdW  Elec       q    Type
REMARK                         _______ _______ _______ _____ _____    ______ ____
ROOT
ATOM      1  C   LIG    1       -0.013   1.086   0.008  0.00  0.00    +0.060 C 
ATOM      2  C   LIG    1       -0.729   1.579   1.267  0.00  0.00    +0.250 C 
ENDROOT
BRANCH   2   3
ATOM      3  C   LIG    1        0.000   1.080   2.488  0.00  0.00    +0.520 C 
ATOM      4  N   LIG    1        0.143  -0.244   2.692  0.00  0.00    -0.720 N 
ATOM      5  H   LIG    1       -0.223  -0.876   2.054  0.00  0.00    +0.410 HD
ATOM      6  O   LIG    1        0.458   1.870   3.286  0.00  0.00    -0.520 OA
BRANCH   4   7
ATOM      7  C   LIG    1        0.852  -0.730   3.879  0.00  0.00    +0.430 C 
BRANCH   7   8
ATOM      8  C   LIG    1        0.872  -2.236   3.871  0.00  0.00    +0.160 A 
ATOM      9  N   LIG    1        1.788  -3.004   3.333  0.00  0.00    -0.280 NA
ATOM     10  N   LIG    1        1.450  -4.230   3.536  0.00  0.00    -0.070 NA
ATOM     11  N   LIG    1        0.342  -4.265   4.190  0.00  0.00    -0.080 NA
ATOM     12  N   LIG    1       -0.044  -3.056   4.420  0.00  0.00    -0.270 N 
BRANCH  12  13
ATOM     13  C   LIG    1       -1.253  -2.650   5.140  0.00  0.00    +0.200 C 
ATOM     14  C   LIG    1       -2.050  -3.743   5.856  0.00  0.00    +0.090 C 
ATOM     15  C   LIG    1       -2.599  -3.110   4.576  0.00  0.00    +0.070 C 
ENDBRANCH  12  13
ENDBRANCH   7   8
ENDBRANCH   4   7
ENDBRANCH   2   3
BRANCH   2  16
ATOM     16  N   LIG    1       -0.749   3.044   1.275  0.00  0.00    -0.710 N 
ATOM     17  H   LIG    1       -0.063   3.536   1.753  0.00  0.00    +0.410 HD
ATOM     18  C   LIG    1       -1.720   3.708   0.618  0.00  0.00    +0.560 C 
ATOM     19  O   LIG    1       -2.581   3.091   0.019  0.00  0.00    -0.540 OA
BRANCH  18  20
ATOM     20  C   LIG    1       -1.740   5.173   0.626  0.00  0.00    -0.090 C 
ATOM     21  C   LIG    1       -2.712   5.837  -0.031  0.00  0.00    +0.130 C 
BRANCH  21  22
ATOM     22  C   LIG    1       -2.732   7.309  -0.022  0.00  0.00    -0.080 A 
ATOM     23  C   LIG    1       -1.748   8.021   0.670  0.00  0.00    +0.030 A 
ATOM     24  C   LIG    1       -1.770   9.400   0.668  0.00  0.00    +0.010 A 
ATOM     25  C   LIG    1       -2.770  10.079  -0.007  0.00  0.00    +0.020 A 
ATOM     26  C   LIG    1       -3.750   9.381  -0.690  0.00  0.00    +0.010 A 
ATOM     27  C   LIG    1       -3.738   8.002  -0.703  0.00  0.00    +0.040 A 
ENDBRANCH  21  22
ENDBRANCH  18  20
ENDBRANCH   2  16
TORSDOF 7
