REMARK  Name = ZINCrg00000MJEhs.0
REMARK                            x       y       z     vdW  Elec       q    Type
REMARK                         _______ _______ _______ _____ _____    ______ ____
ROOT
ATOM      1  C   LIG    1        0.389   4.326   3.887  0.00  0.00    +0.220 C 
ATOM      2  C   LIG    1        1.799   4.970   3.818  0.00  0.00    +0.060 C 
ATOM      3  C   LIG    1        2.285   4.586   2.405  0.00  0.00    +0.290 C 
ATOM      4  N   LIG    1        1.093   4.295   1.597  0.00  0.00    -1.010 NA
ATOM      5  C   LIG    1       -0.106   4.509   2.428  0.00  0.00    +0.340 C 
ENDROOT
BRANCH   1   9
ATOM      6  C   LIG    1       -1.338   5.945   6.586  0.00  0.00    +0.180 A 
ATOM      7  N   LIG    1       -2.105   6.192   5.567  0.00  0.00    -0.370 NA
ATOM      8  O   LIG    1       -1.641   5.697   4.562  0.00  0.00    +0.090 OA
ATOM      9  C   LIG    1       -0.498   5.069   4.853  0.00  0.00    +0.150 A 
ATOM     10  N   LIG    1       -0.299   5.216   6.140  0.00  0.00    -0.460 NA
BRANCH   6  12
ATOM     11  C   LIG    1       -2.385   5.325   8.747  0.00  0.00    +0.040 C 
ATOM     12  C   LIG    1       -1.571   6.389   8.007  0.00  0.00    +0.150 C 
ENDBRANCH   6  12
ENDBRANCH   1   9
BRANCH   4  13
ATOM     13  S   LIG    1        1.095   3.814   0.012  0.00  0.00    +2.720 S 
ATOM     14  O   LIG    1       -0.173   4.174  -0.518  0.00  0.00    -0.930 OA
ATOM     15  O   LIG    1        2.324   4.261  -0.542  0.00  0.00    -0.940 OA
BRANCH  13  16
ATOM     16  C   LIG    1        1.156   2.053   0.002  0.00  0.00    -0.770 A 
ATOM     17  C   LIG    1       -0.016   1.312   0.009  0.00  0.00    +0.460 A 
ATOM     18  N   LIG    1        0.002  -0.004   0.002  0.00  0.00    -0.480 NA
ATOM     19  C   LIG    1        1.139  -0.685  -0.013  0.00  0.00    +0.340 A 
ATOM     20  O   LIG    1        1.425  -2.002  -0.022  0.00  0.00    -0.080 OA
ATOM     21  N   LIG    1        2.826  -2.179  -0.036  0.00  0.00    -0.260 NA
ATOM     22  C   LIG    1        3.415  -1.022  -0.036  0.00  0.00    +0.160 A 
ATOM     23  C   LIG    1        2.366  -0.000  -0.021  0.00  0.00    -0.270 A 
ATOM     24  C   LIG    1        2.373   1.397  -0.014  0.00  0.00    +0.290 A 
BRANCH  22  25
ATOM     25  C   LIG    1        4.902  -0.777  -0.048  0.00  0.00    +0.140 C 
ATOM     26  C   LIG    1        5.392  -0.686  -1.494  0.00  0.00    +0.050 C 
ENDBRANCH  22  25
ENDBRANCH  13  16
ENDBRANCH   4  13
BRANCH   1  27
ATOM     27  O   LIG    1        0.474   2.942   4.234  0.00  0.00    -0.520 OA
ATOM     28  H   LIG    1        0.870   2.778   5.101  0.00  0.00    +0.390 HD
ENDBRANCH   1  27
TORSDOF 6
