REMARK  Name = ZINCvS0000000e3I.1
REMARK                            x       y       z     vdW  Elec       q    Type
REMARK                         _______ _______ _______ _____ _____    ______ ____
ROOT
ATOM      1  N   LIG    1        6.462   6.272   1.825  0.00  0.00    -0.510 N 
ATOM      2  H   LIG    1        6.549   5.352   2.230  0.00  0.00    +0.430 HD
ATOM      3  H   LIG    1        5.752   6.791   2.320  0.00  0.00    +0.430 HD
ENDROOT
BRANCH   1   4
ATOM      4  C   LIG    1        6.083   6.151   0.411  0.00  0.00    +0.330 C 
BRANCH   4   8
ATOM      5  C   LIG    1        2.347   4.100   0.106  0.00  0.00    +0.160 A 
ATOM      6  C   LIG    1        3.535   3.384   0.095  0.00  0.00    -0.050 A 
ATOM      7  C   LIG    1        4.742   4.050   0.189  0.00  0.00    +0.090 A 
ATOM      8  C   LIG    1        4.766   5.428   0.303  0.00  0.00    -0.210 A 
ATOM      9  C   LIG    1        3.583   6.143   0.320  0.00  0.00    +0.090 A 
ATOM     10  C   LIG    1        2.373   5.482   0.221  0.00  0.00    +0.010 A 
BRANCH   5  11
ATOM     11  O   LIG    1        1.159   3.447   0.009  0.00  0.00    -0.240 OA
BRANCH  11  17
ATOM     12  F   LIG    1        0.489  -0.700  -2.200  0.00  0.00    -0.110 F 
ATOM     13  C   LIG    1        0.834  -0.007  -1.093  0.00  0.00    +0.160 A 
ATOM     14  C   LIG    1        1.203  -0.680   0.059  0.00  0.00    -0.020 A 
ATOM     15  C   LIG    1        1.558   0.029   1.194  0.00  0.00    +0.150 A 
ATOM     16  C   LIG    1        1.544   1.412   1.179  0.00  0.00    -0.040 A 
ATOM     17  C   LIG    1        1.174   2.089   0.025  0.00  0.00    +0.130 A 
ATOM     18  F   LIG    1        1.918  -0.630   2.317  0.00  0.00    -0.120 F 
ATOM     19  C   LIG    1        0.820   1.377  -1.111  0.00  0.00    +0.000 A 
ENDBRANCH  11  17
ENDBRANCH   5  11
ENDBRANCH   4   8
ENDBRANCH   1   4
BRANCH   1  20
ATOM     20  C   LIG    1        7.746   6.977   1.930  0.00  0.00    +0.340 C 
BRANCH  20  21
ATOM     21  C   LIG    1        8.134   7.101   3.381  0.00  0.00    -0.130 A 
ATOM     22  C   LIG    1        7.737   8.206   4.111  0.00  0.00    +0.060 A 
ATOM     23  C   LIG    1        8.089   8.317   5.443  0.00  0.00    +0.060 A 
ATOM     24  C   LIG    1        8.846   7.328   6.043  0.00  0.00    -0.120 A 
ATOM     25  C   LIG    1        9.247   6.226   5.312  0.00  0.00    +0.050 A 
ATOM     26  C   LIG    1        8.891   6.112   3.981  0.00  0.00    +0.060 A 
BRANCH  24  27
ATOM     27  C   LIG    1        9.235   7.453   7.494  0.00  0.00    +0.330 C 
BRANCH  27  28
ATOM     28  N   LIG    1       10.519   8.158   7.598  0.00  0.00    -0.380 N 
ATOM     29  C   LIG    1       11.576   7.345   6.981  0.00  0.00    +0.230 C 
ATOM     30  C   LIG    1       12.913   8.081   7.091  0.00  0.00    +0.260 C 
ATOM     31  O   LIG    1       13.193   8.349   8.468  0.00  0.00    -0.350 OA
ATOM     32  C   LIG    1       12.179   9.120   9.119  0.00  0.00    +0.260 C 
ATOM     33  C   LIG    1       10.840   8.385   9.014  0.00  0.00    +0.250 C 
ATOM     34  H   LIG    1       10.456   9.045   7.121  0.00  0.00    +0.420 HD
ENDBRANCH  27  28
ENDBRANCH  24  27
ENDBRANCH  20  21
ENDBRANCH   1  20
TORSDOF 8
