REMARK  Name = ZINCrH000004nrDI.0
REMARK                            x       y       z     vdW  Elec       q    Type
REMARK                         _______ _______ _______ _____ _____    ______ ____
ROOT
ATOM      1  S   LIG    1       -1.419  -0.276   2.732  0.00  0.00    +2.710 S 
ATOM      2  O   LIG    1       -2.324   0.807   2.899  0.00  0.00    -0.940 OA
ATOM      3  O   LIG    1       -0.103  -0.279   3.270  0.00  0.00    -0.920 OA
ENDROOT
BRANCH   1   4
ATOM      4  C   LIG    1       -2.224  -1.702   3.381  0.00  0.00    -0.680 A 
ATOM      5  C   LIG    1       -1.562  -2.524   4.274  0.00  0.00    +0.210 A 
ATOM      6  C   LIG    1       -2.196  -3.640   4.787  0.00  0.00    -0.070 A 
ATOM      7  C   LIG    1       -3.488  -3.941   4.398  0.00  0.00    +0.160 A 
ATOM      8  C   LIG    1       -4.148  -3.123   3.500  0.00  0.00    -0.100 A 
ATOM      9  C   LIG    1       -5.556  -3.451   3.076  0.00  0.00    +0.120 C 
ATOM     10  C   LIG    1       -3.516  -2.004   2.992  0.00  0.00    +0.070 A 
ATOM     11  C   LIG    1       -4.236  -1.112   2.013  0.00  0.00    +0.120 C 
BRANCH   6  12
ATOM     12  N   LIG    1       -1.490  -4.516   5.748  0.00  0.00    +0.030 N 
ATOM     13  O   LIG    1       -0.351  -4.251   6.091  0.00  0.00    -0.150 OA
ATOM     14  O   LIG    1       -2.046  -5.502   6.197  0.00  0.00    -0.150 OA
ENDBRANCH   6  12
ENDBRANCH   1   4
BRANCH   1  19
ATOM     15  C   LIG    1       -0.201  -1.287   0.444  0.00  0.00    +0.280 C 
ATOM     16  C   LIG    1       -0.469  -1.243  -1.075  0.00  0.00    +0.060 C 
ATOM     17  C   LIG    1       -1.984  -0.904  -1.148  0.00  0.00    +0.040 C 
ATOM     18  C   LIG    1       -2.151   0.046   0.064  0.00  0.00    +0.270 C 
ATOM     19  N   LIG    1       -1.258  -0.503   1.100  0.00  0.00    -1.000 NA
BRANCH  15  24
ATOM     20  C   LIG    1        3.432  -0.933   1.423  0.00  0.00    +0.130 A 
ATOM     21  C   LIG    1        3.619   0.436   1.294  0.00  0.00    -0.070 A 
ATOM     22  C   LIG    1        2.570   1.240   0.890  0.00  0.00    +0.050 A 
ATOM     23  C   LIG    1        1.335   0.682   0.616  0.00  0.00    -0.020 A 
ATOM     24  C   LIG    1        1.147  -0.682   0.744  0.00  0.00    -0.060 A 
ATOM     25  C   LIG    1        2.192  -1.490   1.147  0.00  0.00    +0.000 A 
BRANCH  20  27
ATOM     26  C   LIG    1        5.710  -1.083   2.085  0.00  0.00    +0.250 C 
ATOM     27  O   LIG    1        4.462  -1.726   1.818  0.00  0.00    -0.320 OA
ENDBRANCH  20  27
ENDBRANCH  15  24
ENDBRANCH   1  19
TORSDOF 5
