REMARK  Name = ZINCpk00000y6xKf.0
REMARK                            x       y       z     vdW  Elec       q    Type
REMARK                         _______ _______ _______ _____ _____    ______ ____
ROOT
ATOM      1  C   LIG    1        1.107  -0.456   0.785  0.00  0.00    +0.520 C 
ATOM      2  N   LIG    1        0.105   0.111   0.084  0.00  0.00    -0.730 N 
ATOM      3  H   LIG    1       -0.538  -0.448  -0.380  0.00  0.00    +0.400 HD
ATOM      4  O   LIG    1        1.912   0.242   1.365  0.00  0.00    -0.500 OA
ENDROOT
BRANCH   2   5
ATOM      5  C   LIG    1       -0.013   1.570   0.023  0.00  0.00    +0.270 C 
ATOM      6  C   LIG    1       -0.881   2.103   1.186  0.00  0.00    +0.060 C 
ATOM      7  C   LIG    1       -1.662   3.245   0.572  0.00  0.00    +0.520 C 
ATOM      8  N   LIG    1       -1.613   3.170  -0.769  0.00  0.00    -0.610 N 
ATOM      9  C   LIG    1       -2.256   4.125  -1.675  0.00  0.00    +0.310 C 
ATOM     10  O   LIG    1       -2.246   4.104   1.199  0.00  0.00    -0.510 OA
ATOM     11  C   LIG    1       -0.834   2.007  -1.210  0.00  0.00    +0.300 C 
BRANCH  11  12
ATOM     12  C   LIG    1        0.087   2.392  -2.339  0.00  0.00    +0.060 A 
ATOM     13  C   LIG    1        0.670   3.601  -2.517  0.00  0.00    -0.100 A 
ATOM     14  C   LIG    1        1.445   3.538  -3.679  0.00  0.00    +0.240 A 
ATOM     15  N   LIG    1        1.326   2.337  -4.186  0.00  0.00    -0.280 NA
ATOM     16  N   LIG    1        0.474   1.595  -3.358  0.00  0.00    -0.360 N 
ATOM     17  C   LIG    1        0.072   0.201  -3.561  0.00  0.00    +0.350 C 
ENDBRANCH  11  12
ENDBRANCH   2   5
BRANCH   1  18
ATOM     18  C   LIG    1        1.229  -1.957   0.847  0.00  0.00    +0.200 C 
BRANCH  18  19
ATOM     19  O   LIG    1        2.361  -2.310   1.643  0.00  0.00    -0.350 OA
BRANCH  19  24
ATOM     20  C   LIG    1        4.329  -3.117   5.674  0.00  0.00    +0.010 C 
ATOM     21  C   LIG    1        3.815  -3.820   4.416  0.00  0.00    -0.020 C 
ATOM     22  C   LIG    1        4.575  -3.299   3.194  0.00  0.00    +0.020 C 
ATOM     23  C   LIG    1        4.062  -4.003   1.936  0.00  0.00    +0.040 C 
ATOM     24  C   LIG    1        2.568  -3.719   1.767  0.00  0.00    +0.150 C 
ATOM     25  C   LIG    1        1.808  -4.240   2.989  0.00  0.00    -0.010 C 
ATOM     26  C   LIG    1        2.321  -3.537   4.247  0.00  0.00    +0.020 C 
ENDBRANCH  19  24
ENDBRANCH  18  19
ENDBRANCH   1  18
TORSDOF 5
