REMARK  Name = ZINCpe00000RabLk.0
REMARK                            x       y       z     vdW  Elec       q    Type
REMARK                         _______ _______ _______ _____ _____    ______ ____
ROOT
ATOM      1  C   LIG    1        2.657   5.385  -0.563  0.00  0.00    +0.160 C 
ATOM      2  C   LIG    1        4.034   5.696   0.081  0.00  0.00    +0.070 C 
ATOM      3  C   LIG    1        4.760   4.335   0.024  0.00  0.00    +0.230 C 
ATOM      4  N   LIG    1        3.728   3.295  -0.088  0.00  0.00    -0.610 N 
ATOM      5  C   LIG    1        3.955   1.970  -0.187  0.00  0.00    +0.590 C 
ATOM      6  O   LIG    1        3.030   1.207  -0.386  0.00  0.00    -0.530 OA
ATOM      7  C   LIG    1        2.402   3.939  -0.069  0.00  0.00    +0.250 C 
ENDROOT
BRANCH   5   8
ATOM      8  C   LIG    1        5.328   1.446  -0.053  0.00  0.00    -0.280 A 
ATOM      9  C   LIG    1        5.547   0.089   0.230  0.00  0.00    +0.170 A 
ATOM     10  C   LIG    1        6.837  -0.354   0.346  0.00  0.00    -0.120 A 
ATOM     11  C   LIG    1        7.887   0.547   0.182  0.00  0.00    +0.420 A 
ATOM     12  N   LIG    1        7.652   1.825  -0.085  0.00  0.00    -0.530 NA
ATOM     13  C   LIG    1        6.427   2.292  -0.205  0.00  0.00    +0.360 A 
BRANCH  11  14
ATOM     14  N   LIG    1        9.193   0.103   0.299  0.00  0.00    -0.610 N 
ATOM     15  C   LIG    1       10.301   1.060   0.238  0.00  0.00    +0.290 C 
ATOM     16  C   LIG    1        9.467  -1.324   0.484  0.00  0.00    +0.300 C 
ENDBRANCH  11  14
ENDBRANCH   5   8
BRANCH   1  18
ATOM     17  C   LIG    1        1.485   5.690  -2.632  0.00  0.00    +0.200 C 
ATOM     18  O   LIG    1        2.735   5.433  -1.989  0.00  0.00    -0.370 OA
ENDBRANCH   1  18
BRANCH   3  19
ATOM     19  C   LIG    1        5.575   4.124   1.301  0.00  0.00    +0.310 C 
BRANCH  19  20
ATOM     20  N   LIG    1        6.723   5.035   1.304  0.00  0.00    -0.370 N 
ATOM     21  C   LIG    1        7.038   5.909   2.283  0.00  0.00    +0.250 A 
ATOM     22  C   LIG    1        8.164   6.560   1.912  0.00  0.00    -0.170 A 
ATOM     23  C   LIG    1        8.547   6.072   0.651  0.00  0.00    +0.340 A 
ATOM     24  N   LIG    1        7.680   5.157   0.289  0.00  0.00    -0.340 NA
BRANCH  23  25
ATOM     25  N   LIG    1        9.659   6.491  -0.089  0.00  0.00    -0.850 N 
ATOM     26  H   LIG    1       10.246   7.178   0.264  0.00  0.00    +0.410 HD
ATOM     27  H   LIG    1        9.843   6.094  -0.954  0.00  0.00    +0.400 HD
ENDBRANCH  23  25
ENDBRANCH  19  20
ENDBRANCH   3  19
TORSDOF 6
