REMARK  Name = ZINCrD00000F5Lns.0
REMARK                            x       y       z     vdW  Elec       q    Type
REMARK                         _______ _______ _______ _____ _____    ______ ____
ROOT
ATOM      1  C   LIG    1        3.996  -1.617   1.546  0.00  0.00    +0.510 C 
ATOM      2  N   LIG    1        5.142  -0.947   1.784  0.00  0.00    -0.730 N 
ATOM      3  H   LIG    1        5.747  -0.746   1.052  0.00  0.00    +0.400 HD
ATOM      4  O   LIG    1        3.240  -1.867   2.460  0.00  0.00    -0.520 OA
ENDROOT
BRANCH   1   5
ATOM      5  C   LIG    1        3.655  -2.054   0.145  0.00  0.00    +0.110 C 
BRANCH   5  11
ATOM      6  C   LIG    1        1.147  -2.057   0.073  0.00  0.00    +0.160 A 
ATOM      7  C   LIG    1       -0.069  -2.728   0.073  0.00  0.00    +0.020 A 
ATOM      8  C   LIG    1       -0.096  -4.106   0.158  0.00  0.00    +0.030 A 
ATOM      9  C   LIG    1        1.086  -4.819   0.242  0.00  0.00    -0.020 A 
ATOM     10  C   LIG    1        2.299  -4.154   0.242  0.00  0.00    +0.030 A 
ATOM     11  C   LIG    1        2.333  -2.776   0.151  0.00  0.00    -0.100 A 
BRANCH   6  13
ATOM     12  C   LIG    1        0.151   0.001  -0.580  0.00  0.00    +0.540 C 
ATOM     13  N   LIG    1        1.178  -0.662  -0.013  0.00  0.00    -0.660 N 
ATOM     14  H   LIG    1        1.939  -0.172   0.337  0.00  0.00    +0.410 HD
ATOM     15  O   LIG    1       -0.754  -0.616  -1.107  0.00  0.00    -0.520 OA
BRANCH  12  17
ATOM     16  C   LIG    1       -0.885   2.127  -1.127  0.00  0.00    +0.160 C 
ATOM     17  C   LIG    1        0.126   1.472  -0.562  0.00  0.00    -0.090 C 
ENDBRANCH  12  17
ENDBRANCH   6  13
ENDBRANCH   5  11
ENDBRANCH   1   5
BRANCH   2  18
ATOM     18  C   LIG    1        5.473  -0.522   3.146  0.00  0.00    +0.330 C 
BRANCH  18  19
ATOM     19  C   LIG    1        6.795   0.201   3.139  0.00  0.00    -0.150 A 
ATOM     20  C   LIG    1        7.969  -0.505   3.327  0.00  0.00    +0.070 A 
ATOM     21  C   LIG    1        9.183   0.154   3.316  0.00  0.00    -0.080 A 
ATOM     22  C   LIG    1        9.223   1.528   3.127  0.00  0.00    +0.140 A 
ATOM     23  C   LIG    1        8.043   2.235   2.944  0.00  0.00    -0.010 A 
ATOM     24  C   LIG    1        6.832   1.570   2.950  0.00  0.00    +0.070 A 
BRANCH  22  25
ATOM     25  O   LIG    1       10.415   2.180   3.122  0.00  0.00    -0.300 OA
BRANCH  25  26
ATOM     26  C   LIG    1       11.588   1.388   3.316  0.00  0.00    +0.200 C 
BRANCH  26  27
ATOM     27  C   LIG    1       12.824   2.289   3.279  0.00  0.00    +0.400 C 
ATOM     28  F   LIG    1       12.734   3.246   4.296  0.00  0.00    -0.200 F 
ATOM     29  F   LIG    1       12.896   2.932   2.039  0.00  0.00    -0.200 F 
ENDBRANCH  26  27
ENDBRANCH  25  26
ENDBRANCH  22  25
ENDBRANCH  18  19
ENDBRANCH   2  18
TORSDOF 9
