REMARK  Name = ZINCkj00000a7RYH.0
REMARK                            x       y       z     vdW  Elec       q    Type
REMARK                         _______ _______ _______ _____ _____    ______ ____
ROOT
ATOM      1  O   LIG    1        0.019  -0.004  -0.000  0.00  0.00    -0.500 OA
ATOM      2  C   LIG    1       -0.014   1.212   0.009  0.00  0.00    +0.580 C 
ATOM      3  N   LIG    1       -1.200   1.854   0.023  0.00  0.00    -0.720 N 
ATOM      4  H   LIG    1       -1.228   2.821  -0.042  0.00  0.00    +0.400 HD
ENDROOT
BRANCH   3   5
ATOM      5  C   LIG    1       -2.445   1.090   0.136  0.00  0.00    +0.170 C 
ATOM      6  C   LIG    1       -2.508   0.296   1.455  0.00  0.00    +0.060 C 
ATOM      7  C   LIG    1       -3.394   1.193   2.379  0.00  0.00    +0.040 C 
ATOM      8  C   LIG    1       -4.459   1.757   1.407  0.00  0.00    +0.060 C 
ATOM      9  C   LIG    1       -2.627   0.115  -1.048  0.00  0.00    +0.090 C 
ATOM     10  C   LIG    1       -3.592   0.884  -1.985  0.00  0.00    +0.270 C 
ATOM     11  N   LIG    1       -4.520   1.555  -1.040  0.00  0.00    -0.510 N 
ATOM     12  H   LIG    1       -5.220   0.903  -0.719  0.00  0.00    +0.430 HD
ATOM     13  H   LIG    1       -4.960   2.345  -1.487  0.00  0.00    +0.430 HD
ATOM     14  C   LIG    1       -3.688   2.010   0.095  0.00  0.00    +0.170 C 
ENDBRANCH   3   5
BRANCH   2  15
ATOM     15  C   LIG    1        1.240   1.983  -0.002  0.00  0.00    -0.150 A 
ATOM     16  C   LIG    1        1.225   3.369  -0.101  0.00  0.00    +0.120 A 
ATOM     17  C   LIG    1        2.437   4.065  -0.108  0.00  0.00    -0.040 A 
ATOM     18  C   LIG    1        3.619   3.416  -0.020  0.00  0.00    +0.350 A 
ATOM     19  N   LIG    1        3.687   2.059   0.079  0.00  0.00    -0.290 N 
ATOM     20  N   LIG    1        4.764   1.171   0.181  0.00  0.00    -0.300 NA
ATOM     21  C   LIG    1        4.299  -0.056   0.252  0.00  0.00    +0.290 A 
ATOM     22  C   LIG    1        2.912  -0.016   0.200  0.00  0.00    -0.080 A 
ATOM     23  C   LIG    1        2.537   1.311   0.097  0.00  0.00    +0.120 A 
ENDBRANCH   2  15
TORSDOF 2
