REMARK  Name = ZINCrH000004sQYn.0
REMARK                            x       y       z     vdW  Elec       q    Type
REMARK                         _______ _______ _______ _____ _____    ______ ____
ROOT
ATOM      1  C   LIG    1        3.632  -2.019   0.056  0.00  0.00    +0.610 C 
ATOM      2  N   LIG    1        3.621  -0.674  -0.037  0.00  0.00    -0.660 N 
ATOM      3  H   LIG    1        4.456  -0.186  -0.110  0.00  0.00    +0.420 HD
ATOM      4  O   LIG    1        2.584  -2.636   0.063  0.00  0.00    -0.500 OA
ENDROOT
BRANCH   1   7
ATOM      5  C   LIG    1        3.979  -5.123   0.283  0.00  0.00    +0.230 C 
ATOM      6  C   LIG    1        5.076  -4.090   0.249  0.00  0.00    +0.060 A 
ATOM      7  C   LIG    1        4.914  -2.741   0.150  0.00  0.00    -0.080 A 
ATOM      8  N   LIG    1        6.153  -2.185   0.148  0.00  0.00    -0.450 NA
ATOM      9  C   LIG    1        7.037  -3.145   0.251  0.00  0.00    +0.250 A 
ATOM     10  O   LIG    1        6.396  -4.326   0.311  0.00  0.00    -0.190 OA
BRANCH   9  11
ATOM     11  C   LIG    1        8.503  -2.961   0.289  0.00  0.00    -0.030 A 
ATOM     12  C   LIG    1        9.346  -4.068   0.401  0.00  0.00    +0.040 A 
ATOM     13  C   LIG    1       10.714  -3.889   0.430  0.00  0.00    +0.010 A 
ATOM     14  C   LIG    1       11.250  -2.616   0.360  0.00  0.00    +0.030 A 
ATOM     15  C   LIG    1       10.420  -1.514   0.255  0.00  0.00    +0.010 A 
ATOM     16  C   LIG    1        9.051  -1.679   0.219  0.00  0.00    +0.070 A 
ENDBRANCH   9  11
ENDBRANCH   1   7
BRANCH   2  17
ATOM     17  C   LIG    1        2.405   0.018  -0.029  0.00  0.00    +0.140 A 
ATOM     18  C   LIG    1        2.318   1.262   0.582  0.00  0.00    +0.020 A 
ATOM     19  C   LIG    1        1.118   1.950   0.593  0.00  0.00    +0.030 A 
ATOM     20  C   LIG    1       -0.000   1.404  -0.003  0.00  0.00    +0.030 A 
ATOM     21  C   LIG    1        0.077   0.154  -0.620  0.00  0.00    -0.120 A 
ATOM     22  C   LIG    1        1.287  -0.539  -0.631  0.00  0.00    +0.100 A 
BRANCH  21  23
ATOM     23  C   LIG    1       -1.121  -0.433  -1.258  0.00  0.00    +0.560 C 
ATOM     24  N   LIG    1       -2.289   0.239  -1.246  0.00  0.00    -0.700 N 
ATOM     25  H   LIG    1       -2.344   1.108  -0.817  0.00  0.00    +0.400 HD
ATOM     26  O   LIG    1       -1.051  -1.521  -1.795  0.00  0.00    -0.530 OA
BRANCH  24  27
ATOM     27  C   LIG    1       -3.475  -0.343  -1.878  0.00  0.00    +0.220 C 
ATOM     28  C   LIG    1       -4.343   0.581  -2.736  0.00  0.00    +0.010 C 
ATOM     29  C   LIG    1       -4.844   0.114  -1.368  0.00  0.00    +0.020 C 
ENDBRANCH  24  27
ENDBRANCH  21  23
ENDBRANCH   2  17
TORSDOF 5
