REMARK  Name = ZINCkj000005gmMF.0
REMARK                            x       y       z     vdW  Elec       q    Type
REMARK                         _______ _______ _______ _____ _____    ______ ____
ROOT
ATOM      1  N   LIG    1        2.962   0.914  -1.413  0.00  0.00    -0.690 NA
ATOM      2  H   LIG    1        2.458   1.299  -2.147  0.00  0.00    +0.430 HD
ENDROOT
BRANCH   1   3
ATOM      3  C   LIG    1        2.535   1.146  -0.031  0.00  0.00    +0.350 C 
BRANCH   3   7
ATOM      4  C   LIG    1       -0.978   3.581  -0.015  0.00  0.00    +0.130 A 
ATOM      5  C   LIG    1       -1.089   2.201  -0.069  0.00  0.00    -0.040 A 
ATOM      6  C   LIG    1        0.048   1.415  -0.068  0.00  0.00    +0.080 A 
ATOM      7  C   LIG    1        1.298   2.005  -0.025  0.00  0.00    -0.150 A 
ATOM      8  C   LIG    1        1.414   3.382   0.024  0.00  0.00    +0.060 A 
ATOM      9  C   LIG    1        0.279   4.173   0.029  0.00  0.00    +0.070 A 
ATOM     10  F   LIG    1        0.392   5.518   0.076  0.00  0.00    -0.120 F 
BRANCH   4  11
ATOM     11  O   LIG    1       -2.095   4.356  -0.010  0.00  0.00    -0.300 OA
BRANCH  11  13
ATOM     12  C   LIG    1       -4.486   4.707  -0.043  0.00  0.00    +0.070 C 
ATOM     13  C   LIG    1       -3.353   3.679  -0.056  0.00  0.00    +0.190 C 
ENDBRANCH  11  13
ENDBRANCH   4  11
ENDBRANCH   3   7
ENDBRANCH   1   3
BRANCH   1  14
ATOM     14  C   LIG    1        4.077   0.152  -1.670  0.00  0.00    +0.740 C 
BRANCH  14  15
ATOM     15  N   LIG    1        4.417  -0.155  -2.966  0.00  0.00    -0.620 NA
ATOM     16  C   LIG    1        3.381  -0.420  -3.978  0.00  0.00    +0.290 C 
ATOM     17  C   LIG    1        3.682   0.449  -5.210  0.00  0.00    +0.230 C 
ATOM     18  O   LIG    1        5.036   0.233  -5.616  0.00  0.00    -0.360 OA
ATOM     19  C   LIG    1        6.008   0.620  -4.641  0.00  0.00    +0.250 C 
ATOM     20  C   LIG    1        5.826  -0.235  -3.382  0.00  0.00    +0.280 C 
ENDBRANCH  14  15
BRANCH  14  21
ATOM     21  N   LIG    1        4.813  -0.280  -0.684  0.00  0.00    -0.760 NA
ATOM     22  H   LIG    1        4.535  -0.124   0.233  0.00  0.00    +0.440 HD
ATOM     23  H   LIG    1        5.637  -0.756  -0.867  0.00  0.00    +0.440 HD
ENDBRANCH  14  21
ENDBRANCH   1  14
TORSDOF 7
