REMARK  Name = ZINCpe00000FU6yh.0
REMARK                            x       y       z     vdW  Elec       q    Type
REMARK                         _______ _______ _______ _____ _____    ______ ____
ROOT
ATOM      1  C   LIG    1        3.274   0.385   0.452  0.00  0.00    +0.600 C 
ATOM      2  N   LIG    1        4.309   1.237   0.318  0.00  0.00    -0.640 N 
ATOM      3  C   LIG    1        4.469   2.664  -0.009  0.00  0.00    +0.360 C 
ATOM      4  C   LIG    1        5.779   2.628   0.769  0.00  0.00    -0.580 C 
ATOM      5  C   LIG    1        5.718   2.995   2.252  0.00  0.00    +0.040 C 
ATOM      6  C   LIG    1        6.279   4.420   2.427  0.00  0.00    +0.120 C 
ATOM      7  C   LIG    1        7.591   4.492   1.603  0.00  0.00    -0.290 C 
ATOM      8  S   LIG    1        7.146   3.600   0.062  0.00  0.00    +2.410 S 
ATOM      9  O   LIG    1        6.627   4.524  -0.885  0.00  0.00    -0.910 OA
ATOM     10  O   LIG    1        8.207   2.728  -0.302  0.00  0.00    -0.920 OA
ATOM     11  C   LIG    1        5.776   1.145   0.429  0.00  0.00    +0.360 C 
ATOM     12  O   LIG    1        3.469  -0.755   0.825  0.00  0.00    -0.520 OA
ENDROOT
BRANCH   1  17
ATOM     13  C   LIG    1       -2.073   2.152  -0.743  0.00  0.00    +0.110 C 
ATOM     14  C   LIG    1       -0.673   1.688  -0.430  0.00  0.00    -0.090 A 
ATOM     15  C   LIG    1        0.402   2.516  -0.697  0.00  0.00    +0.040 A 
ATOM     16  C   LIG    1        1.686   2.099  -0.412  0.00  0.00    +0.040 A 
ATOM     17  C   LIG    1        1.900   0.837   0.145  0.00  0.00    -0.110 A 
ATOM     18  C   LIG    1        0.812   0.005   0.413  0.00  0.00    +0.060 A 
ATOM     19  C   LIG    1       -0.469   0.432   0.119  0.00  0.00    +0.090 A 
ATOM     20  F   LIG    1       -1.523  -0.373   0.372  0.00  0.00    -0.130 F 
ENDBRANCH   1  17
BRANCH   5  21
ATOM     21  C   LIG    1        4.288   2.951   2.727  0.00  0.00    +0.530 C 
ATOM     22  N   LIG    1        3.859   1.918   3.479  0.00  0.00    -0.610 N 
ATOM     23  C   LIG    1        4.748   0.783   3.740  0.00  0.00    +0.280 C 
ATOM     24  C   LIG    1        2.504   1.930   4.036  0.00  0.00    +0.290 C 
ATOM     25  O   LIG    1        3.523   3.845   2.432  0.00  0.00    -0.530 OA
ENDBRANCH   5  21
TORSDOF 2
