REMARK  Name = ZINCpe00000gN3hv.0
REMARK                            x       y       z     vdW  Elec       q    Type
REMARK                         _______ _______ _______ _____ _____    ______ ____
ROOT
ATOM      1  N   LIG    1       -4.046   4.931   1.722  0.00  0.00    -0.730 N 
ATOM      2  H   LIG    1       -4.497   5.404   1.004  0.00  0.00    +0.400 HD
ATOM      3  C   LIG    1       -2.940   4.207   1.461  0.00  0.00    +0.540 C 
ATOM      4  O   LIG    1       -2.377   3.616   2.358  0.00  0.00    -0.530 OA
ENDROOT
BRANCH   1   9
ATOM      5  N   LIG    1       -5.920   6.356   4.621  0.00  0.00    -0.460 N 
ATOM      6  C   LIG    1       -6.829   5.234   4.884  0.00  0.00    +0.180 C 
ATOM      7  C   LIG    1       -6.062   3.915   4.764  0.00  0.00    +0.050 C 
ATOM      8  C   LIG    1       -5.474   3.799   3.356  0.00  0.00    +0.010 C 
ATOM      9  C   LIG    1       -4.568   5.005   3.089  0.00  0.00    +0.250 C 
ATOM     10  C   LIG    1       -5.378   6.292   3.257  0.00  0.00    +0.180 C 
BRANCH   5  16
ATOM     11  C   LIG    1       -8.495   7.264   3.289  0.00  0.00    +0.340 C 
ATOM     12  N   LIG    1       -7.697   8.003   4.271  0.00  0.00    -0.390 N 
ATOM     13  N   LIG    1       -7.987   9.276   4.778  0.00  0.00    -0.290 NA
ATOM     14  C   LIG    1       -7.046   9.607   5.626  0.00  0.00    +0.240 A 
ATOM     15  C   LIG    1       -6.127   8.556   5.694  0.00  0.00    -0.090 A 
ATOM     16  C   LIG    1       -6.552   7.575   4.850  0.00  0.00    +0.240 A 
ENDBRANCH   5  16
ENDBRANCH   1   9
BRANCH   3  17
ATOM     17  C   LIG    1       -2.403   4.131   0.055  0.00  0.00    +0.120 C 
BRANCH  17  18
ATOM     18  C   LIG    1       -1.169   3.265   0.035  0.00  0.00    -0.010 A 
ATOM     19  C   LIG    1       -1.254   1.952  -0.379  0.00  0.00    +0.010 A 
ATOM     20  C   LIG    1       -0.122   1.156  -0.399  0.00  0.00    +0.040 A 
ATOM     21  C   LIG    1        1.100   1.670  -0.004  0.00  0.00    +0.000 A 
ATOM     22  C   LIG    1        1.198   2.982   0.412  0.00  0.00    +0.040 A 
ATOM     23  C   LIG    1        0.060   3.789   0.441  0.00  0.00    -0.130 A 
BRANCH  23  24
ATOM     24  C   LIG    1        0.156   5.193   0.892  0.00  0.00    +0.570 C 
ATOM     25  O   LIG    1       -0.851   5.863   1.015  0.00  0.00    -0.540 OA
ATOM     26  N   LIG    1        1.361   5.732   1.167  0.00  0.00    -0.850 N 
ATOM     27  H   LIG    1        1.424   6.653   1.462  0.00  0.00    +0.410 HD
ATOM     28  H   LIG    1        2.164   5.198   1.068  0.00  0.00    +0.400 HD
ENDBRANCH  23  24
ENDBRANCH  17  18
ENDBRANCH   3  17
TORSDOF 5
