REMARK  Name = ZINCrD000000D0gA.0
REMARK                            x       y       z     vdW  Elec       q    Type
REMARK                         _______ _______ _______ _____ _____    ______ ____
ROOT
ATOM      1  C   LIG    1       -1.495   0.301  -0.072  0.00  0.00    +0.280 C 
ENDROOT
BRANCH   1   2
ATOM      2  N   LIG    1       -1.937   0.888   1.196  0.00  0.00    -1.100 NA
ATOM      3  H   LIG    1       -1.372   0.827   1.982  0.00  0.00    +0.430 HD
BRANCH   2   5
ATOM      4  O   LIG    1       -3.551   2.077   2.635  0.00  0.00    -0.960 OA
ATOM      5  S   LIG    1       -3.402   1.656   1.287  0.00  0.00    +2.690 S 
ATOM      6  O   LIG    1       -3.456   2.549   0.183  0.00  0.00    -0.960 OA
BRANCH   5   7
ATOM      7  C   LIG    1       -4.646   0.441   1.005  0.00  0.00    -0.600 C 
ATOM      8  C   LIG    1       -5.497   0.126   1.972  0.00  0.00    +0.210 C 
BRANCH   8   9
ATOM      9  C   LIG    1       -6.541  -0.893   1.735  0.00  0.00    -0.100 A 
ATOM     10  C   LIG    1       -6.637  -1.522   0.493  0.00  0.00    +0.040 A 
ATOM     11  C   LIG    1       -7.609  -2.478   0.281  0.00  0.00    +0.000 A 
ATOM     12  C   LIG    1       -8.496  -2.803   1.292  0.00  0.00    +0.030 A 
ATOM     13  C   LIG    1       -8.410  -2.179   2.524  0.00  0.00    +0.000 A 
ATOM     14  C   LIG    1       -7.438  -1.226   2.751  0.00  0.00    +0.040 A 
ENDBRANCH   8   9
ENDBRANCH   5   7
ENDBRANCH   2   5
ENDBRANCH   1   2
BRANCH   1  15
ATOM     15  C   LIG    1        0.002  -0.004   0.002  0.00  0.00    +0.220 C 
BRANCH  15  16
ATOM     16  C   LIG    1        0.482  -0.493  -1.340  0.00  0.00    -0.110 A 
ATOM     17  C   LIG    1       -0.155  -0.078  -2.495  0.00  0.00    +0.040 A 
ATOM     18  C   LIG    1        0.285  -0.526  -3.726  0.00  0.00    +0.020 A 
ATOM     19  C   LIG    1        1.362  -1.389  -3.804  0.00  0.00    +0.030 A 
ATOM     20  C   LIG    1        2.000  -1.805  -2.650  0.00  0.00    +0.030 A 
ATOM     21  C   LIG    1        1.564  -1.352  -1.418  0.00  0.00    -0.030 A 
ATOM     22 CL   LIG    1        2.369  -1.867   0.031  0.00  0.00    -0.060 Cl
ENDBRANCH  15  16
BRANCH  15  23
ATOM     23  N   LIG    1        0.733   1.216   0.369  0.00  0.00    -0.510 NA
ATOM     24  C   LIG    1        0.635   2.228  -0.693  0.00  0.00    +0.150 C 
ATOM     25  C   LIG    1        1.359   3.501  -0.245  0.00  0.00    +0.220 C 
ATOM     26  O   LIG    1        2.715   3.184   0.078  0.00  0.00    -0.380 OA
ATOM     27  C   LIG    1        2.847   2.202   1.109  0.00  0.00    +0.220 C 
ATOM     28  C   LIG    1        2.139   0.916   0.675  0.00  0.00    +0.150 C 
ENDBRANCH  15  23
ENDBRANCH   1  15
TORSDOF 7
