REMARK  Name = ZINCpk00000KfL5n.0
REMARK                            x       y       z     vdW  Elec       q    Type
REMARK                         _______ _______ _______ _____ _____    ______ ____
ROOT
ATOM      1  N   LIG    1        1.170   4.009   2.759  0.00  0.00    -0.510 N 
ATOM      2  H   LIG    1        1.999   4.513   2.759  0.00  0.00    +0.430 HD
ATOM      3  C   LIG    1        1.151   2.743   2.297  0.00  0.00    +0.520 C 
ATOM      4  O   LIG    1        0.114   2.113   2.298  0.00  0.00    -0.490 OA
ENDROOT
BRANCH   1   9
ATOM      5  C   LIG    1       -1.642   5.451   4.587  0.00  0.00    +0.130 C 
ATOM      6  N   LIG    1       -2.019   5.558   3.167  0.00  0.00    -0.710 N 
ATOM      7  H   LIG    1       -2.839   5.933   2.812  0.00  0.00    +0.440 HD
ATOM      8  C   LIG    1       -1.000   5.038   2.458  0.00  0.00    +0.710 C 
ATOM      9  N   LIG    1       -0.007   4.597   3.239  0.00  0.00    -0.380 N 
ATOM     10  O   LIG    1       -0.985   4.973   1.245  0.00  0.00    -0.520 OA
ATOM     11  C   LIG    1       -1.553   6.838   5.226  0.00  0.00    +0.100 C 
ATOM     12  C   LIG    1       -0.277   4.794   4.545  0.00  0.00    +0.530 C 
ATOM     13  O   LIG    1        0.426   4.505   5.490  0.00  0.00    -0.450 OA
BRANCH   5  15
ATOM     14  C   LIG    1       -4.034   5.196   5.264  0.00  0.00    +0.050 C 
ATOM     15  C   LIG    1       -2.639   4.571   5.344  0.00  0.00    +0.050 C 
ENDBRANCH   5  15
ENDBRANCH   1   9
BRANCH   3  16
ATOM     16  C   LIG    1        2.417   2.110   1.780  0.00  0.00    +0.250 C 
BRANCH  16  17
ATOM     17  N   LIG    1        2.164   0.699   1.460  0.00  0.00    -0.490 NA
BRANCH  17  18
ATOM     18  C   LIG    1        3.242   0.146   0.630  0.00  0.00    +0.090 C 
ATOM     19  C   LIG    1        3.413   0.718  -0.779  0.00  0.00    +0.030 C 
ATOM     20  C   LIG    1        2.839  -0.688  -0.589  0.00  0.00    +0.050 C 
ENDBRANCH  17  18
BRANCH  17  21
ATOM     21  C   LIG    1        1.981  -0.094   2.683  0.00  0.00    +0.230 C 
BRANCH  21  22
ATOM     22  C   LIG    1        1.484  -1.470   2.320  0.00  0.00    -0.070 A 
ATOM     23  C   LIG    1        0.127  -1.716   2.241  0.00  0.00    +0.030 A 
ATOM     24  C   LIG    1       -0.329  -2.977   1.903  0.00  0.00    +0.000 A 
ATOM     25  C   LIG    1        0.573  -3.994   1.655  0.00  0.00    +0.000 A 
ATOM     26  C   LIG    1        1.931  -3.749   1.739  0.00  0.00    +0.000 A 
ATOM     27  C   LIG    1        2.387  -2.487   2.071  0.00  0.00    +0.010 A 
ENDBRANCH  21  22
ENDBRANCH  17  21
ENDBRANCH  16  17
ENDBRANCH   3  16
TORSDOF 7
