REMARK  Name = ZINCkj00000y7AN2.1
REMARK                            x       y       z     vdW  Elec       q    Type
REMARK                         _______ _______ _______ _____ _____    ______ ____
ROOT
ATOM      1  C   LIG    1       -4.001   2.445  -0.885  0.00  0.00    +0.320 C 
ATOM      2  N   LIG    1       -2.934   3.324  -1.383  0.00  0.00    -0.380 N 
ATOM      3  C   LIG    1       -2.815   4.495  -0.505  0.00  0.00    +0.280 C 
ATOM      4  C   LIG    1       -2.495   4.036   0.919  0.00  0.00    +0.220 C 
ATOM      5  N   LIG    1       -1.236   3.276   0.914  0.00  0.00    -0.530 NA
ATOM      6  C   LIG    1       -1.332   2.114   0.020  0.00  0.00    +0.190 C 
ATOM      7  C   LIG    1       -1.662   2.589  -1.397  0.00  0.00    +0.280 C 
ATOM      8  H   LIG    1       -3.157   3.627  -2.319  0.00  0.00    +0.430 HD
ENDROOT
BRANCH   6   9
ATOM      9  C   LIG    1       -0.017   1.378   0.010  0.00  0.00    -0.110 A 
ATOM     10  C   LIG    1        1.171   2.086   0.002  0.00  0.00    +0.040 A 
ATOM     11  C   LIG    1        2.377   1.411  -0.014  0.00  0.00    +0.010 A 
ATOM     12  C   LIG    1        2.396   0.029  -0.021  0.00  0.00    +0.030 A 
ATOM     13  C   LIG    1        1.208  -0.679  -0.014  0.00  0.00    +0.010 A 
ATOM     14  C   LIG    1        0.002  -0.004   0.002  0.00  0.00    +0.010 A 
ENDBRANCH   6   9
BRANCH   5  15
ATOM     15  C   LIG    1       -0.865   2.865   2.274  0.00  0.00    +0.190 C 
BRANCH  15  16
ATOM     16  C   LIG    1       -0.533   4.104   3.109  0.00  0.00    +0.270 C 
BRANCH  16  17
ATOM     17  N   LIG    1       -0.162   3.693   4.465  0.00  0.00    -0.730 N 
ATOM     18  H   LIG    1       -0.157   2.753   4.704  0.00  0.00    +0.400 HD
ATOM     19  C   LIG    1        0.173   4.623   5.383  0.00  0.00    +0.510 C 
ATOM     20  O   LIG    1        0.167   5.798   5.085  0.00  0.00    -0.510 OA
BRANCH  19  21
ATOM     21  C   LIG    1        0.555   4.201   6.778  0.00  0.00    +0.180 C 
ATOM     22 CL   LIG    1        0.946   5.660   7.761  0.00  0.00    -0.120 Cl
ENDBRANCH  19  21
ENDBRANCH  16  17
ENDBRANCH  15  16
ENDBRANCH   5  15
TORSDOF 5
