REMARK  Name = ZINCkj00000y7AN2.0
REMARK                            x       y       z     vdW  Elec       q    Type
REMARK                         _______ _______ _______ _____ _____    ______ ____
ROOT
ATOM      1  C   LIG    1        0.479   5.516  -1.023  0.00  0.00    +0.320 C 
ATOM      2  N   LIG    1        0.525   4.048  -1.080  0.00  0.00    -0.390 N 
ATOM      3  C   LIG    1       -0.843   3.515  -1.043  0.00  0.00    +0.280 C 
ATOM      4  C   LIG    1       -0.797   1.987  -1.121  0.00  0.00    +0.210 C 
ATOM      5  N   LIG    1       -0.018   1.465   0.010  0.00  0.00    -0.530 NA
ATOM      6  C   LIG    1        1.347   2.010   0.000  0.00  0.00    +0.180 C 
ATOM      7  C   LIG    1        1.283   3.538   0.069  0.00  0.00    +0.280 C 
ATOM      8  H   LIG    1        0.975   3.759  -1.936  0.00  0.00    +0.420 HD
ENDROOT
BRANCH   6   9
ATOM      9  C   LIG    1        2.107   1.484   1.190  0.00  0.00    -0.110 A 
ATOM     10  C   LIG    1        1.481   1.376   2.417  0.00  0.00    +0.040 A 
ATOM     11  C   LIG    1        2.177   0.889   3.508  0.00  0.00    +0.010 A 
ATOM     12  C   LIG    1        3.503   0.520   3.373  0.00  0.00    +0.030 A 
ATOM     13  C   LIG    1        4.130   0.633   2.147  0.00  0.00    +0.010 A 
ATOM     14  C   LIG    1        3.433   1.116   1.056  0.00  0.00    +0.010 A 
ENDBRANCH   6   9
BRANCH   5  15
ATOM     15  C   LIG    1        0.002  -0.004   0.002  0.00  0.00    +0.190 C 
BRANCH  15  16
ATOM     16  C   LIG    1       -1.409  -0.535   0.263  0.00  0.00    +0.270 C 
BRANCH  16  17
ATOM     17  N   LIG    1       -1.389  -2.000   0.255  0.00  0.00    -0.730 N 
ATOM     18  H   LIG    1       -0.557  -2.472   0.099  0.00  0.00    +0.400 HD
ATOM     19  C   LIG    1       -2.527  -2.690   0.465  0.00  0.00    +0.510 C 
ATOM     20  O   LIG    1       -3.568  -2.099   0.660  0.00  0.00    -0.510 OA
BRANCH  19  21
ATOM     21  C   LIG    1       -2.507  -4.197   0.457  0.00  0.00    +0.180 C 
ATOM     22 CL   LIG    1       -4.170  -4.822   0.764  0.00  0.00    -0.120 Cl
ENDBRANCH  19  21
ENDBRANCH  16  17
ENDBRANCH  15  16
ENDBRANCH   5  15
TORSDOF 5
