REMARK  Name = ZINCrD000000Bg8X.0
REMARK                            x       y       z     vdW  Elec       q    Type
REMARK                         _______ _______ _______ _____ _____    ______ ____
ROOT
ATOM      1  O   LIG    1       -4.413   0.189   3.672  0.00  0.00    -0.510 OA
ATOM      2  C   LIG    1       -4.893  -0.195   2.624  0.00  0.00    +0.590 C 
ATOM      3  N   LIG    1       -4.268   0.069   1.460  0.00  0.00    -0.700 N 
ATOM      4  H   LIG    1       -4.651  -0.238   0.623  0.00  0.00    +0.420 HD
ENDROOT
BRANCH   2   5
ATOM      5  C   LIG    1       -6.162  -0.950   2.626  0.00  0.00    +0.050 C 
ATOM      6  N   LIG    1       -6.772  -1.405   1.584  0.00  0.00    -0.240 NA
ATOM      7  O   LIG    1       -7.969  -2.086   1.902  0.00  0.00    -0.170 OA
ATOM      8  C   LIG    1       -7.930  -2.408   3.307  0.00  0.00    +0.190 C 
ATOM      9  C   LIG    1       -6.974  -1.319   3.852  0.00  0.00    +0.110 C 
BRANCH   8  10
ATOM     10  C   LIG    1       -9.297  -2.284   3.928  0.00  0.00    -0.100 A 
ATOM     11  C   LIG    1      -10.223  -1.409   3.392  0.00  0.00    +0.030 A 
ATOM     12  C   LIG    1      -11.479  -1.299   3.958  0.00  0.00    +0.010 A 
ATOM     13  C   LIG    1      -11.807  -2.058   5.066  0.00  0.00    +0.020 A 
ATOM     14  C   LIG    1      -10.879  -2.930   5.605  0.00  0.00    +0.010 A 
ATOM     15  C   LIG    1       -9.624  -3.043   5.036  0.00  0.00    +0.030 A 
ENDBRANCH   8  10
ENDBRANCH   2   5
BRANCH   3  16
ATOM     16  C   LIG    1       -3.009   0.819   1.458  0.00  0.00    +0.260 C 
BRANCH  16  17
ATOM     17  C   LIG    1       -2.514   0.979   0.019  0.00  0.00    +0.250 C 
BRANCH  17  18
ATOM     18  C   LIG    1       -1.219   1.750   0.017  0.00  0.00    -0.070 A 
ATOM     19  C   LIG    1       -0.013   1.076   0.008  0.00  0.00    +0.030 A 
ATOM     20  C   LIG    1        1.175   1.783   0.000  0.00  0.00    +0.060 A 
ATOM     21  C   LIG    1        1.157   3.165   0.008  0.00  0.00    +0.030 A 
ATOM     22  C   LIG    1       -0.050   3.840   0.023  0.00  0.00    +0.070 A 
ATOM     23  C   LIG    1       -1.238   3.133   0.030  0.00  0.00    -0.170 A 
BRANCH  23  24
ATOM     24  C   LIG    1       -2.553   3.869   0.047  0.00  0.00    +0.500 C 
ATOM     25  F   LIG    1       -3.270   3.514   1.195  0.00  0.00    -0.170 F 
ATOM     26  F   LIG    1       -3.293   3.527  -1.090  0.00  0.00    -0.170 F 
ATOM     27  F   LIG    1       -2.316   5.247   0.053  0.00  0.00    -0.170 F 
ENDBRANCH  23  24
ENDBRANCH  17  18
BRANCH  17  28
ATOM     28  O   LIG    1       -2.301  -0.310  -0.558  0.00  0.00    -0.540 OA
ATOM     29  H   LIG    1       -1.648  -0.848  -0.090  0.00  0.00    +0.380 HD
ENDBRANCH  17  28
ENDBRANCH  16  17
ENDBRANCH   3  16
TORSDOF 7
