REMARK  Name = ZINCvU0000000AbR.0
REMARK                            x       y       z     vdW  Elec       q    Type
REMARK                         _______ _______ _______ _____ _____    ______ ____
ROOT
ATOM      1  C   LIG    1        4.391   4.980  -1.365  0.00  0.00    +0.230 C 
ENDROOT
BRANCH   1   2
ATOM      2  C   LIG    1        5.340   4.183  -0.509  0.00  0.00    -0.110 A 
ATOM      3  C   LIG    1        5.328   2.801  -0.566  0.00  0.00    +0.000 A 
ATOM      4  C   LIG    1        6.202   2.070   0.217  0.00  0.00    +0.000 A 
ATOM      5  C   LIG    1        7.082   2.719   1.063  0.00  0.00    +0.000 A 
ATOM      6  C   LIG    1        7.090   4.100   1.123  0.00  0.00    +0.000 A 
ATOM      7  C   LIG    1        6.220   4.832   0.338  0.00  0.00    +0.020 A 
ENDBRANCH   1   2
BRANCH   1   9
ATOM      8  C   LIG    1        2.906   4.646   0.517  0.00  0.00    +0.200 C 
ATOM      9  N   LIG    1        3.009   4.711  -0.947  0.00  0.00    -0.520 NA
BRANCH   9  10
ATOM     10  C   LIG    1        2.502   3.478  -1.565  0.00  0.00    +0.220 C 
BRANCH  10  11
ATOM     11  C   LIG    1        0.996   3.490  -1.548  0.00  0.00    -0.080 A 
ATOM     12  C   LIG    1        0.296   4.036  -2.608  0.00  0.00    +0.020 A 
ATOM     13  C   LIG    1       -1.086   4.047  -2.592  0.00  0.00    +0.010 A 
ATOM     14  C   LIG    1       -1.769   3.518  -1.513  0.00  0.00    -0.070 A 
ATOM     15  C   LIG    1       -1.070   2.968  -0.455  0.00  0.00    +0.000 A 
ATOM     16  C   LIG    1        0.313   2.957  -0.471  0.00  0.00    +0.010 A 
BRANCH  14  17
ATOM     17  C   LIG    1       -3.275   3.536  -1.492  0.00  0.00    -0.030 C 
ATOM     18  C   LIG    1       -3.769   4.982  -1.569  0.00  0.00    +0.040 C 
ATOM     19  C   LIG    1       -3.776   2.895  -0.196  0.00  0.00    +0.040 C 
ATOM     20  C   LIG    1       -3.811   2.750  -2.690  0.00  0.00    +0.040 C 
ENDBRANCH  14  17
ENDBRANCH  10  11
ENDBRANCH   9  10
ENDBRANCH   1   9
BRANCH   1  21
ATOM     21  C   LIG    1        4.567   4.579  -2.832  0.00  0.00    +0.280 C 
BRANCH  21  22
ATOM     22  N   LIG    1        3.631   5.341  -3.662  0.00  0.00    -1.110 NA
ATOM     23  H   LIG    1        2.831   5.721  -3.267  0.00  0.00    +0.430 HD
BRANCH  22  24
ATOM     24  S   LIG    1        3.940   5.554  -5.275  0.00  0.00    +2.690 S 
ATOM     25  O   LIG    1        5.289   5.989  -5.372  0.00  0.00    -0.950 OA
ATOM     26  O   LIG    1        2.846   6.293  -5.799  0.00  0.00    -0.950 OA
BRANCH  24  27
ATOM     27  C   LIG    1        3.874   3.964  -6.033  0.00  0.00    -0.680 A 
ATOM     28  C   LIG    1        5.020   3.197  -6.130  0.00  0.00    +0.120 A 
ATOM     29  C   LIG    1        4.967   1.948  -6.720  0.00  0.00    -0.010 A 
ATOM     30  C   LIG    1        3.771   1.470  -7.221  0.00  0.00    +0.070 A 
ATOM     31  C   LIG    1        2.626   2.240  -7.129  0.00  0.00    -0.010 A 
ATOM     32  C   LIG    1        2.678   3.487  -6.534  0.00  0.00    +0.120 A 
ENDBRANCH  24  27
ENDBRANCH  22  24
ENDBRANCH  21  22
ENDBRANCH   1  21
TORSDOF 9
