REMARK  Name = ZINCpk00000y1h5F.0
REMARK                            x       y       z     vdW  Elec       q    Type
REMARK                         _______ _______ _______ _____ _____    ______ ____
ROOT
ATOM      1  C   LIG    1        0.140  -1.253   1.777  0.00  0.00    +0.560 C 
ATOM      2  N   LIG    1        0.858  -0.756   0.750  0.00  0.00    -0.600 N 
ATOM      3  C   LIG    1        0.276  -0.669  -0.597  0.00  0.00    +0.270 C 
ATOM      4  C   LIG    1        0.418   0.770  -1.102  0.00  0.00    +0.010 C 
ATOM      5  C   LIG    1        1.887   1.191  -1.024  0.00  0.00    +0.020 C 
ATOM      6  C   LIG    1        2.357   1.142   0.432  0.00  0.00    +0.020 C 
ATOM      7  C   LIG    1        2.237  -0.292   0.955  0.00  0.00    +0.230 C 
ATOM      8  O   LIG    1        0.665  -1.418   2.861  0.00  0.00    -0.530 OA
ENDROOT
BRANCH   1  13
ATOM      9  C   LIG    1       -3.180  -2.988   2.089  0.00  0.00    +0.130 A 
ATOM     10  C   LIG    1       -3.959  -2.235   1.222  0.00  0.00    -0.060 A 
ATOM     11  C   LIG    1       -3.406  -1.167   0.539  0.00  0.00    +0.060 A 
ATOM     12  C   LIG    1       -2.078  -0.840   0.720  0.00  0.00    +0.000 A 
ATOM     13  C   LIG    1       -1.285  -1.596   1.585  0.00  0.00    -0.090 A 
ATOM     14  C   LIG    1       -1.844  -2.673   2.274  0.00  0.00    +0.050 A 
BRANCH   9  15
ATOM     15  O   LIG    1       -3.729  -4.037   2.758  0.00  0.00    -0.290 OA
BRANCH  15  16
ATOM     16  C   LIG    1       -5.112  -4.305   2.520  0.00  0.00    +0.240 C 
BRANCH  16  20
ATOM     17  N   LIG    1       -6.814  -5.932   3.277  0.00  0.00    -0.850 N 
ATOM     18  H   LIG    1       -7.091  -6.697   3.806  0.00  0.00    +0.410 HD
ATOM     19  H   LIG    1       -7.454  -5.483   2.703  0.00  0.00    +0.400 HD
ATOM     20  C   LIG    1       -5.542  -5.494   3.341  0.00  0.00    +0.520 C 
ATOM     21  O   LIG    1       -4.742  -6.055   4.059  0.00  0.00    -0.510 OA
ENDBRANCH  16  20
ENDBRANCH  15  16
ENDBRANCH   9  15
ENDBRANCH   1  13
BRANCH   7  22
ATOM     22  C   LIG    1        2.573  -0.327   2.447  0.00  0.00    +0.360 C 
BRANCH  22  23
ATOM     23  N   LIG    1        3.931   0.182   2.654  0.00  0.00    -0.370 N 
ATOM     24  C   LIG    1        4.276   1.232   3.428  0.00  0.00    +0.220 A 
ATOM     25  C   LIG    1        5.619   1.375   3.354  0.00  0.00    -0.130 A 
ATOM     26  C   LIG    1        6.111   0.384   2.498  0.00  0.00    +0.220 A 
ATOM     27  N   LIG    1        5.100  -0.332   2.078  0.00  0.00    -0.300 NA
ENDBRANCH  22  23
ENDBRANCH   7  22
TORSDOF 6
