REMARK  Name = ZINCpk00000KfLqn.0
REMARK                            x       y       z     vdW  Elec       q    Type
REMARK                         _______ _______ _______ _____ _____    ______ ____
ROOT
ATOM      1  N   LIG    1        3.240   0.991  -2.255  0.00  0.00    -0.640 N 
ATOM      2  H   LIG    1        2.868   0.929  -1.361  0.00  0.00    +0.430 HD
ATOM      3  C   LIG    1        3.997  -0.013  -2.741  0.00  0.00    +0.570 C 
ATOM      4  O   LIG    1        4.387   0.022  -3.888  0.00  0.00    -0.440 OA
ENDROOT
BRANCH   1   9
ATOM      5  C   LIG    1        3.293   3.240  -5.024  0.00  0.00    +0.410 A 
ATOM      6  C   LIG    1        2.514   4.284  -4.540  0.00  0.00    -0.130 A 
ATOM      7  C   LIG    1        1.988   4.178  -3.257  0.00  0.00    +0.420 A 
ATOM      8  N   LIG    1        2.246   3.089  -2.540  0.00  0.00    -0.620 NA
ATOM      9  C   LIG    1        2.992   2.114  -3.034  0.00  0.00    +0.610 A 
ATOM     10  N   LIG    1        3.513   2.183  -4.249  0.00  0.00    -0.580 NA
BRANCH   5  12
ATOM     11  C   LIG    1        4.613   2.186  -6.693  0.00  0.00    +0.270 C 
ATOM     12  O   LIG    1        3.825   3.300  -6.270  0.00  0.00    -0.290 OA
ENDBRANCH   5  12
BRANCH   7  13
ATOM     13  O   LIG    1        1.223   5.172  -2.744  0.00  0.00    -0.290 OA
ATOM     14  C   LIG    1        0.721   4.987  -1.419  0.00  0.00    +0.270 C 
ENDBRANCH   7  13
ENDBRANCH   1   9
BRANCH   3  15
ATOM     15  C   LIG    1        4.360  -1.179  -1.857  0.00  0.00    -0.680 C 
ATOM     16  C   LIG    1        5.417  -2.156  -2.376  0.00  0.00    +0.170 C 
ATOM     17  C   LIG    1        5.760  -1.189  -1.240  0.00  0.00    +0.150 C 
BRANCH  15  18
ATOM     18  S   LIG    1        3.002  -1.862  -0.867  0.00  0.00    +2.530 S 
ATOM     19  O   LIG    1        3.364  -3.127  -0.330  0.00  0.00    -0.910 OA
ATOM     20  O   LIG    1        2.429  -0.854  -0.045  0.00  0.00    -0.920 OA
BRANCH  18  21
ATOM     21  C   LIG    1        1.744  -2.233  -2.042  0.00  0.00    -0.660 A 
ATOM     22  C   LIG    1        1.769  -3.434  -2.727  0.00  0.00    +0.120 A 
ATOM     23  C   LIG    1        0.782  -3.725  -3.649  0.00  0.00    +0.000 A 
ATOM     24  C   LIG    1       -0.232  -2.816  -3.887  0.00  0.00    +0.070 A 
ATOM     25  C   LIG    1       -0.258  -1.615  -3.202  0.00  0.00    -0.010 A 
ATOM     26  C   LIG    1        0.730  -1.323  -2.280  0.00  0.00    +0.120 A 
ENDBRANCH  18  21
ENDBRANCH  15  18
ENDBRANCH   3  15
TORSDOF 6
