REMARK  Name = ZINCqH0000006WWi.0
REMARK                            x       y       z     vdW  Elec       q    Type
REMARK                         _______ _______ _______ _____ _____    ______ ____
ROOT
ATOM      1  C   LIG    1        8.436   5.938  -2.459  0.00  0.00    +0.110 A 
ATOM      2  C   LIG    1        7.135   6.248  -2.807  0.00  0.00    -0.030 A 
ATOM      3  C   LIG    1        6.157   5.260  -2.839  0.00  0.00    -0.060 A 
ATOM      4  C   LIG    1        6.490   3.961  -2.528  0.00  0.00    -0.090 A 
ATOM      5  C   LIG    1        5.481   2.840  -2.556  0.00  0.00    +0.330 C 
ATOM      6  N   LIG    1        4.130   3.395  -2.689  0.00  0.00    -0.610 N 
ATOM      7  C   LIG    1        3.935   4.470  -3.675  0.00  0.00    +0.290 C 
ATOM      8  C   LIG    1        3.106   2.935  -1.942  0.00  0.00    +0.600 C 
ATOM      9  O   LIG    1        1.980   3.360  -2.125  0.00  0.00    -0.500 OA
ATOM     10  C   LIG    1        7.796   3.646  -2.174  0.00  0.00    -0.030 A 
ATOM     11  C   LIG    1        4.759   5.678  -3.214  0.00  0.00    +0.080 C 
ATOM     12  C   LIG    1        8.770   4.626  -2.138  0.00  0.00    +0.100 A 
ENDROOT
BRANCH   8  13
ATOM     13  C   LIG    1        3.349   1.927  -0.912  0.00  0.00    -0.280 A 
ATOM     14  C   LIG    1        2.841   1.952   0.363  0.00  0.00    +0.180 A 
ATOM     15  C   LIG    1        3.230   0.865   1.121  0.00  0.00    +0.000 A 
ATOM     16  C   LIG    1        4.025  -0.007   0.495  0.00  0.00    -0.040 A 
ATOM     17  S   LIG    1        4.340   0.487  -1.107  0.00  0.00    +0.260 S 
BRANCH  14  18
ATOM     18  N   LIG    1        2.011   2.971   0.844  0.00  0.00    -0.390 N 
ATOM     19  C   LIG    1        0.817   2.791   1.482  0.00  0.00    +0.150 A 
ATOM     20  C   LIG    1        0.315   4.005   1.786  0.00  0.00    -0.050 A 
ATOM     21  C   LIG    1        1.234   4.970   1.328  0.00  0.00    -0.050 A 
ATOM     22  C   LIG    1        2.261   4.311   0.753  0.00  0.00    +0.150 A 
ENDBRANCH  14  18
ENDBRANCH   8  13
BRANCH   1  24
ATOM     23  C   LIG    1        8.969   8.235  -2.772  0.00  0.00    +0.240 C 
ATOM     24  O   LIG    1        9.386   6.912  -2.430  0.00  0.00    -0.300 OA
ENDBRANCH   1  24
BRANCH  12  25
ATOM     25  O   LIG    1       10.046   4.310  -1.789  0.00  0.00    -0.300 OA
ATOM     26  C   LIG    1       10.312   2.942  -1.472  0.00  0.00    +0.240 C 
ENDBRANCH  12  25
TORSDOF 4
