REMARK  Name = ZINCpk00000xHZa6.0
REMARK                            x       y       z     vdW  Elec       q    Type
REMARK                         _______ _______ _______ _____ _____    ______ ____
ROOT
ATOM      1  C   LIG    1        6.827  -5.889  -0.733  0.00  0.00    +0.130 C 
ATOM      2  C   LIG    1        5.982  -4.649  -0.602  0.00  0.00    -0.130 A 
ATOM      3  C   LIG    1        6.572  -3.436  -0.502  0.00  0.00    +0.290 A 
ATOM      4  N   LIG    1        5.823  -2.304  -0.383  0.00  0.00    -0.440 N 
ATOM      5  C   LIG    1        6.449  -1.108  -0.287  0.00  0.00    +0.560 A 
ATOM      6  C   LIG    1        5.619   0.091  -0.159  0.00  0.00    -0.330 A 
ATOM      7  C   LIG    1        4.214  -0.065  -0.144  0.00  0.00    +0.490 A 
ATOM      8  N   LIG    1        3.395   1.032  -0.025  0.00  0.00    -0.410 N 
ATOM      9  C   LIG    1        3.910   2.272   0.073  0.00  0.00    +0.550 A 
ATOM     10  C   LIG    1        5.360   2.471   0.064  0.00  0.00    -0.170 A 
ATOM     11  O   LIG    1        3.167   3.232   0.173  0.00  0.00    -0.460 OA
ATOM     12  N   LIG    1        3.698  -1.282  -0.244  0.00  0.00    -0.570 NA
ATOM     13  C   LIG    1        6.195   1.363  -0.054  0.00  0.00    +0.280 A 
ATOM     14  O   LIG    1        7.664  -1.031  -0.305  0.00  0.00    -0.480 OA
ATOM     15  C   LIG    1        4.458  -2.370  -0.360  0.00  0.00    +0.450 A 
ATOM     16  C   LIG    1        3.827  -3.626  -0.462  0.00  0.00    +0.040 A 
ATOM     17  C   LIG    1        4.584  -4.752  -0.582  0.00  0.00    +0.160 A 
ENDROOT
BRANCH   8  18
ATOM     18  C   LIG    1        2.009   0.860  -0.013  0.00  0.00    +0.200 A 
ATOM     19  N   LIG    1        1.101   1.800   0.001  0.00  0.00    -0.330 NA
ATOM     20  O   LIG    1       -0.016   1.337   0.009  0.00  0.00    +0.120 OA
ATOM     21  C   LIG    1        0.002  -0.004   0.002  0.00  0.00    -0.030 A 
ATOM     22  C   LIG    1       -1.194  -0.921   0.009  0.00  0.00    +0.200 C 
ATOM     23  C   LIG    1        1.303  -0.373  -0.012  0.00  0.00    -0.010 A 
ENDBRANCH   8  18
BRANCH  10  24
ATOM     24  C   LIG    1        5.913   3.788   0.173  0.00  0.00    +0.280 C 
ATOM     25  N   LIG    1        6.352   4.832   0.259  0.00  0.00    -0.410 NA
ENDBRANCH  10  24
TORSDOF 2
