REMARK  Name = ZINCrD00000F5LGa.0
REMARK                            x       y       z     vdW  Elec       q    Type
REMARK                         _______ _______ _______ _____ _____    ______ ____
ROOT
ATOM      1  C   LIG    1       -2.848   3.136   1.727  0.00  0.00    +0.490 C 
ATOM      2  N   LIG    1       -1.593   2.698   1.504  0.00  0.00    -0.720 N 
ATOM      3  H   LIG    1       -1.023   2.458   2.251  0.00  0.00    +0.400 HD
ATOM      4  O   LIG    1       -3.561   3.436   0.793  0.00  0.00    -0.530 OA
ENDROOT
BRANCH   1   5
ATOM      5  C   LIG    1       -3.365   3.255   3.137  0.00  0.00    +0.180 C 
BRANCH   5   7
ATOM      6  C   LIG    1       -3.938   1.982   5.210  0.00  0.00    +0.020 C 
ATOM      7  C   LIG    1       -3.510   1.858   3.746  0.00  0.00    +0.030 C 
ENDBRANCH   5   7
BRANCH   5   8
ATOM      8  N   LIG    1       -4.674   3.921   3.125  0.00  0.00    -0.500 NA
ATOM      9  C   LIG    1       -5.677   3.101   2.432  0.00  0.00    +0.200 C 
BRANCH   8  10
ATOM     10  C   LIG    1       -4.579   5.257   2.520  0.00  0.00    +0.240 C 
BRANCH  10  11
ATOM     11  C   LIG    1       -5.809   6.055   2.867  0.00  0.00    -0.090 A 
ATOM     12  C   LIG    1       -6.918   6.023   2.043  0.00  0.00    +0.260 A 
ATOM     13  N   LIG    1       -8.002   6.714   2.342  0.00  0.00    -0.460 NA
ATOM     14  C   LIG    1       -8.069   7.465   3.424  0.00  0.00    +0.240 A 
ATOM     15  C   LIG    1       -6.995   7.551   4.293  0.00  0.00    +0.050 A 
ATOM     16  F   LIG    1       -7.070   8.323   5.399  0.00  0.00    -0.130 F 
ATOM     17  C   LIG    1       -5.840   6.833   4.014  0.00  0.00    +0.060 A 
ENDBRANCH  10  11
ENDBRANCH   8  10
ENDBRANCH   5   8
ENDBRANCH   1   5
BRANCH   2  18
ATOM     18  C   LIG    1       -1.090   2.583   0.133  0.00  0.00    +0.320 C 
BRANCH  18  19
ATOM     19  C   LIG    1        0.328   2.074   0.159  0.00  0.00    -0.080 A 
ATOM     20  C   LIG    1        1.381   2.967   0.219  0.00  0.00    +0.010 A 
ATOM     21  C   LIG    1        2.684   2.503   0.238  0.00  0.00    +0.050 A 
ATOM     22  C   LIG    1        2.936   1.145   0.196  0.00  0.00    -0.040 A 
ATOM     23  C   LIG    1        1.880   0.247   0.136  0.00  0.00    +0.100 A 
ATOM     24  C   LIG    1        0.574   0.715   0.117  0.00  0.00    +0.020 A 
BRANCH  23  25
ATOM     25  O   LIG    1        2.125  -1.089   0.094  0.00  0.00    -0.320 OA
BRANCH  25  26
ATOM     26  C   LIG    1        3.494  -1.499   0.116  0.00  0.00    +0.590 C 
ATOM     27  F   LIG    1        4.098  -1.042   1.292  0.00  0.00    -0.200 F 
ATOM     28  F   LIG    1        4.160  -0.960  -0.990  0.00  0.00    -0.200 F 
ENDBRANCH  25  26
ENDBRANCH  23  25
ENDBRANCH  18  19
ENDBRANCH   2  18
TORSDOF 9
