REMARK  Name = ZINCnE000001D7la.1
REMARK                            x       y       z     vdW  Elec       q    Type
REMARK                         _______ _______ _______ _____ _____    ______ ____
ROOT
ATOM      1  N   LIG    1       -1.191   1.867   0.018  0.00  0.00    -0.670 NA
ATOM      2  C   LIG    1       -0.014   1.209   0.009  0.00  0.00    +0.450 C 
ATOM      3  O   LIG    1        0.002  -0.004   0.002  0.00  0.00    -0.590 OA
ENDROOT
BRANCH   1   7
ATOM      4  C   LIG    1       -4.595   0.861   0.028  0.00  0.00    +0.120 A 
ATOM      5  C   LIG    1       -4.267  -0.432   0.020  0.00  0.00    -0.230 A 
ATOM      6  S   LIG    1       -2.509  -0.550   0.012  0.00  0.00    +0.020 S 
ATOM      7  C   LIG    1       -2.385   1.155   0.020  0.00  0.00    +0.350 A 
ATOM      8  N   LIG    1       -3.566   1.688   0.033  0.00  0.00    -0.560 NA
BRANCH   4  10
ATOM      9  C   LIG    1       -6.619   1.139   1.433  0.00  0.00    +0.020 C 
ATOM     10  C   LIG    1       -6.024   1.339   0.038  0.00  0.00    +0.010 C 
ATOM     11  C   LIG    1       -6.837   0.538  -0.982  0.00  0.00    +0.020 C 
ATOM     12  C   LIG    1       -6.068   2.824  -0.328  0.00  0.00    +0.030 C 
ENDBRANCH   4  10
ENDBRANCH   1   7
BRANCH   2  13
ATOM     13  C   LIG    1        1.280   1.980   0.001  0.00  0.00    +0.210 C 
BRANCH  13  14
ATOM     14  O   LIG    1        2.379   1.066  -0.015  0.00  0.00    -0.360 OA
BRANCH  14  15
ATOM     15  C   LIG    1        3.660   1.698  -0.024  0.00  0.00    +0.190 C 
BRANCH  15  16
ATOM     16  C   LIG    1        4.756   0.630  -0.040  0.00  0.00    +0.200 C 
BRANCH  16  17
ATOM     17  O   LIG    1        4.688  -0.104  -1.264  0.00  0.00    -0.300 OA
BRANCH  17  18
ATOM     18  C   LIG    1        5.598  -1.097  -1.440  0.00  0.00    +0.140 A 
ATOM     19  C   LIG    1        6.541  -1.357  -0.456  0.00  0.00    -0.080 A 
ATOM     20  C   LIG    1        7.462  -2.371  -0.635  0.00  0.00    +0.040 A 
ATOM     21  C   LIG    1        7.451  -3.120  -1.797  0.00  0.00    -0.050 A 
ATOM     22  C   LIG    1        6.516  -2.859  -2.781  0.00  0.00    +0.050 A 
ATOM     23  C   LIG    1        5.589  -1.850  -2.605  0.00  0.00    -0.020 A 
ENDBRANCH  17  18
ENDBRANCH  16  17
ENDBRANCH  15  16
ENDBRANCH  14  15
ENDBRANCH  13  14
ENDBRANCH   2  13
TORSDOF 8
