REMARK  Name = ZINCqH0000037MsZ.0
REMARK                            x       y       z     vdW  Elec       q    Type
REMARK                         _______ _______ _______ _____ _____    ______ ____
ROOT
ATOM      1  C   LIG    1       11.487  -2.667  -1.532  0.00  0.00    +0.050 A 
ATOM      2  C   LIG    1       11.137  -3.045  -0.244  0.00  0.00    +0.100 A 
ATOM      3  C   LIG    1        9.877  -2.758   0.242  0.00  0.00    -0.040 A 
ATOM      4  C   LIG    1        8.959  -2.090  -0.557  0.00  0.00    +0.250 A 
ATOM      5  C   LIG    1        9.306  -1.715  -1.849  0.00  0.00    -0.080 A 
ATOM      6  C   LIG    1       10.568  -1.999  -2.335  0.00  0.00    +0.170 A 
ATOM      7  F   LIG    1       10.909  -1.630  -3.589  0.00  0.00    -0.120 F 
ENDROOT
BRANCH   1  14
ATOM      8  C   LIG    1       14.099  -2.119  -0.020  0.00  0.00    +0.150 C 
ATOM      9  C   LIG    1       13.938  -2.732  -1.388  0.00  0.00    +0.090 A 
ATOM     10  C   LIG    1       14.938  -3.155  -2.196  0.00  0.00    -0.120 A 
ATOM     11  C   LIG    1       14.362  -3.649  -3.371  0.00  0.00    +0.080 A 
ATOM     12  N   LIG    1       13.062  -3.533  -3.270  0.00  0.00    -0.290 NA
ATOM     13  C   LIG    1       15.109  -4.218  -4.550  0.00  0.00    +0.160 C 
ATOM     14  N   LIG    1       12.768  -2.959  -2.026  0.00  0.00    -0.320 N 
ENDBRANCH   1  14
BRANCH   4  15
ATOM     15  N   LIG    1        7.683  -1.800  -0.064  0.00  0.00    -0.730 N 
ATOM     16  H   LIG    1        7.440  -2.065   0.836  0.00  0.00    +0.410 HD
BRANCH  15  17
ATOM     17  C   LIG    1        6.715  -1.095  -0.908  0.00  0.00    +0.390 C 
BRANCH  17  18
ATOM     18  C   LIG    1        5.428  -0.907  -0.146  0.00  0.00    +0.010 A 
ATOM     19  N   LIG    1        5.152   0.112   0.596  0.00  0.00    -0.450 NA
ATOM     20  C   LIG    1        3.975   0.120   1.190  0.00  0.00    +0.250 A 
ATOM     21  C   LIG    1        3.222  -0.955   0.943  0.00  0.00    -0.240 A 
ATOM     22  S   LIG    1        4.124  -2.013  -0.139  0.00  0.00    +0.220 S 
BRANCH  21  23
ATOM     23  C   LIG    1        1.841  -1.215   1.489  0.00  0.00    +0.410 C 
ATOM     24  O   LIG    1        0.909  -0.231   0.991  0.00  0.00    -0.370 OA
ATOM     25  C   LIG    1       -0.385  -0.855   1.124  0.00  0.00    +0.200 C 
ATOM     26  C   LIG    1       -0.097  -2.369   1.130  0.00  0.00    +0.200 C 
ATOM     27  O   LIG    1        1.336  -2.476   1.000  0.00  0.00    -0.370 OA
ENDBRANCH  21  23
ENDBRANCH  17  18
ENDBRANCH  15  17
ENDBRANCH   4  15
TORSDOF 5
