REMARK  Name = ZINCrH00000tj1lE.0
REMARK                            x       y       z     vdW  Elec       q    Type
REMARK                         _______ _______ _______ _____ _____    ______ ____
ROOT
ATOM      1  N   LIG    1        3.628   1.581   0.025  0.00  0.00    -0.720 N 
ATOM      2  H   LIG    1        3.573   2.450  -0.402  0.00  0.00    +0.420 HD
ENDROOT
BRANCH   1  12
ATOM      3  C   LIG    1        5.955   1.981   0.544  0.00  0.00    +0.040 A 
ATOM      4  C   LIG    1        7.144   1.554   1.112  0.00  0.00    +0.020 A 
ATOM      5  C   LIG    1        7.216   0.316   1.714  0.00  0.00    -0.190 A 
ATOM      6  C   LIG    1        6.105  -0.515   1.773  0.00  0.00    +0.120 A 
ATOM      7  O   LIG    1        6.391  -1.675   2.428  0.00  0.00    -0.300 OA
ATOM      8  C   LIG    1        7.816  -1.869   2.445  0.00  0.00    +0.170 C 
ATOM      9  C   LIG    1        8.254  -2.560   3.738  0.00  0.00    +0.070 C 
ATOM     10  C   LIG    1        4.910  -0.085   1.204  0.00  0.00    -0.060 A 
ATOM     11  C   LIG    1        8.359  -0.421   2.386  0.00  0.00    +0.080 C 
ATOM     12  C   LIG    1        4.833   1.156   0.595  0.00  0.00    +0.230 A 
BRANCH   3  13
ATOM     13  O   LIG    1        5.881   3.200  -0.056  0.00  0.00    -0.320 OA
BRANCH  13  15
ATOM     14  C   LIG    1        6.797   5.316  -0.781  0.00  0.00    +0.070 C 
ATOM     15  C   LIG    1        7.072   3.990  -0.070  0.00  0.00    +0.180 C 
ENDBRANCH  13  15
ENDBRANCH   3  13
ENDBRANCH   1  12
BRANCH   1  16
ATOM     16  C   LIG    1        2.449   0.713   0.073  0.00  0.00    +0.250 C 
ATOM     17  C   LIG    1        2.489  -0.267  -1.101  0.00  0.00    +0.050 C 
BRANCH  16  18
ATOM     18  C   LIG    1        1.201   1.554  -0.017  0.00  0.00    +0.520 C 
ATOM     19  N   LIG    1       -0.011   0.966   0.007  0.00  0.00    -0.670 N 
ATOM     20  H   LIG    1       -0.081  -0.002   0.018  0.00  0.00    +0.410 HD
ATOM     21  O   LIG    1        1.289   2.760  -0.112  0.00  0.00    -0.500 OA
BRANCH  19  22
ATOM     22  C   LIG    1       -1.165   1.748   0.012  0.00  0.00    +0.190 A 
ATOM     23  C   LIG    1       -1.198   2.946  -0.687  0.00  0.00    +0.030 A 
ATOM     24  C   LIG    1       -2.344   3.717  -0.685  0.00  0.00    +0.070 A 
ATOM     25  C   LIG    1       -3.463   3.308   0.022  0.00  0.00    +0.010 A 
ATOM     26  C   LIG    1       -3.446   2.123   0.727  0.00  0.00    +0.090 A 
ATOM     27  C   LIG    1       -2.297   1.331   0.730  0.00  0.00    -0.060 A 
BRANCH  27  28
ATOM     28  C   LIG    1       -2.273   0.099   1.459  0.00  0.00    +0.250 C 
ATOM     29  N   LIG    1       -2.254  -0.879   2.038  0.00  0.00    -0.410 NA
ENDBRANCH  27  28
ENDBRANCH  19  22
ENDBRANCH  16  18
ENDBRANCH   1  16
TORSDOF 7
