REMARK  Name = ZINCrD00000e7ZjR.0
REMARK                            x       y       z     vdW  Elec       q    Type
REMARK                         _______ _______ _______ _____ _____    ______ ____
ROOT
ATOM      1  N   LIG    1       -3.115  -2.580   6.520  0.00  0.00    -0.710 N 
ATOM      2  H   LIG    1       -2.334  -2.653   7.090  0.00  0.00    +0.400 HD
ATOM      3  C   LIG    1       -3.057  -1.851   5.388  0.00  0.00    +0.580 C 
ATOM      4  O   LIG    1       -4.036  -1.759   4.673  0.00  0.00    -0.530 OA
ENDROOT
BRANCH   3   5
ATOM      5  C   LIG    1       -1.805  -1.162   5.016  0.00  0.00    -0.210 A 
ATOM      6  C   LIG    1       -0.671  -1.260   5.832  0.00  0.00    +0.380 A 
ATOM      7  N   LIG    1        0.454  -0.655   5.521  0.00  0.00    -0.460 NA
ATOM      8  C   LIG    1        0.572   0.075   4.424  0.00  0.00    +0.230 A 
ATOM      9  O   LIG    1        1.562   0.790   3.860  0.00  0.00    +0.090 OA
ATOM     10  N   LIG    1        1.233   1.319   2.824  0.00  0.00    -0.310 NA
ATOM     11  C   LIG    1        0.000   1.080   2.488  0.00  0.00    +0.080 A 
ATOM     12  C   LIG    1       -0.531   0.226   3.555  0.00  0.00    -0.220 A 
ATOM     13  C   LIG    1       -1.733  -0.401   3.844  0.00  0.00    +0.230 A 
BRANCH  11  14
ATOM     14  C   LIG    1       -0.729   1.579   1.267  0.00  0.00    +0.080 C 
ATOM     15  C   LIG    1       -0.750   3.109   1.275  0.00  0.00    +0.040 C 
ATOM     16  C   LIG    1       -0.013   1.086   0.008  0.00  0.00    +0.040 C 
ENDBRANCH  11  14
ENDBRANCH   3   5
BRANCH   1  17
ATOM     17  C   LIG    1       -4.358  -3.263   6.888  0.00  0.00    +0.310 C 
BRANCH  17  18
ATOM     18  C   LIG    1       -4.394  -3.469   8.381  0.00  0.00    -0.100 A 
ATOM     19  C   LIG    1       -3.243  -3.835   9.055  0.00  0.00    +0.070 A 
ATOM     20  C   LIG    1       -3.268  -4.026  10.425  0.00  0.00    +0.020 A 
ATOM     21  C   LIG    1       -4.442  -3.853  11.128  0.00  0.00    +0.070 A 
ATOM     22  C   LIG    1       -5.607  -3.483  10.454  0.00  0.00    -0.020 A 
ATOM     23  C   LIG    1       -5.574  -3.286   9.072  0.00  0.00    +0.080 A 
BRANCH  22  24
ATOM     24  C   LIG    1       -6.830  -3.300  11.177  0.00  0.00    +0.250 C 
ATOM     25  N   LIG    1       -7.800  -3.156  11.751  0.00  0.00    -0.410 NA
ENDBRANCH  22  24
ENDBRANCH  17  18
BRANCH  17  26
ATOM     26  C   LIG    1       -4.422  -4.620   6.184  0.00  0.00    +0.180 C 
BRANCH  26  28
ATOM     27  C   LIG    1       -3.341  -6.757   6.074  0.00  0.00    +0.200 C 
ATOM     28  O   LIG    1       -3.372  -5.458   6.670  0.00  0.00    -0.380 OA
ENDBRANCH  26  28
ENDBRANCH  17  26
ENDBRANCH   1  17
TORSDOF 7
