REMARK  Name = ZINCrD00000lbgQr.0
REMARK                            x       y       z     vdW  Elec       q    Type
REMARK                         _______ _______ _______ _____ _____    ______ ____
ROOT
ATOM      1  C   LIG    1       -6.692  -1.576   0.095  0.00  0.00    +0.120 C 
ENDROOT
BRANCH   1   2
ATOM      2  C   LIG    1       -6.479  -0.084   0.123  0.00  0.00    +0.540 C 
ATOM      3  N   LIG    1       -7.529   0.749  -0.021  0.00  0.00    -0.570 N 
ATOM      4  O   LIG    1       -5.364   0.367   0.275  0.00  0.00    -0.510 OA
BRANCH   3   5
ATOM      5  C   LIG    1       -7.309   2.193  -0.126  0.00  0.00    +0.200 C 
ATOM      6  C   LIG    1       -5.892   2.670  -0.452  0.00  0.00    +0.040 C 
ATOM      7  C   LIG    1       -6.457   2.858   0.957  0.00  0.00    +0.020 C 
ENDBRANCH   3   5
BRANCH   3   8
ATOM      8  C   LIG    1       -8.890   0.210  -0.073  0.00  0.00    +0.350 C 
BRANCH   8   9
ATOM      9  C   LIG    1       -9.457   0.143   1.321  0.00  0.00    -0.150 A 
ATOM     10  C   LIG    1       -9.472  -1.058   2.005  0.00  0.00    +0.060 A 
ATOM     11  C   LIG    1       -9.987  -1.119   3.286  0.00  0.00    +0.000 A 
ATOM     12  C   LIG    1      -10.498   0.019   3.881  0.00  0.00    +0.050 A 
ATOM     13  C   LIG    1      -10.490   1.220   3.198  0.00  0.00    -0.020 A 
ATOM     14  C   LIG    1       -9.969   1.284   1.917  0.00  0.00    +0.120 A 
ATOM     15  F   LIG    1       -9.960   2.457   1.248  0.00  0.00    -0.130 F 
ENDBRANCH   8   9
ENDBRANCH   3   8
ENDBRANCH   1   2
BRANCH   1  16
ATOM     16  S   LIG    1       -5.090  -2.415   0.162  0.00  0.00    +0.080 S 
BRANCH  16  20
ATOM     17  O   LIG    1       -8.588  -5.806  -0.052  0.00  0.00    -0.480 OA
ATOM     18  C   LIG    1       -7.388  -5.596   0.008  0.00  0.00    +0.540 A 
ATOM     19  N   LIG    1       -6.913  -4.343   0.051  0.00  0.00    -0.610 NA
ATOM     20  C   LIG    1       -5.621  -4.094   0.117  0.00  0.00    +0.410 A 
ATOM     21  N   LIG    1       -4.679  -5.075   0.150  0.00  0.00    -0.610 N 
ATOM     22  H   LIG    1       -3.740  -4.840   0.198  0.00  0.00    +0.430 HD
ATOM     23  C   LIG    1       -5.056  -6.406   0.116  0.00  0.00    +0.180 A 
ATOM     24  C   LIG    1       -4.122  -7.431   0.147  0.00  0.00    -0.020 A 
ATOM     25  C   LIG    1       -4.547  -8.744   0.111  0.00  0.00    +0.080 A 
ATOM     26  C   LIG    1       -5.898  -9.048   0.043  0.00  0.00    -0.010 A 
ATOM     27  C   LIG    1       -6.840  -8.042   0.011  0.00  0.00    +0.110 A 
ATOM     28  C   LIG    1       -6.426  -6.713   0.047  0.00  0.00    -0.210 A 
ENDBRANCH  16  20
ENDBRANCH   1  16
TORSDOF 6
