REMARK  Name = ZINCqH0000038SKH.2
REMARK                            x       y       z     vdW  Elec       q    Type
REMARK                         _______ _______ _______ _____ _____    ______ ____
ROOT
ATOM      1  N   LIG    1        1.359   2.036   0.000  0.00  0.00    -0.530 NA
ATOM      2  C   LIG    1       -0.019   1.526   0.010  0.00  0.00    +0.170 C 
ATOM      3  C   LIG    1        0.002  -0.004   0.002  0.00  0.00    +0.020 C 
ATOM      4  C   LIG    1        0.738  -0.493  -1.249  0.00  0.00    +0.030 C 
ATOM      5  C   LIG    1        2.153   0.091  -1.260  0.00  0.00    +0.050 C 
ATOM      6  C   LIG    1        2.070   1.619  -1.215  0.00  0.00    +0.190 C 
ENDROOT
BRANCH   5   7
ATOM      7  C   LIG    1        2.864  -0.338  -2.517  0.00  0.00    -0.080 A 
ATOM      8  C   LIG    1        2.349   0.002  -3.753  0.00  0.00    +0.020 A 
ATOM      9  C   LIG    1        3.005  -0.388  -4.908  0.00  0.00    +0.090 A 
ATOM     10  C   LIG    1        4.172  -1.128  -4.825  0.00  0.00    +0.020 A 
ATOM     11  C   LIG    1        4.685  -1.472  -3.589  0.00  0.00    +0.030 A 
ATOM     12  F   LIG    1        2.504  -0.051  -6.117  0.00  0.00    -0.130 F 
ATOM     13  C   LIG    1        4.032  -1.078  -2.434  0.00  0.00    +0.100 A 
ATOM     14  F   LIG    1        4.533  -1.415  -1.226  0.00  0.00    -0.130 F 
ENDBRANCH   5   7
BRANCH   1  15
ATOM     15  C   LIG    1        1.380   3.497   0.147  0.00  0.00    +0.310 C 
BRANCH  15  19
ATOM     16  C   LIG    1        0.649   4.372   3.631  0.00  0.00    +0.110 A 
ATOM     17  N   LIG    1       -0.511   4.400   3.025  0.00  0.00    -0.370 NA
ATOM     18  O   LIG    1       -0.402   4.131   1.851  0.00  0.00    +0.100 OA
ATOM     19  C   LIG    1        0.870   3.872   1.515  0.00  0.00    -0.020 A 
ATOM     20  C   LIG    1        1.606   4.018   2.639  0.00  0.00    -0.030 A 
BRANCH  16  24
ATOM     21  C   LIG    1        0.014   5.532   8.451  0.00  0.00    +0.360 C 
ATOM     22  N   LIG    1        0.630   5.162   7.175  0.00  0.00    -0.370 N 
ATOM     23  C   LIG    1       -0.016   4.992   6.005  0.00  0.00    +0.270 A 
ATOM     24  C   LIG    1        0.914   4.654   5.064  0.00  0.00    -0.180 A 
ATOM     25  C   LIG    1        2.169   4.614   5.704  0.00  0.00    +0.270 A 
ATOM     26  N   LIG    1        1.994   4.924   6.960  0.00  0.00    -0.290 NA
ENDBRANCH  16  24
ENDBRANCH  15  19
ENDBRANCH   1  15
TORSDOF 4
