REMARK  Name = ZINCqH0000001Eez.0
REMARK                            x       y       z     vdW  Elec       q    Type
REMARK                         _______ _______ _______ _____ _____    ______ ____
ROOT
ATOM      1  C   LIG    1       -7.274   1.750   2.427  0.00  0.00    +0.360 A 
ATOM      2  N   LIG    1       -7.357   0.664   1.698  0.00  0.00    -0.510 NA
ATOM      3  C   LIG    1       -8.315  -0.260   1.913  0.00  0.00    +0.090 A 
ATOM      4  C   LIG    1       -9.252  -0.059   2.924  0.00  0.00    -0.240 A 
ATOM      5  C   LIG    1       -9.151   1.131   3.704  0.00  0.00    +0.570 A 
ATOM      6  O   LIG    1       -9.947   1.354   4.601  0.00  0.00    -0.500 OA
ATOM      7  C   LIG    1      -10.208  -1.148   3.006  0.00  0.00    +0.090 A 
ATOM      8  C   LIG    1      -10.023  -2.114   2.127  0.00  0.00    -0.050 A 
ATOM      9  S   LIG    1       -8.643  -1.783   1.097  0.00  0.00    +0.200 S 
ATOM     10  N   LIG    1       -8.162   2.005   3.434  0.00  0.00    -0.470 N 
ENDROOT
BRANCH  10  11
ATOM     11  C   LIG    1       -8.045   3.180   4.188  0.00  0.00    +0.090 A 
ATOM     12  C   LIG    1       -7.271   3.193   5.341  0.00  0.00    +0.040 A 
ATOM     13  C   LIG    1       -7.152   4.355   6.078  0.00  0.00    +0.030 A 
ATOM     14  C   LIG    1       -7.812   5.501   5.676  0.00  0.00    +0.040 A 
ATOM     15  C   LIG    1       -8.588   5.491   4.531  0.00  0.00    +0.030 A 
ATOM     16  C   LIG    1       -8.706   4.334   3.786  0.00  0.00    +0.040 A 
ENDBRANCH  10  11
BRANCH   1  17
ATOM     17  S   LIG    1       -5.992   2.913   2.096  0.00  0.00    +0.110 S 
BRANCH  17  18
ATOM     18  C   LIG    1       -5.161   2.082   0.720  0.00  0.00    +0.100 C 
BRANCH  18  21
ATOM     19  N   LIG    1       -3.226   2.494  -0.764  0.00  0.00    -0.720 N 
ATOM     20  H   LIG    1       -3.422   1.651  -1.202  0.00  0.00    +0.400 HD
ATOM     21  C   LIG    1       -3.996   2.918   0.257  0.00  0.00    +0.530 C 
ATOM     22  O   LIG    1       -3.751   3.972   0.804  0.00  0.00    -0.520 OA
BRANCH  19  23
ATOM     23  C   LIG    1       -2.093   3.307  -1.214  0.00  0.00    +0.240 C 
ATOM     24  C   LIG    1       -0.868   2.994  -0.353  0.00  0.00    +0.020 C 
BRANCH  23  26
ATOM     25  C   LIG    1       -0.601   3.835  -3.147  0.00  0.00    +0.030 C 
ATOM     26  C   LIG    1       -1.784   2.986  -2.678  0.00  0.00    -0.020 C 
ATOM     27  C   LIG    1       -3.010   3.298  -3.538  0.00  0.00    +0.020 C 
ENDBRANCH  23  26
ENDBRANCH  19  23
ENDBRANCH  18  21
ENDBRANCH  17  18
ENDBRANCH   1  17
TORSDOF 6
