REMARK  Name = ZINCrH000004tRmP.0
REMARK                            x       y       z     vdW  Elec       q    Type
REMARK                         _______ _______ _______ _____ _____    ______ ____
ROOT
ATOM      1  C   LIG    1        0.236  -5.579  -0.031  0.00  0.00    +0.200 A 
ATOM      2  N   LIG    1        1.482  -5.167  -0.047  0.00  0.00    -0.310 NA
ATOM      3  N   LIG    1        2.288  -6.317  -0.057  0.00  0.00    -0.460 N 
ATOM      4  H   LIG    1        3.258  -6.347  -0.067  0.00  0.00    +0.450 HD
ATOM      5  C   LIG    1        1.452  -7.369  -0.054  0.00  0.00    +0.300 A 
ATOM      6  N   LIG    1        0.224  -6.916  -0.038  0.00  0.00    -0.500 NA
ENDROOT
BRANCH   1   7
ATOM      7  S   LIG    1       -1.187  -4.540  -0.011  0.00  0.00    +0.120 S 
BRANCH   7   8
ATOM      8  C   LIG    1       -0.475  -2.872  -0.009  0.00  0.00    +0.090 C 
BRANCH   8  10
ATOM      9  O   LIG    1       -2.742  -2.215   0.017  0.00  0.00    -0.500 OA
ATOM     10  C   LIG    1       -1.585  -1.852   0.008  0.00  0.00    +0.550 C 
ATOM     11  N   LIG    1       -1.291  -0.537   0.012  0.00  0.00    -0.550 N 
ATOM     12  C   LIG    1       -2.280   0.545   0.028  0.00  0.00    +0.290 C 
ATOM     13  C   LIG    1       -1.456   1.843   0.032  0.00  0.00    +0.100 C 
ATOM     14  C   LIG    1       -0.017   1.382   0.010  0.00  0.00    -0.130 A 
ATOM     15  C   LIG    1        1.164   2.098   0.002  0.00  0.00    +0.060 A 
ATOM     16  C   LIG    1        2.378   1.436  -0.013  0.00  0.00    -0.010 A 
ATOM     17  C   LIG    1        2.408   0.054  -0.021  0.00  0.00    +0.050 A 
ATOM     18  C   LIG    1        1.231  -0.665  -0.014  0.00  0.00    -0.030 A 
ATOM     19  C   LIG    1        0.002  -0.004   0.002  0.00  0.00    +0.140 A 
ENDBRANCH   8  10
ENDBRANCH   7   8
ENDBRANCH   1   7
BRANCH   5  20
ATOM     20  C   LIG    1        1.858  -8.820  -0.067  0.00  0.00    +0.360 C 
BRANCH  20  21
ATOM     21  O   LIG    1        3.283  -8.916  -0.083  0.00  0.00    -0.320 OA
BRANCH  21  22
ATOM     22  C   LIG    1        3.817 -10.166  -0.096  0.00  0.00    +0.130 A 
ATOM     23  C   LIG    1        2.986 -11.277  -0.087  0.00  0.00    -0.050 A 
ATOM     24  C   LIG    1        3.531 -12.546  -0.105  0.00  0.00    +0.070 A 
ATOM     25  C   LIG    1        4.905 -12.710  -0.121  0.00  0.00    -0.070 A 
ATOM     26  C   LIG    1        5.736 -11.603  -0.124  0.00  0.00    +0.070 A 
ATOM     27 CL   LIG    1        5.587 -14.306  -0.138  0.00  0.00    -0.060 Cl
ATOM     28  C   LIG    1        5.195 -10.332  -0.112  0.00  0.00    +0.010 A 
ENDBRANCH  21  22
ENDBRANCH  20  21
ENDBRANCH   5  20
TORSDOF 6
