REMARK  Name = ZINCrH000004tlYA.0
REMARK                            x       y       z     vdW  Elec       q    Type
REMARK                         _______ _______ _______ _____ _____    ______ ____
ROOT
ATOM      1  N   LIG    1       -3.867   6.110   3.103  0.00  0.00    -0.740 N 
ATOM      2  H   LIG    1       -2.962   5.762   3.134  0.00  0.00    +0.400 HD
ATOM      3  C   LIG    1       -4.755   5.600   2.227  0.00  0.00    +0.710 C 
ATOM      4  N   LIG    1       -4.418   4.542   1.463  0.00  0.00    -0.630 N 
ATOM      5  C   LIG    1       -5.405   3.898   0.583  0.00  0.00    +0.280 C 
ATOM      6  C   LIG    1       -4.797   3.776  -0.819  0.00  0.00    +0.220 C 
ATOM      7  O   LIG    1       -3.520   3.140  -0.724  0.00  0.00    -0.370 OA
ATOM      8  C   LIG    1       -2.557   3.871   0.040  0.00  0.00    +0.200 C 
ATOM      9  C   LIG    1       -3.051   3.997   1.486  0.00  0.00    +0.260 C 
ATOM     10  O   LIG    1       -5.861   6.095   2.125  0.00  0.00    -0.580 OA
ENDROOT
BRANCH   8  11
ATOM     11  C   LIG    1       -1.240   3.140   0.020  0.00  0.00    -0.090 A 
ATOM     12  C   LIG    1       -1.217   1.758   0.009  0.00  0.00    +0.100 A 
ATOM     13  C   LIG    1       -0.009   1.086  -0.004  0.00  0.00    +0.010 A 
ATOM     14  C   LIG    1        1.179   1.797  -0.015  0.00  0.00    +0.120 A 
ATOM     15  C   LIG    1        1.155   3.183  -0.009  0.00  0.00    -0.080 A 
ATOM     16 CL   LIG    1        2.643   4.077  -0.025  0.00  0.00    -0.040 Cl
ATOM     17  F   LIG    1        2.360   1.141  -0.034  0.00  0.00    -0.120 F 
ATOM     18  C   LIG    1       -0.055   3.852   0.009  0.00  0.00    +0.070 A 
ENDBRANCH   8  11
BRANCH   1  19
ATOM     19  C   LIG    1       -4.268   7.188   4.010  0.00  0.00    +0.360 C 
BRANCH  19  24
ATOM     20  C   LIG    1       -1.332   9.100   5.440  0.00  0.00    -0.040 A 
ATOM     21  C   LIG    1       -0.950   8.268   6.494  0.00  0.00    +0.120 A 
ATOM     22  C   LIG    1       -1.642   7.100   6.732  0.00  0.00    +0.000 A 
ATOM     23  C   LIG    1       -2.716   6.751   5.928  0.00  0.00    +0.150 A 
ATOM     24  C   LIG    1       -3.100   7.574   4.880  0.00  0.00    -0.150 A 
ATOM     25  F   LIG    1       -3.392   5.606   6.166  0.00  0.00    -0.120 F 
ATOM     26  C   LIG    1       -2.411   8.741   4.629  0.00  0.00    +0.130 A 
BRANCH  20  28
ATOM     27  N   LIG    1       -0.048  11.278   4.987  0.00  0.00    -0.400 NA
ATOM     28  C   LIG    1       -0.616  10.315   5.187  0.00  0.00    +0.250 C 
ENDBRANCH  20  28
ENDBRANCH  19  24
ENDBRANCH   1  19
TORSDOF 4
