REMARK  Name = ZINCkj00000dDcnX.0
REMARK                            x       y       z     vdW  Elec       q    Type
REMARK                         _______ _______ _______ _____ _____    ______ ____
ROOT
ATOM      1  N   LIG    1        2.256   1.218  -0.969  0.00  0.00    -0.650 N 
ATOM      2  H   LIG    1        1.983   0.551  -1.618  0.00  0.00    +0.420 HD
ATOM      3  C   LIG    1        1.404   1.602   0.002  0.00  0.00    +0.450 C 
ATOM      4  O   LIG    1        1.772   2.375   0.861  0.00  0.00    -0.490 OA
ENDROOT
BRANCH   1   9
ATOM      5  C   LIG    1        5.476   2.679   0.048  0.00  0.00    -0.060 A 
ATOM      6  C   LIG    1        6.069   2.896  -1.182  0.00  0.00    +0.040 A 
ATOM      7  C   LIG    1        5.401   2.558  -2.345  0.00  0.00    +0.020 A 
ATOM      8  C   LIG    1        4.137   1.996  -2.280  0.00  0.00    +0.080 A 
ATOM      9  C   LIG    1        3.537   1.782  -1.041  0.00  0.00    +0.100 A 
ATOM     10  C   LIG    1        4.212   2.123   0.121  0.00  0.00    +0.040 A 
BRANCH   5  12
ATOM     11  C   LIG    1        7.039   1.857   1.788  0.00  0.00    +0.040 C 
ATOM     12  C   LIG    1        6.208   3.050   1.312  0.00  0.00    +0.070 C 
ENDBRANCH   5  12
BRANCH   8  13
ATOM     13  O   LIG    1        3.482   1.658  -3.422  0.00  0.00    -0.490 OA
ATOM     14  H   LIG    1        2.935   2.367  -3.787  0.00  0.00    +0.380 HD
ENDBRANCH   8  13
ENDBRANCH   1   9
BRANCH   3  15
ATOM     15  C   LIG    1       -0.007   1.071   0.020  0.00  0.00    +0.250 C 
BRANCH  15  16
ATOM     16  C   LIG    1       -0.756   1.573  -1.216  0.00  0.00    +0.150 C 
ATOM     17  C   LIG    1       -2.221   1.138  -1.134  0.00  0.00    +0.090 C 
ATOM     18  C   LIG    1       -2.967   1.642  -2.373  0.00  0.00    +0.040 C 
ATOM     19  C   LIG    1       -2.818   3.164  -2.463  0.00  0.00    +0.060 C 
ATOM     20  C   LIG    1       -1.331   3.524  -2.495  0.00  0.00    +0.260 C 
ATOM     21  N   LIG    1       -0.680   3.038  -1.272  0.00  0.00    -0.510 N 
ATOM     22  H   LIG    1        0.288   3.323  -1.272  0.00  0.00    +0.430 HD
ATOM     23  H   LIG    1       -1.144   3.429  -0.467  0.00  0.00    +0.430 HD
ENDBRANCH  15  16
BRANCH  15  24
ATOM     24  O   LIG    1       -0.672   1.528   1.199  0.00  0.00    -0.500 OA
ATOM     25  H   LIG    1       -0.729   2.491   1.271  0.00  0.00    +0.380 HD
ENDBRANCH  15  24
ENDBRANCH   3  15
TORSDOF 6
