REMARK  Name = ZINCvU0000000Cif.0
REMARK                            x       y       z     vdW  Elec       q    Type
REMARK                         _______ _______ _______ _____ _____    ______ ____
ROOT
ATOM      1  C   LIG    1       -4.620   0.606   0.032  0.00  0.00    +0.230 A 
ATOM      2  N   LIG    1       -3.930  -0.494  -0.169  0.00  0.00    -0.270 NA
ATOM      3  N   LIG    1       -2.673  -0.228  -0.103  0.00  0.00    -0.260 NA
ATOM      4  C   LIG    1       -2.510   1.052   0.142  0.00  0.00    +0.210 A 
ATOM      5  O   LIG    1       -3.737   1.605   0.238  0.00  0.00    -0.210 OA
ENDROOT
BRANCH   4   6
ATOM      6  C   LIG    1       -1.220   1.757   0.291  0.00  0.00    -0.090 A 
ATOM      7  C   LIG    1       -1.188   3.130   0.560  0.00  0.00    +0.390 A 
ATOM      8  N   LIG    1       -0.051   3.778   0.690  0.00  0.00    -0.450 NA
ATOM      9  C   LIG    1        1.117   3.166   0.581  0.00  0.00    +0.230 A 
ATOM     10  O   LIG    1        2.404   3.551   0.662  0.00  0.00    +0.090 OA
ATOM     11  N   LIG    1        3.181   2.641   0.495  0.00  0.00    -0.300 NA
ATOM     12  C   LIG    1        2.602   1.498   0.273  0.00  0.00    +0.090 A 
ATOM     13  C   LIG    1        1.164   1.780   0.318  0.00  0.00    -0.220 A 
ATOM     14  C   LIG    1       -0.013   1.060   0.173  0.00  0.00    +0.230 A 
BRANCH  12  15
ATOM     15  C   LIG    1        3.266   0.168   0.025  0.00  0.00    +0.080 C 
ATOM     16  C   LIG    1        4.196  -0.186   1.203  0.00  0.00    +0.020 C 
ATOM     17  C   LIG    1        5.411  -0.877   0.534  0.00  0.00    +0.020 C 
ATOM     18  C   LIG    1        5.595  -0.058  -0.768  0.00  0.00    +0.020 C 
ATOM     19  C   LIG    1        4.156   0.250  -1.228  0.00  0.00    +0.030 C 
ENDBRANCH  12  15
ENDBRANCH   4   6
BRANCH   1  22
ATOM     20  C   LIG    1       -8.264  -0.285  -0.179  0.00  0.00    +0.100 A 
ATOM     21  C   LIG    1       -6.887  -0.401  -0.191  0.00  0.00    +0.030 A 
ATOM     22  C   LIG    1       -6.092   0.725   0.038  0.00  0.00    -0.040 A 
ATOM     23  C   LIG    1       -6.693   1.965   0.266  0.00  0.00    +0.070 A 
ATOM     24  C   LIG    1       -8.068   2.075   0.272  0.00  0.00    -0.030 A 
ATOM     25  C   LIG    1       -8.857   0.956   0.050  0.00  0.00    +0.140 A 
BRANCH  20  27
ATOM     26  C   LIG    1       -8.366  -2.619  -0.624  0.00  0.00    +0.250 C 
ATOM     27  O   LIG    1       -9.041  -1.380  -0.396  0.00  0.00    -0.300 OA
ENDBRANCH  20  27
BRANCH  25  28
ATOM     28  O   LIG    1      -10.211   1.069   0.056  0.00  0.00    -0.290 OA
BRANCH  28  29
ATOM     29  C   LIG    1      -10.751   2.387   0.176  0.00  0.00    +0.150 C 
ATOM     30  C   LIG    1      -10.831   2.772   1.654  0.00  0.00    +0.030 C 
ATOM     31  C   LIG    1      -12.153   2.421  -0.437  0.00  0.00    +0.070 C 
ENDBRANCH  28  29
ENDBRANCH  25  28
ENDBRANCH   1  22
TORSDOF 6
