REMARK  Name = ZINCnE000001Ugi7.0
REMARK                            x       y       z     vdW  Elec       q    Type
REMARK                         _______ _______ _______ _____ _____    ______ ____
ROOT
ATOM      1  S   LIG    1        0.086  -4.452   2.378  0.00  0.00    +2.600 S 
ATOM      2  O   LIG    1        1.335  -4.832   1.818  0.00  0.00    -1.020 OA
ATOM      3  O   LIG    1       -1.164  -4.866   1.843  0.00  0.00    -1.020 OA
ENDROOT
BRANCH   1   7
ATOM      4  C   LIG    1        0.147  -5.824   6.691  0.00  0.00    -0.010 A 
ATOM      5  C   LIG    1       -1.060  -5.631   6.044  0.00  0.00    +0.080 A 
ATOM      6  C   LIG    1       -1.078  -5.212   4.727  0.00  0.00    +0.140 A 
ATOM      7  C   LIG    1        0.109  -4.986   4.057  0.00  0.00    -0.570 A 
ATOM      8  C   LIG    1        1.316  -5.184   4.702  0.00  0.00    +0.140 A 
ATOM      9  C   LIG    1        1.334  -5.599   6.021  0.00  0.00    +0.080 A 
BRANCH   4  11
ATOM     10  O   LIG    1       -0.880  -6.471   8.692  0.00  0.00    -0.160 OA
ATOM     11  N   LIG    1        0.167  -6.272   8.102  0.00  0.00    +0.030 N 
ATOM     12  O   LIG    1        1.230  -6.442   8.672  0.00  0.00    -0.160 OA
ENDBRANCH   4  11
ENDBRANCH   1   7
BRANCH   1  13
ATOM     13  N   LIG    1        0.063  -2.796   2.390  0.00  0.00    -1.080 NA
BRANCH  13  14
ATOM     14  C   LIG    1        0.042  -2.089   1.186  0.00  0.00    +0.280 A 
ATOM     15  C   LIG    1        0.040  -2.773  -0.023  0.00  0.00    -0.140 A 
ATOM     16  C   LIG    1        0.019  -2.071  -1.212  0.00  0.00    +0.060 A 
ATOM     17  C   LIG    1       -0.006  -0.688  -1.200  0.00  0.00    -0.060 A 
ATOM     18  C   LIG    1        0.002  -0.004   0.002  0.00  0.00    -0.140 A 
ATOM     19  C   LIG    1        0.023  -0.700   1.194  0.00  0.00    +0.000 A 
BRANCH  18  20
ATOM     20  C   LIG    1       -0.018   1.503   0.010  0.00  0.00    +0.510 C 
ATOM     21  F   LIG    1       -0.673   1.954   1.161  0.00  0.00    -0.180 F 
ATOM     22  F   LIG    1       -0.695   1.966  -1.123  0.00  0.00    -0.180 F 
ATOM     23  F   LIG    1        1.294   1.987   0.000  0.00  0.00    -0.180 F 
ENDBRANCH  18  20
ENDBRANCH  13  14
ENDBRANCH   1  13
TORSDOF 5
