REMARK  Name = ZINCkj000005eONj.0
REMARK                            x       y       z     vdW  Elec       q    Type
REMARK                         _______ _______ _______ _____ _____    ______ ____
ROOT
ATOM      1  C   LIG    1       -3.460  -0.647   1.256  0.00  0.00    +0.340 C 
ENDROOT
BRANCH   1   5
ATOM      2  C   LIG    1       -7.274   0.685  -0.139  0.00  0.00    +0.190 A 
ATOM      3  C   LIG    1       -6.654  -0.402  -0.741  0.00  0.00    +0.020 A 
ATOM      4  C   LIG    1       -5.421  -0.830  -0.287  0.00  0.00    +0.070 A 
ATOM      5  C   LIG    1       -4.804  -0.177   0.764  0.00  0.00    -0.200 A 
ATOM      6  C   LIG    1       -5.421   0.903   1.368  0.00  0.00    +0.070 A 
ATOM      7  C   LIG    1       -6.652   1.339   0.916  0.00  0.00    -0.010 A 
BRANCH   2  10
ATOM      8  C   LIG    1      -10.710   0.709  -1.674  0.00  0.00    +0.120 C 
ATOM      9  C   LIG    1       -9.414   0.230  -1.073  0.00  0.00    +0.520 C 
ATOM     10  N   LIG    1       -8.523   1.121  -0.596  0.00  0.00    -0.680 N 
ATOM     11  H   LIG    1       -8.747   2.064  -0.568  0.00  0.00    +0.420 HD
ATOM     12  O   LIG    1       -9.173  -0.958  -1.020  0.00  0.00    -0.520 OA
ENDBRANCH   2  10
ENDBRANCH   1   5
BRANCH   1  13
ATOM     13  N   LIG    1       -2.398   0.052   0.520  0.00  0.00    -0.520 N 
ATOM     14  H   LIG    1       -2.484  -0.148  -0.466  0.00  0.00    +0.430 HD
ATOM     15  H   LIG    1       -2.482   1.046   0.670  0.00  0.00    +0.420 HD
BRANCH  13  16
ATOM     16  C   LIG    1       -1.087  -0.406   0.999  0.00  0.00    +0.320 C 
BRANCH  16  17
ATOM     17  C   LIG    1        0.019   0.321   0.233  0.00  0.00    -0.440 C 
ATOM     18  C   LIG    1        1.412  -0.009   0.830  0.00  0.00    +0.100 C 
ATOM     19  C   LIG    1        2.369   1.097   0.353  0.00  0.00    +0.080 C 
ATOM     20  C   LIG    1        1.696   2.465   0.579  0.00  0.00    -0.270 C 
ATOM     21  S   LIG    1       -0.100   2.134   0.481  0.00  0.00    +2.350 S 
ATOM     22  O   LIG    1       -0.698   2.397   1.743  0.00  0.00    -0.920 OA
ATOM     23  O   LIG    1       -0.627   2.736  -0.693  0.00  0.00    -0.920 OA
ENDBRANCH  16  17
ENDBRANCH  13  16
ENDBRANCH   1  13
TORSDOF 5
