REMARK  Name = ZINCvU0000000I60.0
REMARK                            x       y       z     vdW  Elec       q    Type
REMARK                         _______ _______ _______ _____ _____    ______ ____
ROOT
ATOM      1  C   LIG    1       -0.555   6.344  -0.948  0.00  0.00    +0.200 A 
ATOM      2  N   LIG    1       -0.380   7.569  -0.541  0.00  0.00    -0.250 NA
ATOM      3  N   LIG    1        0.174   7.576   0.618  0.00  0.00    -0.290 NA
ATOM      4  C   LIG    1        0.381   6.344   1.022  0.00  0.00    +0.160 A 
ATOM      5  N   LIG    1       -0.073   5.517   0.032  0.00  0.00    -0.420 N 
ENDROOT
BRANCH   5   6
ATOM      6  C   LIG    1       -0.054   4.114   0.024  0.00  0.00    +0.090 A 
ATOM      7  C   LIG    1        1.157   3.436   0.009  0.00  0.00    +0.070 A 
ATOM      8  C   LIG    1        1.174   2.055   0.002  0.00  0.00    +0.010 A 
ATOM      9  C   LIG    1       -0.016   1.347   0.009  0.00  0.00    +0.120 A 
ATOM     10  C   LIG    1       -1.225   2.022   0.019  0.00  0.00    +0.010 A 
ATOM     11  F   LIG    1        0.002  -0.004   0.002  0.00  0.00    -0.130 F 
ATOM     12  C   LIG    1       -1.246   3.403   0.032  0.00  0.00    +0.070 A 
ENDBRANCH   5   6
BRANCH   1  14
ATOM     13  C   LIG    1       -0.174   6.149  -3.391  0.00  0.00    +0.070 C 
ATOM     14  C   LIG    1       -1.172   5.915  -2.255  0.00  0.00    +0.230 C 
BRANCH  14  15
ATOM     15  N   LIG    1       -2.388   6.700  -2.502  0.00  0.00    -0.520 NA
ATOM     16  C   LIG    1       -3.330   6.579  -1.382  0.00  0.00    +0.160 C 
ATOM     17  C   LIG    1       -4.516   7.520  -1.607  0.00  0.00    +0.040 C 
ATOM     18  C   LIG    1       -5.209   7.154  -2.922  0.00  0.00    +0.010 C 
ATOM     19  C   LIG    1       -4.195   7.242  -4.066  0.00  0.00    +0.020 C 
ATOM     20  C   LIG    1       -3.018   6.309  -3.770  0.00  0.00    +0.160 C 
ENDBRANCH  14  15
ENDBRANCH   1  14
BRANCH   4  21
ATOM     21  S   LIG    1        1.108   5.851   2.549  0.00  0.00    +0.010 S 
BRANCH  21  22
ATOM     22  C   LIG    1        1.428   7.473   3.284  0.00  0.00    +0.090 C 
BRANCH  22  23
ATOM     23  C   LIG    1        2.078   7.292   4.657  0.00  0.00    +0.060 C 
BRANCH  23  24
ATOM     24  C   LIG    1        2.349   8.664   5.279  0.00  0.00    +0.040 C 
BRANCH  24  25
ATOM     25  C   LIG    1        2.989   8.485   6.631  0.00  0.00    +0.430 C 
ATOM     26  O   LIG    1        3.207   7.369   7.057  0.00  0.00    -0.450 OA
BRANCH  25  27
ATOM     27  C   LIG    1        3.335   9.616   7.404  0.00  0.00    -0.310 A 
ATOM     28  C   LIG    1        3.920   9.584   8.644  0.00  0.00    +0.110 A 
ATOM     29  C   LIG    1        4.146  10.832   9.168  0.00  0.00    -0.010 A 
ATOM     30  C   LIG    1        3.764  11.854   8.391  0.00  0.00    -0.050 A 
ATOM     31  S   LIG    1        3.091  11.291   6.927  0.00  0.00    +0.230 S 
ENDBRANCH  25  27
ENDBRANCH  24  25
ENDBRANCH  23  24
ENDBRANCH  22  23
ENDBRANCH  21  22
ENDBRANCH   4  21
TORSDOF 9
