REMARK  Name = ZINCrD00000laHqd.0
REMARK                            x       y       z     vdW  Elec       q    Type
REMARK                         _______ _______ _______ _____ _____    ______ ____
ROOT
ATOM      1  C   LIG    1       -3.781   2.664  -1.673  0.00  0.00    +0.490 C 
ATOM      2  N   LIG    1       -2.817   3.561  -1.385  0.00  0.00    -0.580 N 
ATOM      3  O   LIG    1       -4.268   1.991  -0.789  0.00  0.00    -0.490 OA
ENDROOT
BRANCH   2   4
ATOM      4  C   LIG    1       -2.137   4.279  -2.466  0.00  0.00    +0.220 C 
ATOM      5  C   LIG    1       -2.907   4.481  -3.773  0.00  0.00    -0.000 C 
ATOM      6  C   LIG    1       -1.750   3.479  -3.711  0.00  0.00    +0.020 C 
ENDBRANCH   2   4
BRANCH   1   7
ATOM      7  C   LIG    1       -4.253   2.496  -3.095  0.00  0.00    +0.330 C 
BRANCH   7  19
ATOM      8  O   LIG    1       -6.927   2.167  -2.713  0.00  0.00    -0.500 OA
ATOM      9  C   LIG    1       -6.297   1.170  -3.014  0.00  0.00    +0.560 A 
ATOM     10  C   LIG    1       -6.957  -0.135  -3.161  0.00  0.00    -0.180 A 
ATOM     11  C   LIG    1       -8.327  -0.295  -2.964  0.00  0.00    +0.120 A 
ATOM     12  C   LIG    1       -8.894  -1.543  -3.114  0.00  0.00    -0.060 A 
ATOM     13  C   LIG    1       -8.111  -2.637  -3.459  0.00  0.00    +0.090 A 
ATOM     14  C   LIG    1       -6.756  -2.500  -3.658  0.00  0.00    +0.050 A 
ATOM     15 CL   LIG    1      -10.601  -1.748  -2.870  0.00  0.00    -0.060 Cl
ATOM     16  C   LIG    1       -6.158  -1.246  -3.512  0.00  0.00    +0.160 A 
ATOM     17  N   LIG    1       -4.827  -1.067  -3.698  0.00  0.00    -0.520 NA
ATOM     18  C   LIG    1       -4.272   0.100  -3.567  0.00  0.00    +0.580 A 
ATOM     19  N   LIG    1       -4.961   1.220  -3.227  0.00  0.00    -0.530 N 
ENDBRANCH   7  19
ENDBRANCH   1   7
BRANCH   2  20
ATOM     20  C   LIG    1       -2.449   3.817   0.010  0.00  0.00    +0.360 C 
BRANCH  20  21
ATOM     21  C   LIG    1       -1.345   2.877   0.420  0.00  0.00    -0.150 A 
ATOM     22  C   LIG    1       -0.050   3.342   0.541  0.00  0.00    +0.050 A 
ATOM     23  C   LIG    1        0.963   2.480   0.916  0.00  0.00    -0.010 A 
ATOM     24  C   LIG    1        0.682   1.151   1.171  0.00  0.00    +0.050 A 
ATOM     25  C   LIG    1       -0.613   0.683   1.051  0.00  0.00    -0.030 A 
ATOM     26  C   LIG    1       -1.627   1.544   0.670  0.00  0.00    +0.120 A 
ATOM     27  F   LIG    1       -2.893   1.087   0.546  0.00  0.00    -0.110 F 
ENDBRANCH  20  21
ENDBRANCH   2  20
TORSDOF 5
