REMARK  Name = ZINCrH000004tKM0.0
REMARK                            x       y       z     vdW  Elec       q    Type
REMARK                         _______ _______ _______ _____ _____    ______ ____
ROOT
ATOM      1  O   LIG    1        2.761  -5.636  -0.500  0.00  0.00    -0.510 OA
ATOM      2  C   LIG    1        2.504  -5.043  -1.526  0.00  0.00    +0.520 C 
ATOM      3  N   LIG    1        2.980  -5.496  -2.703  0.00  0.00    -0.660 N 
ATOM      4  H   LIG    1        2.713  -5.067  -3.531  0.00  0.00    +0.420 HD
ENDROOT
BRANCH   3   5
ATOM      5  C   LIG    1        3.858  -6.585  -2.730  0.00  0.00    +0.030 A 
ATOM      6  C   LIG    1        3.848  -7.483  -3.795  0.00  0.00    +0.310 A 
ATOM      7  N   LIG    1        4.696  -8.496  -3.790  0.00  0.00    -0.490 NA
ATOM      8  C   LIG    1        5.541  -8.669  -2.783  0.00  0.00    +0.340 A 
ATOM      9  N   LIG    1        5.575  -7.838  -1.750  0.00  0.00    -0.490 NA
ATOM     10  C   LIG    1        4.761  -6.799  -1.690  0.00  0.00    +0.340 A 
BRANCH   8  11
ATOM     11  C   LIG    1        6.472  -9.823  -2.812  0.00  0.00    -0.050 A 
ATOM     12  C   LIG    1        7.373 -10.021  -1.767  0.00  0.00    +0.070 A 
ATOM     13  C   LIG    1        8.233 -11.100  -1.796  0.00  0.00    +0.000 A 
ATOM     14  C   LIG    1        8.211 -11.977  -2.866  0.00  0.00    +0.030 A 
ATOM     15  C   LIG    1        7.323 -11.781  -3.909  0.00  0.00    +0.000 A 
ATOM     16  C   LIG    1        6.454 -10.710  -3.887  0.00  0.00    +0.070 A 
ENDBRANCH   8  11
ENDBRANCH   3   5
BRANCH   2  17
ATOM     17  C   LIG    1        1.654  -3.800  -1.485  0.00  0.00    +0.080 C 
BRANCH  17  18
ATOM     18  C   LIG    1        1.249  -3.506  -0.039  0.00  0.00    +0.220 C 
BRANCH  18  19
ATOM     19  C   LIG    1        0.398  -2.263   0.002  0.00  0.00    +0.160 A 
ATOM     20  N   LIG    1       -0.899  -2.212  -0.101  0.00  0.00    -0.280 NA
ATOM     21  N   LIG    1       -1.287  -0.988  -0.024  0.00  0.00    -0.280 NA
ATOM     22  C   LIG    1       -0.249  -0.215   0.131  0.00  0.00    +0.170 A 
ATOM     23  O   LIG    1        0.840  -1.002   0.145  0.00  0.00    -0.220 OA
BRANCH  22  24
ATOM     24  C   LIG    1       -0.267   1.286   0.263  0.00  0.00    +0.110 C 
ATOM     25  C   LIG    1       -1.141   1.700   1.465  0.00  0.00    +0.040 C 
ATOM     26  C   LIG    1       -1.850   2.994   0.990  0.00  0.00    +0.030 C 
ATOM     27  C   LIG    1       -2.149   2.693  -0.500  0.00  0.00    +0.020 C 
ATOM     28  C   LIG    1       -0.907   1.917  -0.986  0.00  0.00    +0.040 C 
ENDBRANCH  22  24
ENDBRANCH  18  19
ENDBRANCH  17  18
ENDBRANCH   2  17
TORSDOF 6
