REMARK  Name = ZINCvU00000008sS.0
REMARK                            x       y       z     vdW  Elec       q    Type
REMARK                         _______ _______ _______ _____ _____    ______ ____
ROOT
ATOM      1  C   LIG    1        0.190   6.046  -0.443  0.00  0.00    +0.210 A 
ATOM      2  C   LIG    1        1.549   6.079  -0.636  0.00  0.00    +0.020 A 
ATOM      3  C   LIG    1        2.116   6.937  -1.591  0.00  0.00    +0.080 A 
ATOM      4  C   LIG    1        1.277   7.772  -2.347  0.00  0.00    -0.010 A 
ATOM      5  C   LIG    1       -0.169   7.715  -2.111  0.00  0.00    +0.320 A 
ATOM      6  N   LIG    1       -1.171   8.373  -2.664  0.00  0.00    -0.490 NA
ATOM      7  C   LIG    1       -2.336   7.977  -2.114  0.00  0.00    +0.100 A 
ATOM      8  C   LIG    1       -3.670   8.343  -2.326  0.00  0.00    +0.060 A 
ATOM      9  C   LIG    1       -4.662   7.752  -1.598  0.00  0.00    +0.040 A 
ATOM     10  C   LIG    1       -4.363   6.788  -0.645  0.00  0.00    +0.020 A 
ATOM     11  C   LIG    1       -3.056   6.411  -0.418  0.00  0.00    +0.040 A 
ATOM     12  C   LIG    1       -2.033   6.999  -1.148  0.00  0.00    +0.020 A 
ATOM     13  N   LIG    1       -0.658   6.850  -1.163  0.00  0.00    -0.390 N 
ENDROOT
BRANCH   1  17
ATOM     14  C   LIG    1       -1.428   3.411   2.471  0.00  0.00    +0.130 A 
ATOM     15  C   LIG    1       -1.538   4.784   2.640  0.00  0.00    -0.030 A 
ATOM     16  C   LIG    1       -1.014   5.642   1.697  0.00  0.00    +0.050 A 
ATOM     17  C   LIG    1       -0.371   5.130   0.567  0.00  0.00    -0.090 A 
ATOM     18  C   LIG    1       -0.255   3.747   0.400  0.00  0.00    +0.000 A 
ATOM     19  C   LIG    1       -0.787   2.893   1.346  0.00  0.00    +0.100 A 
BRANCH  14  21
ATOM     20  C   LIG    1       -2.589   3.167   4.531  0.00  0.00    +0.250 C 
ATOM     21  O   LIG    1       -1.946   2.569   3.404  0.00  0.00    -0.300 OA
ENDBRANCH  14  21
BRANCH  19  22
ATOM     22  O   LIG    1       -0.682   1.547   1.184  0.00  0.00    -0.300 OA
ATOM     23  C   LIG    1       -0.013   1.086   0.008  0.00  0.00    +0.250 C 
ENDBRANCH  19  22
ENDBRANCH   1  17
BRANCH   3  24
ATOM     24  C   LIG    1        3.581   6.963  -1.798  0.00  0.00    -0.080 A 
ATOM     25  C   LIG    1        4.240   5.836  -2.291  0.00  0.00    +0.040 A 
ATOM     26  C   LIG    1        5.606   5.869  -2.485  0.00  0.00    +0.010 A 
ATOM     27  C   LIG    1        6.323   7.012  -2.182  0.00  0.00    +0.030 A 
ATOM     28  C   LIG    1        5.677   8.132  -1.689  0.00  0.00    +0.010 A 
ATOM     29  C   LIG    1        4.311   8.114  -1.495  0.00  0.00    +0.040 A 
ENDBRANCH   3  24
BRANCH   4  30
ATOM     30  C   LIG    1        1.823   8.662  -3.327  0.00  0.00    +0.270 C 
ATOM     31  N   LIG    1        2.256   9.368  -4.104  0.00  0.00    -0.390 NA
ENDBRANCH   4  30
TORSDOF 5
