REMARK  Name = ZINCpe000027pGUh.0
REMARK                            x       y       z     vdW  Elec       q    Type
REMARK                         _______ _______ _______ _____ _____    ______ ____
ROOT
ATOM      1  N   LIG    1       -5.254   1.492   3.335  0.00  0.00    -0.250 N 
ATOM      2  C   LIG    1       -4.117   1.166   2.662  0.00  0.00    +0.160 A 
ATOM      3  C   LIG    1       -4.486   0.269   1.718  0.00  0.00    -0.010 A 
ATOM      4  N   LIG    1       -5.806   0.095   1.852  0.00  0.00    -0.250 NA
ATOM      5  N   LIG    1       -6.229   0.829   2.820  0.00  0.00    -0.070 NA
ENDROOT
BRANCH   1   9
ATOM      6  C   LIG    1       -7.996   3.791   6.711  0.00  0.00    +0.120 C 
ATOM      7  C   LIG    1       -6.663   3.527   6.058  0.00  0.00    -0.020 A 
ATOM      8  C   LIG    1       -6.575   2.638   5.005  0.00  0.00    +0.040 A 
ATOM      9  C   LIG    1       -5.347   2.395   4.404  0.00  0.00    +0.150 A 
ATOM     10  C   LIG    1       -4.210   3.044   4.868  0.00  0.00    +0.020 A 
ATOM     11  C   LIG    1       -4.305   3.937   5.917  0.00  0.00    -0.020 A 
ATOM     12  C   LIG    1       -3.073   4.646   6.416  0.00  0.00    +0.120 C 
ATOM     13  C   LIG    1       -5.530   4.176   6.514  0.00  0.00    -0.110 A 
ATOM     14  I   LIG    1       -5.669   5.526   8.110  0.00  0.00    -0.020 I 
ENDBRANCH   1   9
BRANCH   3  15
ATOM     15  C   LIG    1       -3.587  -0.400   0.709  0.00  0.00    +0.150 C 
BRANCH  15  16
ATOM     16  C   LIG    1       -3.734  -1.918   0.822  0.00  0.00    +0.180 C 
BRANCH  16  17
ATOM     17  N   LIG    1       -2.767  -2.571  -0.070  0.00  0.00    -0.520 NA
ATOM     18  C   LIG    1       -2.942  -4.030  -0.058  0.00  0.00    +0.280 C 
ATOM     19  C   LIG    1       -4.189  -4.404  -0.808  0.00  0.00    +0.490 C 
ATOM     20  N   LIG    1       -4.802  -3.570  -1.654  0.00  0.00    -0.710 N 
ATOM     21  H   LIG    1       -5.590  -3.883  -2.125  0.00  0.00    +0.410 HD
ATOM     22  CA  LIG    1       -4.338  -2.208  -1.902  0.00  0.00    +0.190 C 
ATOM     23  O   LIG    1       -4.660  -5.509  -0.638  0.00  0.00    -0.550 OA
ATOM     24  C   LIG    1       -2.886  -2.057  -1.444  0.00  0.00    +0.240 C 
BRANCH  22  25
ATOM     25  C   LIG    1       -4.433  -1.903  -3.398  0.00  0.00    +0.190 C 
BRANCH  25  26
ATOM     26  O   LIG    1       -5.804  -1.915  -3.801  0.00  0.00    -0.570 OA
ATOM     27  H   LIG    1       -5.939  -1.729  -4.740  0.00  0.00    +0.390 HD
ENDBRANCH  25  26
ENDBRANCH  22  25
ENDBRANCH  16  17
ENDBRANCH  15  16
ENDBRANCH   3  15
TORSDOF 6
