REMARK  Name = ZINCzw0000000beQ.1
REMARK                            x       y       z     vdW  Elec       q    Type
REMARK                         _______ _______ _______ _____ _____    ______ ____
ROOT
ATOM      1  C   LIG    1       -1.132  -0.535  -4.777  0.00  0.00    +0.030 A 
ATOM      2  C   LIG    1       -0.725  -0.011  -5.965  0.00  0.00    -0.040 A 
ATOM      3  N   LIG    1       -1.836   0.451  -6.600  0.00  0.00    -0.460 NA
ATOM      4  C   LIG    1       -2.866   0.233  -5.840  0.00  0.00    +0.450 A 
ATOM      5  O   LIG    1       -2.464  -0.372  -4.713  0.00  0.00    -0.190 OA
ENDROOT
BRANCH   2   6
ATOM      6  C   LIG    1        0.659   0.042  -6.471  0.00  0.00    +0.600 C 
ATOM      7  N   LIG    1        0.903   0.484  -7.720  0.00  0.00    -0.590 N 
ATOM      8  C   LIG    1       -0.201   0.796  -8.640  0.00  0.00    +0.310 C 
ATOM      9  C   LIG    1        0.030   2.205  -9.209  0.00  0.00    +0.190 C 
ATOM     10  N   LIG    1        1.371   2.274  -9.804  0.00  0.00    -0.460 N 
ATOM     11  C   LIG    1        2.415   2.069  -8.790  0.00  0.00    +0.230 C 
ATOM     12  C   LIG    1        2.282   0.660  -8.202  0.00  0.00    +0.310 C 
ATOM     13  O   LIG    1        1.580  -0.313  -5.760  0.00  0.00    -0.530 OA
BRANCH  10  14
ATOM     14  C   LIG    1        1.557   3.472 -10.473  0.00  0.00    +0.390 A 
ATOM     15  N   LIG    1        2.525   4.331 -10.254  0.00  0.00    -0.510 NA
ATOM     16  C   LIG    1        2.389   5.376 -11.088  0.00  0.00    +0.160 A 
ATOM     17  C   LIG    1        1.303   5.167 -11.852  0.00  0.00    +0.130 A 
ATOM     18  N   LIG    1        0.771   3.956 -11.471  0.00  0.00    -0.570 N 
ATOM     19  H   LIG    1       -0.017   3.530 -11.843  0.00  0.00    +0.420 HD
ENDBRANCH  10  14
ENDBRANCH   2   6
BRANCH   1  25
ATOM     20  C   LIG    1       -0.593   0.624  -2.009  0.00  0.00    +0.520 C 
ATOM     21  N   LIG    1       -0.623  -0.667  -2.397  0.00  0.00    -0.590 N 
ATOM     22  C   LIG    1       -1.023  -1.808  -1.554  0.00  0.00    +0.250 C 
ATOM     23  C   LIG    1       -1.483  -2.897  -2.558  0.00  0.00    +0.050 C 
ATOM     24  C   LIG    1       -0.470  -2.698  -3.716  0.00  0.00    +0.060 C 
ATOM     25  C   LIG    1       -0.255  -1.170  -3.729  0.00  0.00    +0.360 C 
ATOM     26  O   LIG    1       -0.240   1.483  -2.789  0.00  0.00    -0.510 OA
BRANCH  20  32
ATOM     27  N   LIG    1       -1.600   2.337  -0.614  0.00  0.00    -0.370 N 
ATOM     28  C   LIG    1       -2.067   2.680   0.735  0.00  0.00    +0.260 C 
ATOM     29  C   LIG    1       -0.875   2.741   1.692  0.00  0.00    +0.060 C 
ATOM     30  C   LIG    1       -0.180   1.376   1.722  0.00  0.00    +0.060 C 
ATOM     31  C   LIG    1        0.235   0.995   0.298  0.00  0.00    +0.090 C 
ATOM     32  C   LIG    1       -0.998   0.999  -0.607  0.00  0.00    +0.160 C 
ATOM     33  H   LIG    1       -0.912   3.013  -0.912  0.00  0.00    +0.430 HD
BRANCH  27  34
ATOM     34  C   LIG    1       -2.738   2.356  -1.543  0.00  0.00    +0.240 C 
BRANCH  34  35
ATOM     35  C   LIG    1       -3.301   3.776  -1.631  0.00  0.00    +0.040 C 
BRANCH  35  37
ATOM     36  C   LIG    1       -5.048   5.216  -2.687  0.00  0.00    +0.030 C 
ATOM     37  C   LIG    1       -4.486   3.796  -2.599  0.00  0.00    +0.020 C 
ENDBRANCH  35  37
ENDBRANCH  34  35
ENDBRANCH  27  34
ENDBRANCH  20  32
ENDBRANCH   1  25
TORSDOF 7
