REMARK  Name = ZINCzw0000000beQ.0
REMARK                            x       y       z     vdW  Elec       q    Type
REMARK                         _______ _______ _______ _____ _____    ______ ____
ROOT
ATOM      1  C   LIG    1        0.021  -0.036   0.175  0.00  0.00    +0.030 A 
ATOM      2  C   LIG    1        0.052   1.323   0.228  0.00  0.00    -0.040 A 
ATOM      3  N   LIG    1        1.340   1.685   0.475  0.00  0.00    -0.460 NA
ATOM      4  C   LIG    1        2.060   0.607   0.569  0.00  0.00    +0.450 A 
ATOM      5  O   LIG    1        1.275  -0.465   0.388  0.00  0.00    -0.200 OA
ENDROOT
BRANCH   2   6
ATOM      6  C   LIG    1       -1.094   2.233   0.046  0.00  0.00    +0.600 C 
ATOM      7  N   LIG    1       -0.942   3.557   0.249  0.00  0.00    -0.590 N 
ATOM      8  C   LIG    1        0.318   4.099   0.780  0.00  0.00    +0.310 C 
ATOM      9  C   LIG    1        0.778   5.239  -0.143  0.00  0.00    +0.190 C 
ATOM     10  N   LIG    1       -0.308   6.217  -0.284  0.00  0.00    -0.460 N 
ATOM     11  C   LIG    1       -1.483   5.619  -0.933  0.00  0.00    +0.240 C 
ATOM     12  C   LIG    1       -2.034   4.496  -0.048  0.00  0.00    +0.310 C 
ATOM     13  O   LIG    1       -2.176   1.789  -0.288  0.00  0.00    -0.530 OA
BRANCH  10  14
ATOM     14  C   LIG    1        0.121   7.340  -0.973  0.00  0.00    +0.390 A 
ATOM     15  N   LIG    1       -0.426   7.829  -2.060  0.00  0.00    -0.510 NA
ATOM     16  C   LIG    1        0.254   8.921  -2.447  0.00  0.00    +0.160 A 
ATOM     17  C   LIG    1        1.258   9.124  -1.577  0.00  0.00    +0.130 A 
ATOM     18  N   LIG    1        1.178   8.125  -0.633  0.00  0.00    -0.570 N 
ATOM     19  H   LIG    1        1.766   8.004   0.130  0.00  0.00    +0.420 HD
ENDBRANCH  10  14
ENDBRANCH   2   6
BRANCH   1  25
ATOM     20  C   LIG    1       -0.465  -1.750  -2.319  0.00  0.00    +0.520 C 
ATOM     21  N   LIG    1       -0.863  -1.951  -1.047  0.00  0.00    -0.600 N 
ATOM     22  C   LIG    1       -1.040  -3.263  -0.399  0.00  0.00    +0.260 C 
ATOM     23  C   LIG    1       -2.049  -3.005   0.748  0.00  0.00    +0.060 C 
ATOM     24  C   LIG    1       -1.617  -1.596   1.232  0.00  0.00    +0.070 C 
ATOM     25  C   LIG    1       -1.190  -0.897  -0.076  0.00  0.00    +0.360 C 
ATOM     26  O   LIG    1       -0.266  -0.624  -2.722  0.00  0.00    -0.490 OA
BRANCH  20  32
ATOM     27  N   LIG    1        1.081  -2.875  -3.817  0.00  0.00    -0.370 N 
ATOM     28  C   LIG    1        1.278  -1.597  -4.512  0.00  0.00    +0.250 C 
ATOM     29  C   LIG    1        0.298  -1.494  -5.683  0.00  0.00    +0.060 C 
ATOM     30  C   LIG    1       -1.135  -1.571  -5.150  0.00  0.00    +0.050 C 
ATOM     31  C   LIG    1       -1.307  -2.873  -4.363  0.00  0.00    +0.080 C 
ATOM     32  C   LIG    1       -0.268  -2.926  -3.241  0.00  0.00    +0.160 C 
ATOM     33  H   LIG    1        1.196  -3.634  -4.471  0.00  0.00    +0.430 HD
BRANCH  27  34
ATOM     34  C   LIG    1        2.075  -3.004  -2.743  0.00  0.00    +0.230 C 
BRANCH  34  35
ATOM     35  C   LIG    1        3.477  -3.076  -3.351  0.00  0.00    +0.030 C 
BRANCH  35  37
ATOM     36  C   LIG    1        5.914  -3.283  -2.841  0.00  0.00    +0.030 C 
ATOM     37  C   LIG    1        4.512  -3.211  -2.233  0.00  0.00    +0.020 C 
ENDBRANCH  35  37
ENDBRANCH  34  35
ENDBRANCH  27  34
ENDBRANCH  20  32
ENDBRANCH   1  25
TORSDOF 7
