REMARK  Name = ZINCpk00000eaYu4.0
REMARK                            x       y       z     vdW  Elec       q    Type
REMARK                         _______ _______ _______ _____ _____    ______ ____
ROOT
ATOM      1  C   LIG    1       -0.013   1.086   0.008  0.00  0.00    +0.420 C 
ENDROOT
BRANCH   1   2
ATOM      2  N   LIG    1       -0.721   1.571  -1.179  0.00  0.00    -0.530 N 
ATOM      3  C   LIG    1       -1.701   0.827  -1.720  0.00  0.00    +0.710 A 
ATOM      4  N   LIG    1       -2.393   1.212  -2.803  0.00  0.00    -0.660 N 
ATOM      5  H   LIG    1       -3.093   0.636  -3.150  0.00  0.00    +0.440 HD
ATOM      6  C   LIG    1       -2.132   2.383  -3.423  0.00  0.00    +0.570 A 
ATOM      7  C   LIG    1       -1.063   3.239  -2.876  0.00  0.00    -0.190 A 
ATOM      8  C   LIG    1       -0.734   4.461  -3.457  0.00  0.00    +0.140 A 
ATOM      9  C   LIG    1        0.274   5.225  -2.907  0.00  0.00    -0.010 A 
ATOM     10  C   LIG    1        0.956   4.784  -1.784  0.00  0.00    +0.100 A 
ATOM     11  C   LIG    1        0.639   3.574  -1.198  0.00  0.00    -0.030 A 
ATOM     12  O   LIG    1       -2.761   2.723  -4.406  0.00  0.00    -0.490 OA
ATOM     13  O   LIG    1       -1.974  -0.240  -1.204  0.00  0.00    -0.540 OA
ATOM     14  C   LIG    1       -0.371   2.792  -1.737  0.00  0.00    +0.200 A 
ENDBRANCH   1   2
BRANCH   1  15
ATOM     15  C   LIG    1       -0.718   1.572   1.248  0.00  0.00    +0.450 C 
ATOM     16  O   LIG    1       -1.711   2.254   1.150  0.00  0.00    -0.490 OA
BRANCH  15  17
ATOM     17  O   LIG    1       -0.243   1.247   2.461  0.00  0.00    -0.330 OA
BRANCH  17  18
ATOM     18  C   LIG    1       -0.974   1.750   3.611  0.00  0.00    +0.240 C 
BRANCH  18  19
ATOM     19  C   LIG    1       -0.298   1.288   4.876  0.00  0.00    +0.430 C 
ATOM     20  O   LIG    1        0.701   0.601   4.815  0.00  0.00    -0.430 OA
BRANCH  19  25
ATOM     21  C   LIG    1       -3.028   3.166   9.078  0.00  0.00    +0.160 C 
ATOM     22  C   LIG    1       -2.095   2.525   8.083  0.00  0.00    -0.170 A 
ATOM     23  C   LIG    1       -1.024   1.790   8.412  0.00  0.00    -0.020 A 
ATOM     24  C   LIG    1       -0.310   1.292   7.351  0.00  0.00    +0.140 A 
ATOM     25  C   LIG    1       -0.828   1.653   6.133  0.00  0.00    -0.320 A 
ATOM     26  S   LIG    1       -2.263   2.638   6.389  0.00  0.00    +0.220 S 
ENDBRANCH  19  25
ENDBRANCH  18  19
ENDBRANCH  17  18
ENDBRANCH  15  17
ENDBRANCH   1  15
TORSDOF 6
