REMARK  Name = ZINCqH0000006980.0
REMARK                            x       y       z     vdW  Elec       q    Type
REMARK                         _______ _______ _______ _____ _____    ______ ____
ROOT
ATOM      1  C   LIG    1        0.040  10.193  -1.875  0.00  0.00    +0.140 C 
ATOM      2  C   LIG    1       -0.372  10.058  -0.408  0.00  0.00    +0.000 C 
ATOM      3  C   LIG    1       -1.871   9.754  -0.328  0.00  0.00    +0.270 C 
ATOM      4  N   LIG    1       -2.157   8.567  -1.146  0.00  0.00    -0.630 N 
ATOM      5  C   LIG    1       -1.721   8.555  -2.550  0.00  0.00    +0.310 C 
ATOM      6  C   LIG    1       -2.805   7.510  -0.619  0.00  0.00    +0.700 C 
ATOM      7  N   LIG    1       -3.109   7.492   0.694  0.00  0.00    -0.740 N 
ATOM      8  H   LIG    1       -2.928   8.269   1.244  0.00  0.00    +0.400 HD
ATOM      9  O   LIG    1       -3.116   6.572  -1.328  0.00  0.00    -0.590 OA
ATOM     10  C   LIG    1       -0.224   8.873  -2.604  0.00  0.00    +0.050 C 
ENDROOT
BRANCH   1  11
ATOM     11  O   LIG    1       -0.720  11.236  -2.489  0.00  0.00    -0.550 OA
ATOM     12  H   LIG    1       -0.601  12.103  -2.078  0.00  0.00    +0.380 HD
ENDBRANCH   1  11
BRANCH   1  13
ATOM     13  C   LIG    1        1.530  10.531  -1.958  0.00  0.00    +0.150 C 
BRANCH  13  15
ATOM     14  C   LIG    1        3.167  12.105  -1.190  0.00  0.00    +0.200 C 
ATOM     15  O   LIG    1        1.796  11.701  -1.181  0.00  0.00    -0.390 OA
ENDBRANCH  13  15
ENDBRANCH   1  13
BRANCH   7  16
ATOM     16  C   LIG    1       -3.713   6.297   1.289  0.00  0.00    +0.280 C 
BRANCH  16  17
ATOM     17  C   LIG    1       -4.125   6.599   2.731  0.00  0.00    -0.060 C 
ATOM     18  C   LIG    1       -2.937   7.201   3.485  0.00  0.00    +0.020 C 
ATOM     19  C   LIG    1       -1.775   6.205   3.484  0.00  0.00    +0.000 C 
ATOM     20  C   LIG    1       -2.212   4.910   4.171  0.00  0.00    +0.000 C 
ATOM     21  C   LIG    1       -3.400   4.308   3.417  0.00  0.00    +0.000 C 
ATOM     22  C   LIG    1       -4.562   5.304   3.419  0.00  0.00    +0.030 C 
BRANCH  17  23
ATOM     23  C   LIG    1       -5.287   7.594   2.733  0.00  0.00    +0.000 C 
ATOM     24  C   LIG    1       -6.520   6.939   2.108  0.00  0.00    +0.020 C 
ATOM     25  C   LIG    1       -7.682   7.934   2.110  0.00  0.00    +0.000 C 
ATOM     26  C   LIG    1       -7.295   9.171   1.296  0.00  0.00    +0.000 C 
ATOM     27  C   LIG    1       -6.062   9.826   1.921  0.00  0.00    +0.000 C 
ATOM     28  C   LIG    1       -4.900   8.831   1.919  0.00  0.00    +0.010 C 
ENDBRANCH  17  23
ENDBRANCH  16  17
ENDBRANCH   7  16
TORSDOF 6
