REMARK  Name = ZINCpe000000URnS.0
REMARK                            x       y       z     vdW  Elec       q    Type
REMARK                         _______ _______ _______ _____ _____    ______ ____
ROOT
ATOM      1  C   LIG    1       -5.993   3.044  -0.950  0.00  0.00    -0.010 C 
ATOM      2  C   LIG    1       -5.903   1.522  -0.820  0.00  0.00    +0.060 C 
ATOM      3  C   LIG    1       -4.984   1.167   0.353  0.00  0.00    +0.290 C 
ATOM      4  N   LIG    1       -3.689   1.834   0.157  0.00  0.00    -0.590 N 
ATOM      5  C   LIG    1       -3.668   3.286  -0.063  0.00  0.00    +0.290 C 
ATOM      6  C   LIG    1       -2.542   1.127   0.184  0.00  0.00    +0.590 C 
ATOM      7  O   LIG    1       -2.576  -0.084   0.281  0.00  0.00    -0.520 OA
ATOM      8  C   LIG    1       -4.603   3.616  -1.236  0.00  0.00    +0.020 C 
ENDROOT
BRANCH   6   9
ATOM      9  C   LIG    1       -1.241   1.825   0.097  0.00  0.00    +0.030 A 
ATOM     10  N   LIG    1       -1.167   3.109   0.368  0.00  0.00    -0.180 NA
ATOM     11  N   LIG    1       -0.062   3.761   0.302  0.00  0.00    -0.290 N 
ATOM     12  C   LIG    1        1.093   3.165  -0.047  0.00  0.00    +0.480 A 
ATOM     13  C   LIG    1        1.102   1.786  -0.349  0.00  0.00    +0.000 A 
ATOM     14  O   LIG    1        2.126   3.812  -0.101  0.00  0.00    -0.500 OA
ATOM     15  C   LIG    1       -0.079   1.107  -0.274  0.00  0.00    +0.140 A 
BRANCH  11  16
ATOM     16  C   LIG    1       -0.060   5.128   0.599  0.00  0.00    +0.110 A 
ATOM     17  C   LIG    1        0.508   6.032  -0.289  0.00  0.00    +0.050 A 
ATOM     18  C   LIG    1        0.503   7.382   0.006  0.00  0.00    +0.030 A 
ATOM     19  C   LIG    1       -0.055   7.831   1.188  0.00  0.00    +0.030 A 
ATOM     20  C   LIG    1       -0.617   6.933   2.077  0.00  0.00    +0.030 A 
ATOM     21  C   LIG    1       -0.621   5.583   1.786  0.00  0.00    +0.040 A 
ENDBRANCH  11  16
ENDBRANCH   6   9
BRANCH   1  25
ATOM     22  C   LIG    1       -8.062   5.031  -3.485  0.00  0.00    +0.290 C 
ATOM     23  N   LIG    1       -7.158   4.689  -2.384  0.00  0.00    -0.740 N 
ATOM     24  H   LIG    1       -6.728   5.392  -1.873  0.00  0.00    +0.400 HD
ATOM     25  C   LIG    1       -6.923   3.396  -2.082  0.00  0.00    +0.520 C 
ATOM     26  O   LIG    1       -7.461   2.517  -2.721  0.00  0.00    -0.530 OA
ENDBRANCH   1  25
TORSDOF 3
