REMARK  Name = ZINCqH0000003Y6w.0
REMARK                            x       y       z     vdW  Elec       q    Type
REMARK                         _______ _______ _______ _____ _____    ______ ____
ROOT
ATOM      1  C   LIG    1       -5.351   1.628  -2.736  0.00  0.00    +0.170 A 
ATOM      2  C   LIG    1       -5.134   2.796  -3.456  0.00  0.00    -0.010 A 
ATOM      3  C   LIG    1       -6.157   3.357  -4.200  0.00  0.00    +0.030 A 
ATOM      4  C   LIG    1       -7.403   2.766  -4.224  0.00  0.00    +0.020 A 
ATOM      5  C   LIG    1       -7.633   1.593  -3.499  0.00  0.00    +0.030 A 
ATOM      6  C   LIG    1       -6.599   1.025  -2.753  0.00  0.00    +0.050 A 
ENDROOT
BRANCH   1  10
ATOM      7  N   LIG    1       -3.596  -0.214  -0.170  0.00  0.00    -0.730 N 
ATOM      8  H   LIG    1       -2.693  -0.211  -0.524  0.00  0.00    +0.400 HD
ATOM      9  C   LIG    1       -4.581   0.422  -0.835  0.00  0.00    +0.700 C 
ATOM     10  N   LIG    1       -4.311   1.062  -1.990  0.00  0.00    -0.690 N 
ATOM     11  H   LIG    1       -3.396   1.131  -2.303  0.00  0.00    +0.410 HD
ATOM     12  O   LIG    1       -5.714   0.419  -0.392  0.00  0.00    -0.570 OA
BRANCH   7  13
ATOM     13  C   LIG    1       -3.890  -0.910   1.085  0.00  0.00    +0.250 C 
ATOM     14  C   LIG    1       -3.830   0.086   2.246  0.00  0.00    +0.020 C 
BRANCH  13  16
ATOM     15  C   LIG    1       -3.002  -3.077   0.215  0.00  0.00    +0.020 C 
ATOM     16  C   LIG    1       -2.857  -2.017   1.308  0.00  0.00    +0.020 C 
ENDBRANCH  13  16
ENDBRANCH   7  13
ENDBRANCH   1  10
BRANCH   5  17
ATOM     17  C   LIG    1       -8.926   0.977  -3.521  0.00  0.00    -0.100 C 
ATOM     18  C   LIG    1       -9.986   0.472  -3.539  0.00  0.00    -0.120 C 
BRANCH  18  19
ATOM     19  C   LIG    1      -11.278  -0.144  -3.562  0.00  0.00    +0.010 A 
ATOM     20  C   LIG    1      -11.507  -1.320  -2.841  0.00  0.00    +0.080 A 
ATOM     21  C   LIG    1      -12.754  -1.911  -2.856  0.00  0.00    +0.010 A 
ATOM     22  C   LIG    1      -13.781  -1.354  -3.593  0.00  0.00    +0.090 A 
ATOM     23  C   LIG    1      -13.565  -0.182  -4.323  0.00  0.00    -0.130 A 
ATOM     24  C   LIG    1      -12.311   0.424  -4.307  0.00  0.00    +0.110 A 
BRANCH  23  25
ATOM     25  C   LIG    1      -14.666   0.413  -5.109  0.00  0.00    +0.510 C 
ATOM     26  O   LIG    1      -14.477   1.432  -5.743  0.00  0.00    -0.500 OA
BRANCH  25  27
ATOM     27  O   LIG    1      -15.878  -0.175  -5.123  0.00  0.00    -0.350 OA
ATOM     28  C   LIG    1      -16.911   0.465  -5.918  0.00  0.00    +0.290 C 
ENDBRANCH  25  27
ENDBRANCH  23  25
ENDBRANCH  18  19
ENDBRANCH   5  17
TORSDOF 7
