REMARK  Name = ZINCzw000000078N.1
REMARK                            x       y       z     vdW  Elec       q    Type
REMARK                         _______ _______ _______ _____ _____    ______ ____
ROOT
ATOM      1  N   LIG    1       -1.415   2.973  -1.280  0.00  0.00    -0.500 N 
ATOM      2  C   LIG    1       -1.857   2.595  -2.542  0.00  0.00    +0.590 C 
ATOM      3  C   LIG    1       -1.167   3.197  -3.703  0.00  0.00    -0.300 C 
ATOM      4  C   LIG    1       -0.524   4.417  -3.514  0.00  0.00    +0.330 C 
ATOM      5  C   LIG    1       -0.529   5.002  -2.240  0.00  0.00    -0.350 A 
ATOM      6  C   LIG    1       -0.050   6.321  -2.039  0.00  0.00    +0.560 A 
ATOM      7  O   LIG    1        0.405   6.966  -2.968  0.00  0.00    -0.460 OA
ATOM      8  N   LIG    1       -0.108   6.848  -0.796  0.00  0.00    -0.430 N 
ATOM      9  C   LIG    1        0.333   8.122  -0.592  0.00  0.00    +0.310 A 
ATOM     10  C   LIG    1        0.281   8.684   0.636  0.00  0.00    +0.040 A 
ATOM     11  C   LIG    1       -0.231   7.958   1.720  0.00  0.00    +0.180 A 
ATOM     12  C   LIG    1       -0.672   6.682   1.528  0.00  0.00    -0.100 A 
ATOM     13  C   LIG    1       -1.226   5.889   2.682  0.00  0.00    +0.160 C 
ATOM     14  C   LIG    1       -0.606   6.112   0.243  0.00  0.00    +0.450 A 
ATOM     15  N   LIG    1       -1.029   4.858   0.070  0.00  0.00    -0.560 NA
ATOM     16  C   LIG    1       -1.003   4.279  -1.117  0.00  0.00    +0.500 A 
ENDROOT
BRANCH   3  17
ATOM     17  C   LIG    1       -1.160   2.530  -5.010  0.00  0.00    +0.590 C 
ATOM     18  N   LIG    1       -0.446   3.051  -6.028  0.00  0.00    -0.710 N 
ATOM     19  H   LIG    1        0.122   3.822  -5.877  0.00  0.00    +0.400 HD
ATOM     20  O   LIG    1       -1.800   1.508  -5.175  0.00  0.00    -0.540 OA
BRANCH  18  21
ATOM     21  C   LIG    1       -0.529   2.451  -7.362  0.00  0.00    +0.280 C 
BRANCH  21  22
ATOM     22  C   LIG    1        0.371   3.226  -8.326  0.00  0.00    +0.070 C 
BRANCH  22  23
ATOM     23  C   LIG    1        0.286   2.610  -9.699  0.00  0.00    -0.090 A 
ATOM     24  C   LIG    1        1.165   1.605 -10.059  0.00  0.00    +0.020 A 
ATOM     25  C   LIG    1        1.088   1.033 -11.316  0.00  0.00    -0.030 A 
ATOM     26  C   LIG    1        0.135   1.473 -12.220  0.00  0.00    +0.110 A 
ATOM     27  C   LIG    1       -0.746   2.489 -11.859  0.00  0.00    +0.100 A 
ATOM     28  C   LIG    1       -0.667   3.054 -10.597  0.00  0.00    -0.030 A 
BRANCH  27  29
ATOM     29  O   LIG    1       -1.683   2.924 -12.743  0.00  0.00    -0.300 OA
ATOM     30  C   LIG    1       -2.554   3.969 -12.304  0.00  0.00    +0.240 C 
ENDBRANCH  27  29
BRANCH  26  31
ATOM     31  O   LIG    1        0.062   0.915 -13.458  0.00  0.00    -0.310 OA
ATOM     32  C   LIG    1        0.998  -0.121 -13.759  0.00  0.00    +0.240 C 
ENDBRANCH  26  31
ENDBRANCH  22  23
ENDBRANCH  21  22
ENDBRANCH  18  21
ENDBRANCH   3  17
BRANCH   2  33
ATOM     33  N   LIG    1       -2.840   1.745  -2.696  0.00  0.00    -0.700 NA
ATOM     34  H   LIG    1       -3.185   1.557  -3.583  0.00  0.00    +0.460 HD
ATOM     35  H   LIG    1       -3.224   1.302  -1.923  0.00  0.00    +0.430 HD
ENDBRANCH   2  33
BRANCH   1  36
ATOM     36  C   LIG    1       -1.392   2.022  -0.165  0.00  0.00    +0.360 C 
BRANCH  36  38
ATOM     37  C   LIG    1       -0.013   0.008  -0.156  0.00  0.00    +0.100 C 
ATOM     38  C   LIG    1       -0.061   1.317  -0.133  0.00  0.00    -0.090 C 
ENDBRANCH  36  38
ENDBRANCH   1  36
TORSDOF 9
