REMARK  Name = ZINCtV000002AAmy.0
REMARK                            x       y       z     vdW  Elec       q    Type
REMARK                         _______ _______ _______ _____ _____    ______ ____
ROOT
ATOM      1  C   LIG    1        1.191   1.793   0.074  0.00  0.00    +0.210 A 
ATOM      2  N   LIG    1        1.222   3.110   0.063  0.00  0.00    -0.450 NA
ATOM      3  C   LIG    1        0.112   3.849   0.039  0.00  0.00    +0.130 A 
ATOM      4  C   LIG    1        0.175   5.254   0.030  0.00  0.00    +0.050 A 
ATOM      5  C   LIG    1       -0.975   5.982   0.006  0.00  0.00    +0.030 A 
ATOM      6  C   LIG    1       -2.220   5.358  -0.009  0.00  0.00    +0.020 A 
ATOM      7  C   LIG    1       -2.321   3.998  -0.000  0.00  0.00    +0.060 A 
ATOM      8  C   LIG    1       -1.159   3.220   0.024  0.00  0.00    -0.070 A 
ATOM      9  C   LIG    1       -1.218   1.758   0.029  0.00  0.00    -0.070 A 
ATOM     10  C   LIG    1       -0.013   1.071   0.060  0.00  0.00    +0.020 A 
ENDROOT
BRANCH   1  14
ATOM     11  C   LIG    1        4.866  -0.345   0.151  0.00  0.00    +0.150 A 
ATOM     12  C   LIG    1        4.872   1.044   0.139  0.00  0.00    -0.020 A 
ATOM     13  C   LIG    1        3.683   1.740   0.114  0.00  0.00    +0.110 A 
ATOM     14  C   LIG    1        2.472   1.048   0.100  0.00  0.00    -0.100 A 
ATOM     15  C   LIG    1        2.469  -0.346   0.117  0.00  0.00    +0.070 A 
ATOM     16  C   LIG    1        3.662  -1.037   0.137  0.00  0.00    -0.080 A 
BRANCH  11  18
ATOM     17  C   LIG    1        5.960  -2.455   0.186  0.00  0.00    +0.240 C 
ATOM     18  O   LIG    1        6.040  -1.028   0.175  0.00  0.00    -0.310 OA
ENDBRANCH  11  18
ENDBRANCH   1  14
BRANCH   9  19
ATOM     19  C   LIG    1       -2.511   1.040   0.007  0.00  0.00    +0.570 C 
ATOM     20  N   LIG    1       -2.534  -0.304  -0.090  0.00  0.00    -0.660 N 
ATOM     21  H   LIG    1       -1.703  -0.805  -0.089  0.00  0.00    +0.410 HD
ATOM     22  O   LIG    1       -3.553   1.662   0.077  0.00  0.00    -0.500 OA
BRANCH  20  23
ATOM     23  C   LIG    1       -3.755  -0.976  -0.194  0.00  0.00    +0.150 A 
ATOM     24  C   LIG    1       -4.912  -0.401   0.315  0.00  0.00    +0.050 A 
ATOM     25  C   LIG    1       -6.119  -1.066   0.207  0.00  0.00    -0.020 A 
ATOM     26  C   LIG    1       -6.173  -2.309  -0.400  0.00  0.00    +0.020 A 
ATOM     27  C   LIG    1       -5.021  -2.886  -0.903  0.00  0.00    +0.050 A 
ATOM     28 CL   LIG    1       -7.567  -0.345   0.837  0.00  0.00    -0.060 Cl
ATOM     29  C   LIG    1       -3.814  -2.224  -0.802  0.00  0.00    -0.110 A 
ATOM     30  C   LIG    1       -2.560  -2.855  -1.351  0.00  0.00    +0.100 C 
ENDBRANCH  20  23
ENDBRANCH   9  19
TORSDOF 4
