REMARK  Name = ZINCpe00000VVGqO.0
REMARK                            x       y       z     vdW  Elec       q    Type
REMARK                         _______ _______ _______ _____ _____    ______ ____
ROOT
ATOM      1  N   LIG    1       -1.111   0.374   1.230  0.00  0.00    -0.730 N 
ATOM      2  H   LIG    1       -1.413   1.286   1.369  0.00  0.00    +0.400 HD
ATOM      3  C   LIG    1        0.061   0.140   0.607  0.00  0.00    +0.710 C 
ATOM      4  N   LIG    1        0.811   1.172   0.172  0.00  0.00    -0.710 N 
ATOM      5  H   LIG    1        0.509   2.083   0.310  0.00  0.00    +0.410 HD
ATOM      6  O   LIG    1        0.440  -1.002   0.434  0.00  0.00    -0.590 OA
ENDROOT
BRANCH   1   7
ATOM      7  C   LIG    1       -1.929  -0.748   1.698  0.00  0.00    +0.300 C 
BRANCH   7   8
ATOM      8  C   LIG    1       -3.233  -0.214   2.294  0.00  0.00    -0.030 C 
ATOM      9  C   LIG    1       -2.917   0.691   3.486  0.00  0.00    +0.020 C 
ATOM     10  C   LIG    1       -2.161  -0.111   4.548  0.00  0.00    +0.010 C 
ATOM     11  C   LIG    1       -3.026  -1.284   5.013  0.00  0.00    +0.000 C 
ATOM     12  C   LIG    1       -3.343  -2.189   3.821  0.00  0.00    +0.010 C 
ATOM     13  C   LIG    1       -4.099  -1.387   2.759  0.00  0.00    +0.040 C 
BRANCH   8  19
ATOM     14  C   LIG    1       -5.205   4.105   0.712  0.00  0.00    +0.090 C 
ATOM     15  C   LIG    1       -4.922   2.642   0.491  0.00  0.00    -0.080 A 
ATOM     16  C   LIG    1       -5.343   2.024  -0.671  0.00  0.00    +0.000 A 
ATOM     17  C   LIG    1       -5.083   0.681  -0.874  0.00  0.00    +0.010 A 
ATOM     18  C   LIG    1       -4.400  -0.043   0.086  0.00  0.00    +0.000 A 
ATOM     19  C   LIG    1       -3.978   0.575   1.248  0.00  0.00    -0.070 A 
ATOM     20  C   LIG    1       -4.243   1.916   1.453  0.00  0.00    +0.010 A 
ENDBRANCH   8  19
ENDBRANCH   7   8
ENDBRANCH   1   7
BRANCH   4  21
ATOM     21  C   LIG    1        2.082   0.917  -0.510  0.00  0.00    +0.260 C 
BRANCH  21  22
ATOM     22  C   LIG    1        2.986   2.112  -0.350  0.00  0.00    +0.530 C 
ATOM     23  O   LIG    1        2.511   3.210  -0.151  0.00  0.00    -0.520 OA
ATOM     24  N   LIG    1        4.323   1.961  -0.429  0.00  0.00    -0.840 N 
ATOM     25  H   LIG    1        4.902   2.739  -0.396  0.00  0.00    +0.410 HD
ATOM     26  H   LIG    1        4.706   1.075  -0.519  0.00  0.00    +0.400 HD
ENDBRANCH  21  22
BRANCH  21  27
ATOM     27  C   LIG    1        1.826   0.674  -1.975  0.00  0.00    +0.510 C 
ATOM     28  O   LIG    1        0.841   1.143  -2.505  0.00  0.00    -0.510 OA
ATOM     29  N   LIG    1        2.691  -0.066  -2.696  0.00  0.00    -0.850 N 
ATOM     30  H   LIG    1        2.566  -0.163  -3.654  0.00  0.00    +0.410 HD
ATOM     31  H   LIG    1        3.439  -0.502  -2.259  0.00  0.00    +0.400 HD
ENDBRANCH  21  27
ENDBRANCH   4  21
TORSDOF 6
