REMARK  Name = ZINCvU000000056Y.0
REMARK                            x       y       z     vdW  Elec       q    Type
REMARK                         _______ _______ _______ _____ _____    ______ ____
ROOT
ATOM      1  C   LIG    1       -4.920   1.120  -0.002  0.00  0.00    -0.080 A 
ATOM      2  C   LIG    1       -5.101  -0.255  -0.183  0.00  0.00    +0.030 A 
ATOM      3  C   LIG    1       -4.008  -1.073  -0.383  0.00  0.00    +0.030 A 
ATOM      4  C   LIG    1       -2.733  -0.539  -0.406  0.00  0.00    +0.010 A 
ATOM      5  C   LIG    1       -2.542   0.826  -0.227  0.00  0.00    +0.140 A 
ATOM      6  C   LIG    1       -3.630   1.658  -0.019  0.00  0.00    +0.060 A 
ENDROOT
BRANCH   5   7
ATOM      7  N   LIG    1       -1.249   1.360  -0.251  0.00  0.00    -0.670 N 
ATOM      8  H   LIG    1       -0.505   0.845   0.099  0.00  0.00    +0.410 HD
ATOM      9  C   LIG    1       -1.037   2.590  -0.761  0.00  0.00    +0.550 C 
ATOM     10  O   LIG    1       -1.953   3.200  -1.276  0.00  0.00    -0.490 OA
BRANCH   9  11
ATOM     11  C   LIG    1        0.308   3.197  -0.688  0.00  0.00    -0.140 A 
ATOM     12  C   LIG    1        1.363   2.499  -0.097  0.00  0.00    +0.060 A 
ATOM     13  C   LIG    1        2.615   3.072  -0.033  0.00  0.00    +0.020 A 
ATOM     14  C   LIG    1        2.829   4.337  -0.551  0.00  0.00    +0.060 A 
ATOM     15  C   LIG    1        1.790   5.036  -1.138  0.00  0.00    +0.020 A 
ATOM     16  C   LIG    1        0.532   4.472  -1.215  0.00  0.00    +0.020 A 
ATOM     17 CL   LIG    1       -0.770   5.347  -1.959  0.00  0.00    -0.020 Cl
ENDBRANCH   9  11
ENDBRANCH   5   7
BRANCH   1  19
ATOM     18  C   LIG    1       -7.124   1.567   0.957  0.00  0.00    -0.110 C 
ATOM     19  C   LIG    1       -6.083   1.996   0.212  0.00  0.00    +0.220 C 
ATOM     20 CL   LIG    1       -7.018   0.057   1.807  0.00  0.00    -0.040 Cl
BRANCH  18  30
ATOM     21  C   LIG    1      -11.529   0.894   3.420  0.00  0.00    +0.100 C 
ATOM     22  C   LIG    1      -11.615   2.203   2.680  0.00  0.00    -0.130 A 
ATOM     23  C   LIG    1      -12.759   2.970   2.758  0.00  0.00    +0.080 A 
ATOM     24  C   LIG    1      -12.850   4.177   2.081  0.00  0.00    +0.000 A 
ATOM     25  C   LIG    1      -11.796   4.631   1.317  0.00  0.00    +0.110 A 
ATOM     26  C   LIG    1      -10.634   3.868   1.229  0.00  0.00    -0.210 A 
ATOM     27  C   LIG    1       -9.476   4.304   0.426  0.00  0.00    +0.540 A 
ATOM     28  O   LIG    1       -9.504   5.357  -0.188  0.00  0.00    -0.480 OA
ATOM     29  N   LIG    1       -8.392   3.516   0.389  0.00  0.00    -0.590 NA
ATOM     30  C   LIG    1       -8.342   2.373   1.046  0.00  0.00    +0.500 A 
ATOM     31  N   LIG    1       -9.378   1.909   1.802  0.00  0.00    -0.620 N 
ATOM     32  H   LIG    1       -9.296   1.060   2.265  0.00  0.00    +0.420 HD
ATOM     33  C   LIG    1      -10.543   2.644   1.916  0.00  0.00    +0.180 A 
ENDBRANCH  18  30
ENDBRANCH   1  19
TORSDOF 4
