REMARK  Name = ZINCpk00000ebmnp.0
REMARK                            x       y       z     vdW  Elec       q    Type
REMARK                         _______ _______ _______ _____ _____    ______ ____
ROOT
ATOM      1  C   LIG    1       -0.440  -6.469  -0.938  0.00  0.00    +0.160 C 
ATOM      2  C   LIG    1        0.979  -6.561  -0.317  0.00  0.00    +0.060 C 
ATOM      3  C   LIG    1        1.381  -5.080  -0.154  0.00  0.00    +0.250 C 
ATOM      4  N   LIG    1        0.141  -4.291  -0.125  0.00  0.00    -0.610 N 
ATOM      5  C   LIG    1        0.065  -2.950  -0.015  0.00  0.00    +0.580 C 
ATOM      6  O   LIG    1       -1.019  -2.409   0.089  0.00  0.00    -0.510 OA
ATOM      7  C   LIG    1       -1.007  -5.211  -0.229  0.00  0.00    +0.260 C 
ENDROOT
BRANCH   5   8
ATOM      8  C   LIG    1        1.297  -2.139  -0.019  0.00  0.00    -0.100 A 
ATOM      9  C   LIG    1        2.376  -2.485   0.783  0.00  0.00    +0.110 A 
ATOM     10  C   LIG    1        3.534  -1.719   0.777  0.00  0.00    -0.050 A 
ATOM     11  C   LIG    1        3.660  -0.613  -0.005  0.00  0.00    +0.180 A 
ATOM     12  C   LIG    1        2.608  -0.204  -0.843  0.00  0.00    -0.070 A 
ATOM     13  C   LIG    1        2.722   0.935  -1.657  0.00  0.00    +0.060 A 
ATOM     14  C   LIG    1        1.681   1.298  -2.457  0.00  0.00    +0.030 A 
ATOM     15  C   LIG    1        0.502   0.558  -2.480  0.00  0.00    +0.060 A 
ATOM     16  C   LIG    1        0.357  -0.553  -1.703  0.00  0.00    +0.030 A 
ATOM     17  C   LIG    1        1.407  -0.955  -0.869  0.00  0.00    +0.010 A 
BRANCH  10  18
ATOM     18  N   LIG    1        4.664  -2.117   1.647  0.00  0.00    +0.030 N 
ATOM     19  O   LIG    1        4.570  -3.104   2.354  0.00  0.00    -0.150 OA
ATOM     20  O   LIG    1        5.688  -1.458   1.655  0.00  0.00    -0.160 OA
ENDBRANCH  10  18
ENDBRANCH   5   8
BRANCH   1  21
ATOM     21  O   LIG    1       -1.214  -7.627  -0.619  0.00  0.00    -0.340 OA
BRANCH  21  22
ATOM     22  C   LIG    1       -2.184  -7.969  -1.611  0.00  0.00    +0.210 C 
BRANCH  22  26
ATOM     23  N   LIG    1       -3.909  -9.708  -1.957  0.00  0.00    -0.850 N 
ATOM     24  H   LIG    1       -4.395 -10.499  -1.675  0.00  0.00    +0.410 HD
ATOM     25  H   LIG    1       -4.122  -9.283  -2.803  0.00  0.00    +0.400 HD
ATOM     26  C   LIG    1       -2.938  -9.198  -1.173  0.00  0.00    +0.520 C 
ATOM     27  O   LIG    1       -2.672  -9.729  -0.116  0.00  0.00    -0.520 OA
ENDBRANCH  22  26
ENDBRANCH  21  22
ENDBRANCH   1  21
TORSDOF 5
