REMARK  Name = ZINCpk00000F9XZK.0
REMARK                            x       y       z     vdW  Elec       q    Type
REMARK                         _______ _______ _______ _____ _____    ______ ____
ROOT
ATOM      1  C   LIG    1        2.457   5.298  -3.418  0.00  0.00    +0.370 C 
ATOM      2  C   LIG    1        2.904   5.599  -4.864  0.00  0.00    +0.090 C 
ATOM      3  C   LIG    1        4.317   4.961  -4.933  0.00  0.00    +0.170 C 
ATOM      4  C   LIG    1        4.139   3.712  -4.035  0.00  0.00    +0.240 C 
ATOM      5  N   LIG    1        3.250   4.154  -2.945  0.00  0.00    -0.620 N 
ATOM      6  C   LIG    1        3.173   3.598  -1.719  0.00  0.00    +0.540 C 
ATOM      7  O   LIG    1        2.402   4.046  -0.897  0.00  0.00    -0.500 OA
ENDROOT
BRANCH   1  12
ATOM      8  C   LIG    1        1.922   9.390  -0.582  0.00  0.00    +0.210 C 
ATOM      9  C   LIG    1        2.505   8.228  -1.344  0.00  0.00    +0.170 A 
ATOM     10  N   LIG    1        3.764   7.921  -1.433  0.00  0.00    -0.380 NA
ATOM     11  O   LIG    1        3.907   6.927  -2.114  0.00  0.00    +0.080 OA
ATOM     12  C   LIG    1        2.716   6.498  -2.544  0.00  0.00    +0.170 A 
ATOM     13  N   LIG    1        1.817   7.318  -2.056  0.00  0.00    -0.460 NA
ENDBRANCH   1  12
BRANCH   3  14
ATOM     14  O   LIG    1        4.646   4.587  -6.272  0.00  0.00    -0.550 OA
ATOM     15  H   LIG    1        5.476   4.098  -6.351  0.00  0.00    +0.390 HD
ENDBRANCH   3  14
BRANCH   6  16
ATOM     16  C   LIG    1        4.046   2.420  -1.370  0.00  0.00    +0.150 C 
ATOM     17  C   LIG    1        3.346   1.126  -1.791  0.00  0.00    +0.080 C 
BRANCH  16  18
ATOM     18  N   LIG    1        4.284   2.400   0.079  0.00  0.00    -0.470 N 
ATOM     19  C   LIG    1        4.950   3.643   0.524  0.00  0.00    +0.230 C 
ATOM     20  C   LIG    1        6.445   3.250   0.509  0.00  0.00    +0.060 C 
ATOM     21  C   LIG    1        6.400   1.747   0.698  0.00  0.00    -0.140 A 
ATOM     22  C   LIG    1        7.374   0.841   1.059  0.00  0.00    +0.030 A 
ATOM     23  C   LIG    1        7.064  -0.503   1.170  0.00  0.00    +0.000 A 
ATOM     24  C   LIG    1        5.776  -0.936   0.918  0.00  0.00    +0.020 A 
ATOM     25  C   LIG    1        4.798  -0.034   0.554  0.00  0.00    +0.020 A 
ATOM     26  C   LIG    1        5.103   1.321   0.438  0.00  0.00    +0.090 A 
ENDBRANCH  16  18
ENDBRANCH   6  16
TORSDOF 4
