REMARK  Name = ZINCrD00000F5Lly.0
REMARK                            x       y       z     vdW  Elec       q    Type
REMARK                         _______ _______ _______ _____ _____    ______ ____
ROOT
ATOM      1  N   LIG    1        2.904   0.816  -1.406  0.00  0.00    -0.430 NA
ATOM      2  C   LIG    1        2.459  -0.510  -1.877  0.00  0.00    +0.190 C 
ATOM      3  C   LIG    1        3.825  -0.665  -2.546  0.00  0.00    -0.070 C 
ATOM      4  C   LIG    1        4.428  -2.062  -2.422  0.00  0.00    +0.030 C 
ATOM      5  C   LIG    1        5.844  -2.046  -3.010  0.00  0.00    +0.200 C 
ATOM      6  O   LIG    1        5.793  -1.554  -4.350  0.00  0.00    -0.380 OA
ATOM      7  C   LIG    1        5.339  -0.204  -4.467  0.00  0.00    +0.210 C 
ATOM      8  C   LIG    1        3.893  -0.111  -3.966  0.00  0.00    +0.040 C 
ATOM      9  C   LIG    1        4.291   0.315  -1.469  0.00  0.00    +0.110 C 
ENDROOT
BRANCH   9  10
ATOM     10  C   LIG    1        5.277   1.336  -1.972  0.00  0.00    +0.530 C 
ATOM     11  N   LIG    1        6.584   1.020  -2.072  0.00  0.00    -0.710 N 
ATOM     12  H   LIG    1        6.889   0.134  -1.820  0.00  0.00    +0.400 HD
ATOM     13  O   LIG    1        4.896   2.444  -2.288  0.00  0.00    -0.510 OA
BRANCH  11  14
ATOM     14  C   LIG    1        7.543   2.013  -2.562  0.00  0.00    +0.220 C 
ATOM     15  C   LIG    1        8.592   1.544  -3.571  0.00  0.00    -0.050 C 
ATOM     16  C   LIG    1        9.018   2.533  -4.658  0.00  0.00    +0.060 C 
ATOM     17  C   LIG    1        9.002   1.858  -2.130  0.00  0.00    -0.050 C 
ATOM     18  C   LIG    1        9.349   0.678  -1.220  0.00  0.00    +0.050 C 
ENDBRANCH  11  14
ENDBRANCH   9  10
BRANCH   1  19
ATOM     19  C   LIG    1        2.490   1.048  -0.016  0.00  0.00    +0.200 C 
BRANCH  19  23
ATOM     20  C   LIG    1       -1.238   3.133   0.030  0.00  0.00    -0.080 A 
ATOM     21  C   LIG    1       -1.219   1.751   0.017  0.00  0.00    +0.000 A 
ATOM     22  C   LIG    1       -0.013   1.076   0.008  0.00  0.00    +0.010 A 
ATOM     23  C   LIG    1        1.175   1.783   0.000  0.00  0.00    -0.080 A 
ATOM     24  C   LIG    1        1.156   3.165   0.008  0.00  0.00    +0.030 A 
ATOM     25  C   LIG    1       -0.050   3.840   0.022  0.00  0.00    +0.000 A 
BRANCH  20  26
ATOM     26  C   LIG    1       -2.553   3.869   0.045  0.00  0.00    +0.060 C 
BRANCH  26  28
ATOM     27  C   LIG    1       -4.346   4.871  -1.376  0.00  0.00    +0.010 C 
ATOM     28  C   LIG    1       -3.011   4.124  -1.392  0.00  0.00    +0.000 C 
ENDBRANCH  26  28
ENDBRANCH  20  26
ENDBRANCH  19  23
ENDBRANCH   1  19
TORSDOF 6
