REMARK  Name = ZINCpe000000Szg6.0
REMARK                            x       y       z     vdW  Elec       q    Type
REMARK                         _______ _______ _______ _____ _____    ______ ____
ROOT
ATOM      1  O   LIG    1       -0.073   5.525   0.030  0.00  0.00    -0.290 OA
ENDROOT
BRANCH   1   2
ATOM      2  C   LIG    1       -0.054   4.165   0.024  0.00  0.00    +0.100 A 
ATOM      3  C   LIG    1        1.156   3.488   0.026  0.00  0.00    +0.020 A 
ATOM      4  C   LIG    1        1.176   2.108   0.019  0.00  0.00    +0.020 A 
ATOM      5  C   LIG    1       -0.017   1.397   0.010  0.00  0.00    +0.130 A 
ATOM      6  C   LIG    1       -1.228   2.075   0.002  0.00  0.00    +0.050 A 
ATOM      7  C   LIG    1       -1.246   3.456   0.015  0.00  0.00    -0.050 A 
BRANCH   5   8
ATOM      8  N   LIG    1        0.002  -0.004   0.002  0.00  0.00    -0.560 N 
ATOM      9  C   LIG    1        1.219  -0.815  -0.120  0.00  0.00    +0.260 C 
ATOM     10  C   LIG    1        0.735  -2.228  -0.516  0.00  0.00    +0.060 C 
ATOM     11  C   LIG    1       -0.703  -2.239   0.051  0.00  0.00    +0.070 C 
ATOM     12  C   LIG    1       -1.091  -0.778   0.111  0.00  0.00    +0.520 C 
ATOM     13  O   LIG    1       -2.225  -0.365   0.236  0.00  0.00    -0.510 OA
ENDBRANCH   5   8
ENDBRANCH   1   2
BRANCH   1  14
ATOM     14  C   LIG    1       -1.355   6.156   0.027  0.00  0.00    +0.220 C 
BRANCH  14  22
ATOM     15  C   LIG    1       -6.698  10.136   1.212  0.00  0.00    +0.090 C 
ATOM     16  C   LIG    1       -5.314  10.731   1.222  0.00  0.00    +0.510 C 
ATOM     17  N   LIG    1       -4.234   9.925   1.224  0.00  0.00    -0.620 N 
ATOM     18  C   LIG    1       -2.878  10.491   1.234  0.00  0.00    +0.280 C 
ATOM     19  C   LIG    1       -2.100   9.920   0.042  0.00  0.00    +0.290 C 
ATOM     20  N   LIG    1       -2.257   8.459   0.034  0.00  0.00    -0.610 N 
ATOM     21  C   LIG    1       -3.614   7.893   0.018  0.00  0.00    +0.270 C 
ATOM     22  C   LIG    1       -1.178   7.653   0.035  0.00  0.00    +0.520 C 
ATOM     23  O   LIG    1       -0.063   8.132   0.043  0.00  0.00    -0.510 OA
ATOM     24  C   LIG    1       -4.392   8.464   1.216  0.00  0.00    +0.270 C 
ATOM     25  O   LIG    1       -5.171  11.936   1.228  0.00  0.00    -0.540 OA
ENDBRANCH  14  22
ENDBRANCH   1  14
TORSDOF 4
