REMARK  Name = ZINCrD00000F5Lqy.0
REMARK                            x       y       z     vdW  Elec       q    Type
REMARK                         _______ _______ _______ _____ _____    ______ ____
ROOT
ATOM      1  C   LIG    1        0.002  -0.004   0.002  0.00  0.00    +0.240 A 
ATOM      2  C   LIG    1       -0.017   1.377   0.010  0.00  0.00    +0.090 A 
ATOM      3  N   LIG    1        1.255   1.811  -0.000  0.00  0.00    -0.420 NA
ATOM      4  C   LIG    1        2.070   0.769  -0.014  0.00  0.00    +0.150 A 
ATOM      5  C   LIG    1        3.474   0.661  -0.028  0.00  0.00    +0.170 A 
ATOM      6  C   LIG    1        4.045  -0.575  -0.040  0.00  0.00    -0.030 A 
ATOM      7  C   LIG    1        3.241  -1.723  -0.038  0.00  0.00    +0.170 A 
ATOM      8  N   LIG    1        1.938  -1.632  -0.025  0.00  0.00    -0.280 NA
ATOM      9  C   LIG    1        3.889  -3.083  -0.052  0.00  0.00    +0.160 C 
ATOM     10  N   LIG    1        1.311  -0.382  -0.013  0.00  0.00    -0.300 N 
ENDROOT
BRANCH   2  11
ATOM     11  C   LIG    1       -1.228   2.232   0.020  0.00  0.00    +0.160 A 
ATOM     12  N   LIG    1       -2.420   1.892  -0.425  0.00  0.00    -0.260 NA
ATOM     13  N   LIG    1       -3.283   2.979  -0.233  0.00  0.00    -0.370 N 
ATOM     14  C   LIG    1       -2.578   3.979   0.339  0.00  0.00    +0.080 A 
ATOM     15  C   LIG    1       -3.115   5.334   0.722  0.00  0.00    +0.150 C 
ATOM     16  C   LIG    1       -4.702   3.023  -0.591  0.00  0.00    +0.350 C 
ATOM     17  C   LIG    1       -1.310   3.549   0.514  0.00  0.00    -0.090 A 
ENDBRANCH   2  11
BRANCH   1  18
ATOM     18  N   LIG    1       -1.108  -0.851   0.009  0.00  0.00    -0.570 N 
ATOM     19  H   LIG    1       -1.707  -0.656   0.797  0.00  0.00    +0.370 HD
BRANCH  18  20
ATOM     20  C   LIG    1       -0.695  -2.261  -0.003  0.00  0.00    +0.260 C 
BRANCH  20  24
ATOM     21  C   LIG    1       -4.160  -4.762   0.018  0.00  0.00    +0.130 A 
ATOM     22  C   LIG    1       -3.608  -4.349  -1.186  0.00  0.00    -0.020 A 
ATOM     23  C   LIG    1       -2.488  -3.540  -1.190  0.00  0.00    +0.080 A 
ATOM     24  C   LIG    1       -1.917  -3.143   0.004  0.00  0.00    -0.130 A 
ATOM     25  C   LIG    1       -2.461  -3.558   1.206  0.00  0.00    +0.050 A 
ATOM     26  C   LIG    1       -3.585  -4.361   1.215  0.00  0.00    -0.080 A 
BRANCH  21  28
ATOM     27  C   LIG    1       -5.775  -5.944   1.301  0.00  0.00    +0.250 C 
ATOM     28  O   LIG    1       -5.261  -5.558   0.024  0.00  0.00    -0.320 OA
ENDBRANCH  21  28
ENDBRANCH  20  24
ENDBRANCH  18  20
ENDBRANCH   1  18
TORSDOF 5
