REMARK  Name = ZINCpk00000Fa1Eo.0
REMARK                            x       y       z     vdW  Elec       q    Type
REMARK                         _______ _______ _______ _____ _____    ______ ____
ROOT
ATOM      1  C   LIG    1       -6.689   5.815   2.318  0.00  0.00    +0.270 C 
ATOM      2  C   LIG    1       -5.859   5.181   1.198  0.00  0.00    +0.190 C 
ATOM      3  N   LIG    1       -4.688   4.511   1.782  0.00  0.00    -0.520 NA
ATOM      4  C   LIG    1       -3.866   5.466   2.540  0.00  0.00    +0.170 C 
ATOM      5  C   LIG    1       -4.716   6.097   3.646  0.00  0.00    +0.240 C 
ATOM      6  O   LIG    1       -5.865   6.716   3.063  0.00  0.00    -0.370 OA
ENDROOT
BRANCH   1  11
ATOM      7  C   LIG    1      -11.331   7.480   1.221  0.00  0.00    +0.200 C 
ATOM      8  C   LIG    1       -9.837   7.283   1.250  0.00  0.00    +0.190 A 
ATOM      9  N   LIG    1       -8.958   7.931   0.535  0.00  0.00    -0.290 NA
ATOM     10  N   LIG    1       -7.776   7.507   0.814  0.00  0.00    -0.260 NA
ATOM     11  C   LIG    1       -7.848   6.570   1.720  0.00  0.00    +0.180 A 
ATOM     12  N   LIG    1       -9.158   6.398   2.018  0.00  0.00    -0.570 N 
ATOM     13  H   LIG    1       -9.534   5.769   2.655  0.00  0.00    +0.430 HD
ENDBRANCH   1  11
BRANCH   3  14
ATOM     14  C   LIG    1       -3.893   3.841   0.745  0.00  0.00    +0.180 C 
ATOM     15  C   LIG    1       -3.212   4.891  -0.135  0.00  0.00    +0.030 C 
BRANCH  14  16
ATOM     16  C   LIG    1       -2.846   2.974   1.395  0.00  0.00    +0.530 C 
ATOM     17  N   LIG    1       -2.185   2.054   0.666  0.00  0.00    -0.550 N 
ATOM     18  C   LIG    1       -2.474   1.725  -0.735  0.00  0.00    +0.280 C 
ATOM     19  C   LIG    1       -1.458   0.632  -1.106  0.00  0.00    +0.090 C 
ATOM     20  C   LIG    1       -0.648   0.417   0.152  0.00  0.00    -0.140 A 
ATOM     21  C   LIG    1        0.401  -0.441   0.419  0.00  0.00    +0.050 A 
ATOM     22  C   LIG    1        0.988  -0.453   1.671  0.00  0.00    -0.010 A 
ATOM     23  C   LIG    1        0.521   0.396   2.657  0.00  0.00    +0.040 A 
ATOM     24  C   LIG    1       -0.527   1.254   2.396  0.00  0.00    +0.010 A 
ATOM     25  C   LIG    1       -1.124   1.272   1.134  0.00  0.00    +0.140 A 
ATOM     26  O   LIG    1       -2.599   3.105   2.575  0.00  0.00    -0.500 OA
ENDBRANCH  14  16
ENDBRANCH   3  14
TORSDOF 3
