REMARK  Name = ZINCpk00000Fa1Eo.1
REMARK                            x       y       z     vdW  Elec       q    Type
REMARK                         _______ _______ _______ _____ _____    ______ ____
ROOT
ATOM      1  C   LIG    1       -0.046   3.990  -1.110  0.00  0.00    +0.290 C 
ATOM      2  C   LIG    1       -1.064   4.095   0.029  0.00  0.00    +0.180 C 
ATOM      3  N   LIG    1       -0.521   3.438   1.227  0.00  0.00    -0.510 NA
ATOM      4  C   LIG    1       -0.212   2.027   0.954  0.00  0.00    +0.170 C 
ATOM      5  C   LIG    1        0.796   1.944  -0.195  0.00  0.00    +0.240 C 
ATOM      6  O   LIG    1        0.264   2.614  -1.341  0.00  0.00    -0.370 OA
ENDROOT
BRANCH   1  10
ATOM      7  C   LIG    1       -0.900   7.215  -4.845  0.00  0.00    +0.200 C 
ATOM      8  C   LIG    1       -0.988   5.991  -3.970  0.00  0.00    +0.290 A 
ATOM      9  N   LIG    1       -0.295   5.773  -2.882  0.00  0.00    -0.530 NA
ATOM     10  C   LIG    1       -0.628   4.592  -2.363  0.00  0.00    +0.230 A 
ATOM     11  N   LIG    1       -1.538   4.037  -3.120  0.00  0.00    -0.290 NA
ATOM     12  N   LIG    1       -1.792   4.933  -4.171  0.00  0.00    -0.480 N 
ATOM     13  H   LIG    1       -2.421   4.811  -4.900  0.00  0.00    +0.440 HD
ENDBRANCH   1  10
BRANCH   3  14
ATOM     14  C   LIG    1       -1.445   3.566   2.362  0.00  0.00    +0.180 C 
ATOM     15  C   LIG    1       -2.683   2.703   2.110  0.00  0.00    +0.030 C 
BRANCH  14  16
ATOM     16  C   LIG    1       -0.759   3.104   3.622  0.00  0.00    +0.540 C 
ATOM     17  N   LIG    1       -1.290   3.400   4.825  0.00  0.00    -0.550 N 
ATOM     18  C   LIG    1       -2.579   4.065   5.034  0.00  0.00    +0.280 C 
ATOM     19  C   LIG    1       -2.734   4.173   6.559  0.00  0.00    +0.090 C 
ATOM     20  C   LIG    1       -1.479   3.539   7.116  0.00  0.00    -0.140 A 
ATOM     21  C   LIG    1       -1.062   3.349   8.419  0.00  0.00    +0.050 A 
ATOM     22  C   LIG    1        0.149   2.732   8.677  0.00  0.00    -0.010 A 
ATOM     23  C   LIG    1        0.941   2.306   7.628  0.00  0.00    +0.040 A 
ATOM     24  C   LIG    1        0.528   2.494   6.325  0.00  0.00    +0.010 A 
ATOM     25  C   LIG    1       -0.694   3.111   6.057  0.00  0.00    +0.140 A 
ATOM     26  O   LIG    1        0.271   2.467   3.554  0.00  0.00    -0.500 OA
ENDBRANCH  14  16
ENDBRANCH   3  14
TORSDOF 3
