REMARK  Name = ZINCrD00000hQ5W5.0
REMARK                            x       y       z     vdW  Elec       q    Type
REMARK                         _______ _______ _______ _____ _____    ______ ____
ROOT
ATOM      1  O   LIG    1       -0.782   1.548   2.234  0.00  0.00    -0.460 OA
ATOM      2  C   LIG    1       -0.458   2.210   1.276  0.00  0.00    +0.480 C 
ENDROOT
BRANCH   2   3
ATOM      3  C   LIG    1       -0.059   1.530  -0.008  0.00  0.00    -0.010 C 
ATOM      4  C   LIG    1        1.252   0.742  -0.013  0.00  0.00    +0.090 C 
ATOM      5  C   LIG    1       -0.086   0.001  -0.036  0.00  0.00    +0.060 C 
BRANCH   5   6
ATOM      6  C   LIG    1       -0.509  -0.711   1.223  0.00  0.00    -0.030 A 
ATOM      7  C   LIG    1        0.211  -0.537   2.391  0.00  0.00    +0.050 A 
ATOM      8  C   LIG    1       -0.180  -1.186   3.547  0.00  0.00    +0.060 A 
ATOM      9  C   LIG    1       -1.285  -2.017   3.533  0.00  0.00    -0.180 A 
ATOM     10  C   LIG    1       -2.002  -2.195   2.364  0.00  0.00    +0.060 A 
ATOM     11  C   LIG    1       -1.614  -1.542   1.210  0.00  0.00    +0.020 A 
BRANCH   9  12
ATOM     12  C   LIG    1       -1.708  -2.729   4.792  0.00  0.00    +0.510 C 
ATOM     13  F   LIG    1       -3.094  -2.921   4.777  0.00  0.00    -0.180 F 
ATOM     14  F   LIG    1       -1.356  -1.958   5.905  0.00  0.00    -0.180 F 
ATOM     15  F   LIG    1       -1.066  -3.970   4.864  0.00  0.00    -0.180 F 
ENDBRANCH   9  12
ENDBRANCH   5   6
ENDBRANCH   2   3
BRANCH   2  16
ATOM     16  O   LIG    1       -0.453   3.550   1.356  0.00  0.00    -0.290 OA
BRANCH  16  17
ATOM     17  C   LIG    1       -0.921   4.101   2.508  0.00  0.00    +0.100 A 
ATOM     18  C   LIG    1       -2.188   4.664   2.542  0.00  0.00    +0.060 A 
ATOM     19  C   LIG    1       -2.666   5.220   3.712  0.00  0.00    +0.040 A 
ATOM     20  C   LIG    1       -1.873   5.225   4.852  0.00  0.00    +0.140 A 
ATOM     21  C   LIG    1       -0.602   4.666   4.816  0.00  0.00    +0.070 A 
ATOM     22  C   LIG    1       -0.128   4.106   3.646  0.00  0.00    +0.050 A 
BRANCH  20  23
ATOM     23  N   LIG    1       -2.356   5.794   6.040  0.00  0.00    -0.330 N 
ATOM     24  C   LIG    1       -3.558   6.373   6.242  0.00  0.00    +0.470 A 
ATOM     25  N   LIG    1       -3.595   6.768   7.488  0.00  0.00    -0.330 NA
ATOM     26  N   LIG    1       -2.497   6.477   8.088  0.00  0.00    -0.030 NA
ATOM     27  N   LIG    1       -1.693   5.877   7.277  0.00  0.00    -0.070 NA
ENDBRANCH  20  23
ENDBRANCH  16  17
ENDBRANCH   2  16
TORSDOF 6
