REMARK  Name = ZINCpk00000y6wPV.0
REMARK                            x       y       z     vdW  Elec       q    Type
REMARK                         _______ _______ _______ _____ _____    ______ ____
ROOT
ATOM      1  C   LIG    1       -3.493   2.570   2.292  0.00  0.00    +0.520 C 
ATOM      2  N   LIG    1       -4.236   2.784   3.397  0.00  0.00    -0.610 N 
ATOM      3  C   LIG    1       -3.749   3.372   4.658  0.00  0.00    +0.250 C 
ATOM      4  C   LIG    1       -4.722   2.852   5.742  0.00  0.00    +0.040 C 
ATOM      5  C   LIG    1       -6.074   2.858   4.980  0.00  0.00    +0.040 C 
ATOM      6  C   LIG    1       -5.663   2.466   3.545  0.00  0.00    +0.220 C 
ATOM      7  O   LIG    1       -4.018   2.157   1.280  0.00  0.00    -0.520 OA
ENDROOT
BRANCH   1   8
ATOM      8  C   LIG    1       -2.011   2.843   2.315  0.00  0.00    +0.330 C 
BRANCH   8  19
ATOM      9  O   LIG    1       -2.022   4.541   0.366  0.00  0.00    -0.510 OA
ATOM     10  C   LIG    1       -1.493   3.488   0.077  0.00  0.00    +0.530 C 
ATOM     11  C   LIG    1       -0.930   3.331  -1.309  0.00  0.00    +0.150 C 
ATOM     12  S   LIG    1        0.572   2.312  -1.227  0.00  0.00    -0.080 S 
ATOM     13  C   LIG    1        0.065   1.007  -0.152  0.00  0.00    -0.130 A 
ATOM     14  C   LIG    1        0.605  -0.260  -0.292  0.00  0.00    +0.080 A 
ATOM     15  C   LIG    1        0.203  -1.279   0.552  0.00  0.00    +0.020 A 
ATOM     16  C   LIG    1       -0.740  -1.030   1.532  0.00  0.00    +0.050 A 
ATOM     17  C   LIG    1       -1.282   0.232   1.677  0.00  0.00    -0.010 A 
ATOM     18  C   LIG    1       -0.885   1.266   0.837  0.00  0.00    +0.170 A 
ATOM     19  N   LIG    1       -1.437   2.533   1.004  0.00  0.00    -0.530 N 
ENDBRANCH   8  19
ENDBRANCH   1   8
BRANCH   6  20
ATOM     20  C   LIG    1       -6.483   3.267   2.531  0.00  0.00    +0.320 C 
BRANCH  20  21
ATOM     21  N   LIG    1       -7.891   2.870   2.619  0.00  0.00    -0.370 N 
ATOM     22  C   LIG    1       -8.943   3.678   2.835  0.00  0.00    +0.470 A 
ATOM     23  N   LIG    1      -10.025   2.942   2.843  0.00  0.00    -0.540 NA
ATOM     24  C   LIG    1       -9.704   1.665   2.638  0.00  0.00    +0.420 A 
ATOM     25  N   LIG    1       -8.409   1.571   2.490  0.00  0.00    -0.320 NA
ENDBRANCH  20  21
ENDBRANCH   6  20
TORSDOF 4
