REMARK  Name = ZINCpe000000V5Us.0
REMARK                            x       y       z     vdW  Elec       q    Type
REMARK                         _______ _______ _______ _____ _____    ______ ____
ROOT
ATOM      1  C   LIG    1       -0.814   1.622  -1.205  0.00  0.00    -0.020 C 
ATOM      2  C   LIG    1       -0.117   1.762   0.168  0.00  0.00    +0.080 C 
ATOM      3  C   LIG    1       -1.208   2.257   1.092  0.00  0.00    +0.520 C 
ATOM      4  N   LIG    1       -2.244   2.727   0.371  0.00  0.00    -0.610 N 
ATOM      5  O   LIG    1       -1.157   2.232   2.303  0.00  0.00    -0.520 OA
ATOM      6  C   LIG    1       -1.982   2.623  -1.070  0.00  0.00    +0.310 C 
ENDROOT
BRANCH   1  12
ATOM      7  C   LIG    1        3.371  -0.373  -3.047  0.00  0.00    +0.030 C 
ATOM      8  C   LIG    1        3.362   1.122  -3.372  0.00  0.00    +0.050 C 
ATOM      9  C   LIG    1        1.964   1.529  -3.849  0.00  0.00    +0.280 C 
ATOM     10  N   LIG    1        0.982   1.126  -2.833  0.00  0.00    -0.610 N 
ATOM     11  C   LIG    1        0.970  -0.271  -2.377  0.00  0.00    +0.280 C 
ATOM     12  C   LIG    1        0.114   2.022  -2.324  0.00  0.00    +0.530 C 
ATOM     13  O   LIG    1        0.078   3.151  -2.766  0.00  0.00    -0.530 OA
ATOM     14  C   LIG    1        2.375  -0.658  -1.921  0.00  0.00    +0.050 C 
BRANCH   7  15
ATOM     15  C   LIG    1        4.754  -0.784  -2.611  0.00  0.00    +0.460 C 
ATOM     16  O   LIG    1        5.641   0.035  -2.564  0.00  0.00    -0.500 OA
BRANCH  15  18
ATOM     17  C   LIG    1        6.355  -2.383  -1.863  0.00  0.00    +0.250 C 
ATOM     18  O   LIG    1        5.000  -2.059  -2.273  0.00  0.00    -0.360 OA
ENDBRANCH  15  18
ENDBRANCH   7  15
ENDBRANCH   1  12
BRANCH   4  19
ATOM     19  C   LIG    1       -3.473   3.273   0.950  0.00  0.00    +0.380 C 
BRANCH  19  20
ATOM     20  C   LIG    1       -4.477   2.164   1.137  0.00  0.00    +0.100 A 
ATOM     21  C   LIG    1       -4.568   1.524   2.358  0.00  0.00    -0.010 A 
ATOM     22  C   LIG    1       -5.498   0.508   2.520  0.00  0.00    +0.060 A 
ATOM     23  C   LIG    1       -6.298   0.167   1.440  0.00  0.00    -0.030 A 
ATOM     24  C   LIG    1       -6.146   0.849   0.247  0.00  0.00    +0.260 A 
ATOM     25  N   LIG    1       -5.254   1.813   0.131  0.00  0.00    -0.470 NA
ENDBRANCH  19  20
ENDBRANCH   4  19
TORSDOF 5
