REMARK  Name = ZINCrD00000F5Lo3.0
REMARK                            x       y       z     vdW  Elec       q    Type
REMARK                         _______ _______ _______ _____ _____    ______ ____
ROOT
ATOM      1  C   LIG    1        2.422   1.186  -0.015  0.00  0.00    +0.290 C 
ENDROOT
BRANCH   1   2
ATOM      2  C   LIG    1        2.786   0.840  -1.435  0.00  0.00    -0.130 A 
ATOM      3  C   LIG    1        2.288   1.595  -2.480  0.00  0.00    +0.050 A 
ATOM      4  C   LIG    1        2.622   1.278  -3.784  0.00  0.00    +0.000 A 
ATOM      5  C   LIG    1        3.454   0.205  -4.044  0.00  0.00    +0.050 A 
ATOM      6  C   LIG    1        3.954  -0.551  -3.001  0.00  0.00    -0.010 A 
ATOM      7  C   LIG    1        3.625  -0.231  -1.694  0.00  0.00    +0.110 A 
ATOM      8  F   LIG    1        4.118  -0.966  -0.674  0.00  0.00    -0.130 F 
ENDBRANCH   1   2
BRANCH   1  10
ATOM      9  C   LIG    1       -0.014   1.211   0.009  0.00  0.00    +0.560 C 
ATOM     10  N   LIG    1        1.143   1.901   0.001  0.00  0.00    -0.720 N 
ATOM     11  H   LIG    1        1.130   2.871   0.007  0.00  0.00    +0.400 HD
ATOM     12  O   LIG    1        0.002  -0.004   0.002  0.00  0.00    -0.520 OA
BRANCH   9  17
ATOM     13  C   LIG    1       -3.711   1.906   0.030  0.00  0.00    -0.100 A 
ATOM     14  C   LIG    1       -3.721   3.297   0.037  0.00  0.00    +0.020 A 
ATOM     15  C   LIG    1       -2.532   4.001   0.035  0.00  0.00    +0.040 A 
ATOM     16  C   LIG    1       -1.326   3.329   0.032  0.00  0.00    +0.040 A 
ATOM     17  C   LIG    1       -1.305   1.933   0.019  0.00  0.00    -0.120 A 
ATOM     18  C   LIG    1       -2.504   1.222   0.021  0.00  0.00    +0.100 A 
BRANCH  13  19
ATOM     19  S   LIG    1       -5.230   1.014   0.033  0.00  0.00    -0.080 S 
BRANCH  19  20
ATOM     20  C   LIG    1       -6.477   2.331   0.046  0.00  0.00    +0.220 C 
BRANCH  20  22
ATOM     21  C   LIG    1       -8.895   1.257   0.052  0.00  0.00    +0.080 C 
ATOM     22  C   LIG    1       -7.822   1.734   0.049  0.00  0.00    -0.200 C 
ENDBRANCH  20  22
ENDBRANCH  19  20
ENDBRANCH  13  19
ENDBRANCH   9  17
ENDBRANCH   1  10
BRANCH   1  23
ATOM     23  C   LIG    1        3.511   2.075   0.589  0.00  0.00    +0.290 C 
BRANCH  23  24
ATOM     24  N   LIG    1        3.101   2.508   1.927  0.00  0.00    -0.730 N 
ATOM     25  H   LIG    1        2.248   2.222   2.290  0.00  0.00    +0.400 HD
ATOM     26  C   LIG    1        3.909   3.305   2.655  0.00  0.00    +0.540 C 
ATOM     27  O   LIG    1        4.979   3.663   2.200  0.00  0.00    -0.540 OA
BRANCH  26  28
ATOM     28  C   LIG    1        3.498   3.740   3.998  0.00  0.00    -0.090 C 
ATOM     29  C   LIG    1        4.295   4.526   4.716  0.00  0.00    +0.150 C 
ENDBRANCH  26  28
ENDBRANCH  23  24
ENDBRANCH   1  23
TORSDOF 9
