REMARK  Name = ZINCrg00000aSvrN.0
REMARK                            x       y       z     vdW  Elec       q    Type
REMARK                         _______ _______ _______ _____ _____    ______ ____
ROOT
ATOM      1  N   LIG    1        1.141   1.897   0.001  0.00  0.00    -0.570 N 
ATOM      2  C   LIG    1        1.149   3.237   0.098  0.00  0.00    +0.710 C 
ATOM      3  N   LIG    1        0.046   3.923   0.441  0.00  0.00    -0.730 N 
ATOM      4  H   LIG    1        0.062   4.893   0.422  0.00  0.00    +0.430 HD
ATOM      5  C   LIG    1       -1.178   3.228   0.844  0.00  0.00    +0.300 C 
ATOM      6  C   LIG    1       -1.330   1.945   0.019  0.00  0.00    +0.010 C 
ATOM      7  O   LIG    1        2.177   3.843  -0.130  0.00  0.00    -0.550 OA
ATOM      8  C   LIG    1       -0.014   1.208   0.009  0.00  0.00    +0.520 C 
ATOM      9  O   LIG    1        0.002  -0.004   0.002  0.00  0.00    -0.480 OA
ENDROOT
BRANCH   1  10
ATOM     10  C   LIG    1        2.411   1.175  -0.113  0.00  0.00    +0.320 C 
BRANCH  10  13
ATOM     11  N   LIG    1        4.793   0.936  -2.894  0.00  0.00    -0.610 N 
ATOM     12  C   LIG    1        4.133   0.295  -1.750  0.00  0.00    +0.280 C 
ATOM     13  C   LIG    1        2.782   1.027  -1.590  0.00  0.00    -0.030 C 
ATOM     14  C   LIG    1        3.093   2.404  -2.223  0.00  0.00    +0.070 C 
ATOM     15  C   LIG    1        4.232   2.124  -3.178  0.00  0.00    +0.520 C 
ATOM     16  O   LIG    1        4.588   2.864  -4.071  0.00  0.00    -0.530 OA
BRANCH  11  17
ATOM     17  C   LIG    1        5.917   0.354  -3.632  0.00  0.00    +0.320 C 
BRANCH  17  18
ATOM     18  C   LIG    1        7.233   0.802  -2.993  0.00  0.00    +0.150 C 
BRANCH  18  20
ATOM     19  C   LIG    1        8.527   0.625  -0.983  0.00  0.00    +0.200 C 
ATOM     20  O   LIG    1        7.328   0.264  -1.672  0.00  0.00    -0.390 OA
ENDBRANCH  18  20
ENDBRANCH  17  18
ENDBRANCH  11  17
ENDBRANCH  10  13
ENDBRANCH   1  10
BRANCH   6  21
ATOM     21  C   LIG    1       -1.730   2.297  -1.415  0.00  0.00    +0.110 C 
BRANCH  21  22
ATOM     22  C   LIG    1       -1.989   1.031  -2.190  0.00  0.00    -0.100 A 
ATOM     23  C   LIG    1       -0.958   0.420  -2.879  0.00  0.00    +0.040 A 
ATOM     24  C   LIG    1       -1.192  -0.744  -3.586  0.00  0.00    -0.020 A 
ATOM     25  C   LIG    1       -2.463  -1.293  -3.613  0.00  0.00    +0.100 A 
ATOM     26  C   LIG    1       -3.497  -0.677  -2.927  0.00  0.00    -0.010 A 
ATOM     27  F   LIG    1       -2.695  -2.428  -4.308  0.00  0.00    -0.140 F 
ATOM     28  C   LIG    1       -3.258   0.484  -2.216  0.00  0.00    +0.050 A 
ENDBRANCH  21  22
ENDBRANCH   6  21
TORSDOF 7
