REMARK  Name = ZINCrH00000tj1kl.0
REMARK                            x       y       z     vdW  Elec       q    Type
REMARK                         _______ _______ _______ _____ _____    ______ ____
ROOT
ATOM      1  C   LIG    1        2.466   1.105  -0.950  0.00  0.00    +0.220 C 
ATOM      2  N   LIG    1        2.248  -0.161  -1.043  0.00  0.00    -0.260 NA
ATOM      3  N   LIG    1        1.175  -0.783  -0.411  0.00  0.00    -0.330 N 
ATOM      4  C   LIG    1        0.059  -0.101   0.022  0.00  0.00    +0.110 A 
ATOM      5  S   LIG    1       -0.100   1.643  -0.178  0.00  0.00    +0.080 S 
ATOM      6  N   LIG    1       -0.752  -0.966   0.553  0.00  0.00    -0.230 NA
ATOM      7  N   LIG    1       -0.230  -2.145   0.494  0.00  0.00    -0.260 NA
ATOM      8  C   LIG    1        0.952  -2.090  -0.086  0.00  0.00    +0.290 A 
ATOM      9  C   LIG    1        1.660   2.076  -0.143  0.00  0.00    +0.140 C 
ENDROOT
BRANCH   8  10
ATOM     10  C   LIG    1        1.863  -3.227  -0.338  0.00  0.00    -0.070 A 
ATOM     11  C   LIG    1        3.088  -3.017  -0.972  0.00  0.00    +0.090 A 
ATOM     12  C   LIG    1        3.935  -4.082  -1.199  0.00  0.00    +0.010 A 
ATOM     13  C   LIG    1        3.569  -5.358  -0.810  0.00  0.00    +0.070 A 
ATOM     14  C   LIG    1        2.354  -5.576  -0.186  0.00  0.00    -0.010 A 
ATOM     15  C   LIG    1        1.498  -4.519   0.053  0.00  0.00    +0.150 A 
ATOM     16  F   LIG    1        0.311  -4.733   0.662  0.00  0.00    -0.110 F 
ENDBRANCH   8  10
BRANCH   1  20
ATOM     17  C   LIG    1        5.764   2.663  -3.122  0.00  0.00    +0.180 A 
ATOM     18  C   LIG    1        5.475   1.304  -3.181  0.00  0.00    +0.010 A 
ATOM     19  C   LIG    1        4.406   0.795  -2.477  0.00  0.00    +0.100 A 
ATOM     20  C   LIG    1        3.611   1.646  -1.704  0.00  0.00    -0.090 A 
ATOM     21  C   LIG    1        3.902   3.012  -1.652  0.00  0.00    +0.080 A 
ATOM     22  C   LIG    1        4.975   3.513  -2.354  0.00  0.00    -0.010 A 
BRANCH  17  24
ATOM     23  C   LIG    1        7.191   2.635  -5.024  0.00  0.00    +0.510 C 
ATOM     24  N   LIG    1        6.849   3.176  -3.837  0.00  0.00    -0.680 N 
ATOM     25  H   LIG    1        7.356   3.922  -3.480  0.00  0.00    +0.420 HD
ATOM     26  O   LIG    1        6.500   1.768  -5.516  0.00  0.00    -0.510 OA
BRANCH  23  28
ATOM     27  C   LIG    1        8.587   2.338  -7.051  0.00  0.00    +0.050 C 
ATOM     28  C   LIG    1        8.430   3.108  -5.738  0.00  0.00    +0.060 C 
ENDBRANCH  23  28
ENDBRANCH  17  24
ENDBRANCH   1  20
TORSDOF 4
