REMARK  Name = ZINCvU00000008L2.0
REMARK                            x       y       z     vdW  Elec       q    Type
REMARK                         _______ _______ _______ _____ _____    ______ ____
ROOT
ATOM      1  N   LIG    1        0.005   1.192   0.075  0.00  0.00    -0.630 N 
ATOM      2  H   LIG    1       -0.071   0.225   0.051  0.00  0.00    +0.420 HD
ATOM      3  C   LIG    1        1.221   1.772   0.049  0.00  0.00    +0.520 C 
ATOM      4  O   LIG    1        1.317   2.981   0.079  0.00  0.00    -0.480 OA
ENDROOT
BRANCH   1   6
ATOM      5  C   LIG    1       -2.414   1.489   0.154  0.00  0.00    -0.190 A 
ATOM      6  C   LIG    1       -1.137   1.976   0.130  0.00  0.00    +0.050 A 
ATOM      7  S   LIG    1       -1.140   3.678   0.182  0.00  0.00    +0.310 S 
ATOM      8  C   LIG    1       -2.894   3.756   0.229  0.00  0.00    -0.240 A 
ATOM      9  C   LIG    1       -3.703   5.038   0.287  0.00  0.00    +0.120 C 
ATOM     10  C   LIG    1       -5.127   4.701   0.737  0.00  0.00    -0.010 C 
ATOM     11  C   LIG    1       -6.023   5.929   0.564  0.00  0.00    +0.030 C 
ATOM     12  C   LIG    1       -5.662   3.549  -0.120  0.00  0.00    +0.030 C 
ATOM     13  C   LIG    1       -4.922   2.262   0.250  0.00  0.00    +0.090 C 
ATOM     14  C   LIG    1       -3.425   2.529   0.212  0.00  0.00    -0.040 A 
BRANCH   5  15
ATOM     15  C   LIG    1       -2.731   0.059   0.126  0.00  0.00    +0.540 C 
ATOM     16  O   LIG    1       -2.832  -0.562   1.167  0.00  0.00    -0.490 OA
BRANCH  15  17
ATOM     17  O   LIG    1       -2.912  -0.568  -1.055  0.00  0.00    -0.350 OA
BRANCH  17  19
ATOM     18  C   LIG    1       -3.392  -2.519  -2.431  0.00  0.00    +0.070 C 
ATOM     19  C   LIG    1       -3.223  -1.986  -1.007  0.00  0.00    +0.200 C 
ENDBRANCH  17  19
ENDBRANCH  15  17
ENDBRANCH   5  15
ENDBRANCH   1   6
BRANCH   3  20
ATOM     20  C   LIG    1        2.462   0.920  -0.017  0.00  0.00    +0.100 C 
BRANCH  20  21
ATOM     21  C   LIG    1        2.515   0.017   1.189  0.00  0.00    -0.090 A 
ATOM     22  C   LIG    1        2.377   0.548   2.457  0.00  0.00    +0.010 A 
ATOM     23  C   LIG    1        2.422  -0.281   3.563  0.00  0.00    +0.020 A 
ATOM     24  C   LIG    1        2.614  -1.640   3.400  0.00  0.00    +0.020 A 
ATOM     25  C   LIG    1        2.757  -2.171   2.132  0.00  0.00    +0.010 A 
ATOM     26  C   LIG    1        2.708  -1.342   1.026  0.00  0.00    +0.020 A 
ENDBRANCH  20  21
BRANCH  20  27
ATOM     27  C   LIG    1        3.680   1.807  -0.034  0.00  0.00    -0.070 A 
ATOM     28  C   LIG    1        3.856   2.760   0.951  0.00  0.00    +0.040 A 
ATOM     29  C   LIG    1        4.975   3.571   0.938  0.00  0.00    +0.000 A 
ATOM     30  C   LIG    1        5.915   3.434  -0.067  0.00  0.00    +0.010 A 
ATOM     31  C   LIG    1        5.737   2.484  -1.055  0.00  0.00    +0.000 A 
ATOM     32  C   LIG    1        4.620   1.671  -1.039  0.00  0.00    +0.010 A 
ENDBRANCH  20  27
ENDBRANCH   3  20
TORSDOF 7
