REMARK  Name = ZINCpe000000UIis.0
REMARK                            x       y       z     vdW  Elec       q    Type
REMARK                         _______ _______ _______ _____ _____    ______ ____
ROOT
ATOM      1  C   LIG    1        1.392   4.582  -0.313  0.00  0.00    +0.530 C 
ATOM      2  N   LIG    1        2.724   4.737  -0.183  0.00  0.00    -0.610 N 
ATOM      3  C   LIG    1        3.518   3.850   0.685  0.00  0.00    +0.280 C 
ATOM      4  C   LIG    1        4.526   3.106  -0.203  0.00  0.00    +0.060 C 
ATOM      5  C   LIG    1        5.191   4.060  -1.150  0.00  0.00    -0.010 C 
ATOM      6  C   LIG    1        4.718   5.242  -1.465  0.00  0.00    -0.100 C 
ATOM      7  C   LIG    1        3.443   5.802  -0.897  0.00  0.00    +0.340 C 
ATOM      8  O   LIG    1        0.762   5.329  -1.031  0.00  0.00    -0.530 OA
ENDROOT
BRANCH   1  11
ATOM      9  N   LIG    1       -1.127   1.963   0.018  0.00  0.00    -0.610 N 
ATOM     10  C   LIG    1       -0.800   3.394   0.017  0.00  0.00    +0.300 C 
ATOM     11  C   LIG    1        0.685   3.479   0.433  0.00  0.00    +0.000 C 
ATOM     12  C   LIG    1        1.214   2.092   0.002  0.00  0.00    +0.070 C 
ATOM     13  C   LIG    1       -0.014   1.209   0.009  0.00  0.00    +0.520 C 
ATOM     14  O   LIG    1        0.002  -0.004   0.002  0.00  0.00    -0.520 OA
BRANCH   9  18
ATOM     15  C   LIG    1       -3.183  -1.780  -0.430  0.00  0.00    +0.170 C 
ATOM     16  N   LIG    1       -3.490  -0.364  -0.183  0.00  0.00    -0.480 NA
ATOM     17  C   LIG    1       -2.803   0.506  -1.163  0.00  0.00    +0.160 C 
ATOM     18  C   LIG    1       -2.490   1.427   0.029  0.00  0.00    +0.250 C 
ATOM     19  C   LIG    1       -2.656   0.178   0.915  0.00  0.00    +0.180 C 
ENDBRANCH   9  18
ENDBRANCH   1  11
BRANCH   6  20
ATOM     20  C   LIG    1        5.477   6.066  -2.429  0.00  0.00    -0.100 A 
ATOM     21  C   LIG    1        5.629   5.650  -3.756  0.00  0.00    +0.070 A 
ATOM     22  C   LIG    1        6.349   6.458  -4.619  0.00  0.00    -0.030 A 
ATOM     23  C   LIG    1        6.889   7.640  -4.146  0.00  0.00    +0.260 A 
ATOM     24  N   LIG    1        6.730   8.007  -2.889  0.00  0.00    -0.480 NA
ATOM     25  C   LIG    1        6.049   7.275  -2.032  0.00  0.00    +0.270 A 
ENDBRANCH   6  20
TORSDOF 3
