REMARK  Name = ZINCqH0000033NX1.0
REMARK                            x       y       z     vdW  Elec       q    Type
REMARK                         _______ _______ _______ _____ _____    ______ ____
ROOT
ATOM      1  N   LIG    1        4.314   0.688  -1.815  0.00  0.00    -0.680 N 
ATOM      2  H   LIG    1        4.916   0.474  -1.085  0.00  0.00    +0.410 HD
ATOM      3  C   LIG    1        3.215   1.433  -1.586  0.00  0.00    +0.510 C 
ATOM      4  O   LIG    1        2.509   1.772  -2.512  0.00  0.00    -0.510 OA
ENDROOT
BRANCH   1   8
ATOM      5  C   LIG    1        5.130  -0.699  -5.663  0.00  0.00    +0.120 A 
ATOM      6  C   LIG    1        4.548   0.549  -5.483  0.00  0.00    +0.020 A 
ATOM      7  C   LIG    1        4.277   1.008  -4.209  0.00  0.00    +0.040 A 
ATOM      8  C   LIG    1        4.588   0.222  -3.108  0.00  0.00    +0.140 A 
ATOM      9  C   LIG    1        5.176  -1.023  -3.287  0.00  0.00    +0.010 A 
ATOM     10  C   LIG    1        5.441  -1.485  -4.561  0.00  0.00    +0.030 A 
BRANCH   5  11
ATOM     11  N   LIG    1        5.405  -1.164  -6.953  0.00  0.00    -1.060 N 
ATOM     12  H   LIG    1        4.740  -1.072  -7.653  0.00  0.00    +0.430 HD
BRANCH  11  13
ATOM     13  S   LIG    1        6.865  -1.870  -7.286  0.00  0.00    +2.600 S 
ATOM     14  O   LIG    1        6.800  -2.174  -8.672  0.00  0.00    -0.950 OA
ATOM     15  O   LIG    1        6.985  -2.901  -6.315  0.00  0.00    -0.950 OA
BRANCH  13  17
ATOM     16  C   LIG    1        9.475  -1.056  -7.372  0.00  0.00    +0.070 C 
ATOM     17  C   LIG    1        8.082  -0.561  -6.978  0.00  0.00    -0.370 C 
ENDBRANCH  13  17
ENDBRANCH  11  13
ENDBRANCH   5  11
ENDBRANCH   1   8
BRANCH   3  18
ATOM     18  C   LIG    1        2.863   1.845  -0.180  0.00  0.00    +0.120 C 
BRANCH  18  19
ATOM     19  C   LIG    1        1.599   2.666  -0.198  0.00  0.00    -0.070 A 
ATOM     20  C   LIG    1        1.679   4.017  -0.334  0.00  0.00    +0.040 A 
ATOM     21  C   LIG    1        0.502   4.785  -0.351  0.00  0.00    -0.050 A 
ATOM     22  C   LIG    1        0.545   6.183  -0.491  0.00  0.00    +0.020 A 
ATOM     23  C   LIG    1       -0.616   6.894  -0.503  0.00  0.00    +0.000 A 
ATOM     24  C   LIG    1       -1.849   6.257  -0.380  0.00  0.00    +0.000 A 
ATOM     25  C   LIG    1       -1.929   4.905  -0.243  0.00  0.00    +0.020 A 
ATOM     26  C   LIG    1       -0.752   4.137  -0.225  0.00  0.00    -0.050 A 
ATOM     27  C   LIG    1       -0.795   2.739  -0.092  0.00  0.00    +0.030 A 
ATOM     28  C   LIG    1        0.366   2.028  -0.074  0.00  0.00    +0.020 A 
ENDBRANCH  18  19
ENDBRANCH   3  18
TORSDOF 6
