REMARK  Name = ZINCpk00000KfL6U.0
REMARK                            x       y       z     vdW  Elec       q    Type
REMARK                         _______ _______ _______ _____ _____    ______ ____
ROOT
ATOM      1  C   LIG    1        5.316   0.373   1.377  0.00  0.00    +0.500 C 
ATOM      2  N   LIG    1        6.453   1.055   1.617  0.00  0.00    -0.610 N 
ATOM      3  C   LIG    1        7.275   1.554   0.506  0.00  0.00    +0.270 C 
ATOM      4  C   LIG    1        8.709   1.059   0.686  0.00  0.00    +0.040 C 
ATOM      5  C   LIG    1        9.214   1.462   2.074  0.00  0.00    +0.030 C 
ATOM      6  C   LIG    1        8.338   0.812   3.147  0.00  0.00    +0.220 C 
ATOM      7  C   LIG    1        6.897   1.309   2.994  0.00  0.00    +0.290 C 
ATOM      8  O   LIG    1        4.649  -0.039   2.302  0.00  0.00    -0.510 OA
ENDROOT
BRANCH   6   9
ATOM      9  N   LIG    1        8.842   1.172   4.474  0.00  0.00    -0.460 N 
ATOM     10  C   LIG    1        9.281   0.305   5.439  0.00  0.00    +0.120 A 
ATOM     11  C   LIG    1        9.651   1.054   6.495  0.00  0.00    +0.140 A 
ATOM     12  N   LIG    1        9.444   2.342   6.184  0.00  0.00    -0.490 NA
ATOM     13  C   LIG    1        8.964   2.421   4.973  0.00  0.00    +0.380 A 
ENDBRANCH   6   9
BRANCH   1  14
ATOM     14  C   LIG    1        4.873   0.121  -0.042  0.00  0.00    +0.370 C 
BRANCH  14  19
ATOM     15  O   LIG    1        0.323  -2.849  -0.015  0.00  0.00    -0.470 OA
ATOM     16  C   LIG    1        1.318  -2.143  -0.021  0.00  0.00    +0.390 A 
ATOM     17  C   LIG    1        2.627  -2.695  -0.036  0.00  0.00    +0.170 A 
ATOM     18  N   LIG    1        3.669  -1.916  -0.042  0.00  0.00    -0.180 NA
ATOM     19  N   LIG    1        3.618  -0.635  -0.035  0.00  0.00    -0.330 N 
ATOM     20  C   LIG    1        2.432   0.053  -0.021  0.00  0.00    +0.160 A 
ATOM     21  C   LIG    1        2.388   1.444  -0.013  0.00  0.00    -0.040 A 
ATOM     22  C   LIG    1        1.169   2.086   0.002  0.00  0.00    +0.090 A 
ATOM     23  C   LIG    1       -0.017   1.363   0.009  0.00  0.00    -0.010 A 
ATOM     24  C   LIG    1        0.002  -0.004   0.002  0.00  0.00    +0.120 A 
ATOM     25  C   LIG    1        1.223  -0.673  -0.013  0.00  0.00    -0.200 A 
ENDBRANCH  14  19
ENDBRANCH   1  14
TORSDOF 3
