REMARK  Name = ZINCqH0000008xZd.0
REMARK                            x       y       z     vdW  Elec       q    Type
REMARK                         _______ _______ _______ _____ _____    ______ ____
ROOT
ATOM      1  N   LIG    1       -0.695   2.065  -1.169  0.00  0.00    -0.700 N 
ATOM      2  H   LIG    1       -0.730   1.536  -1.981  0.00  0.00    +0.410 HD
ENDROOT
BRANCH   1   3
ATOM      3  C   LIG    1       -0.018   1.539   0.019  0.00  0.00    +0.260 C 
ATOM      4  C   LIG    1        0.001  -0.007  -0.009  0.00  0.00    +0.070 C 
ATOM      5  C   LIG    1        1.372  -0.292  -0.662  0.00  0.00    +0.260 C 
ATOM      6  N   LIG    1        2.199   0.884  -0.367  0.00  0.00    -0.560 N 
ATOM      7  C   LIG    1        1.444   1.929   0.012  0.00  0.00    +0.500 C 
ATOM      8  O   LIG    1        1.872   3.025   0.305  0.00  0.00    -0.490 OA
BRANCH   6   9
ATOM      9  C   LIG    1        3.594   0.913  -0.469  0.00  0.00    +0.160 A 
ATOM     10  C   LIG    1        4.279   2.108  -0.290  0.00  0.00    -0.010 A 
ATOM     11  C   LIG    1        5.657   2.133  -0.387  0.00  0.00    +0.040 A 
ATOM     12  C   LIG    1        6.353   0.972  -0.671  0.00  0.00    -0.030 A 
ATOM     13  C   LIG    1        5.673  -0.218  -0.855  0.00  0.00    +0.040 A 
ATOM     14  C   LIG    1        4.296  -0.250  -0.755  0.00  0.00    -0.030 A 
ENDBRANCH   6   9
ENDBRANCH   1   3
BRANCH   1  18
ATOM     15  N   LIG    1       -2.368   5.167  -1.680  0.00  0.00    -0.360 N 
ATOM     16  C   LIG    1       -1.982   5.318  -0.396  0.00  0.00    +0.250 A 
ATOM     17  C   LIG    1       -1.314   4.200  -0.029  0.00  0.00    -0.150 A 
ATOM     18  C   LIG    1       -1.290   3.331  -1.132  0.00  0.00    +0.330 A 
ATOM     19  N   LIG    1       -1.919   3.917  -2.124  0.00  0.00    -0.340 NA
BRANCH  15  21
ATOM     20  C   LIG    1       -4.112   6.877  -1.571  0.00  0.00    +0.060 C 
ATOM     21  C   LIG    1       -3.118   6.144  -2.474  0.00  0.00    +0.320 C 
BRANCH  21  22
ATOM     22  C   LIG    1       -2.163   7.138  -3.082  0.00  0.00    -0.110 A 
ATOM     23  C   LIG    1       -1.367   7.919  -2.266  0.00  0.00    +0.020 A 
ATOM     24  C   LIG    1       -0.487   8.828  -2.824  0.00  0.00    +0.000 A 
ATOM     25  C   LIG    1       -0.411   8.962  -4.197  0.00  0.00    +0.010 A 
ATOM     26  C   LIG    1       -1.212   8.185  -5.013  0.00  0.00    +0.010 A 
ATOM     27  C   LIG    1       -2.087   7.272  -4.455  0.00  0.00    +0.020 A 
ENDBRANCH  21  22
ENDBRANCH  15  21
ENDBRANCH   1  18
TORSDOF 5
