REMARK  Name = ZINCvU0000000GPS.0
REMARK                            x       y       z     vdW  Elec       q    Type
REMARK                         _______ _______ _______ _____ _____    ______ ____
ROOT
ATOM      1  C   LIG    1        2.160   9.879  -0.561  0.00  0.00    +0.430 C 
ENDROOT
BRANCH   1   5
ATOM      2  C   LIG    1        0.130  11.700   1.780  0.00  0.00    +0.210 A 
ATOM      3  N   LIG    1       -0.615  11.677   0.706  0.00  0.00    -0.360 NA
ATOM      4  O   LIG    1       -0.045  11.083  -0.184  0.00  0.00    +0.100 OA
ATOM      5  C   LIG    1        1.148  10.656   0.241  0.00  0.00    +0.170 A 
ATOM      6  N   LIG    1        1.271  11.037   1.489  0.00  0.00    -0.450 NA
BRANCH   2  11
ATOM      7  C   LIG    1       -1.753  13.567   4.446  0.00  0.00    -0.180 A 
ATOM      8  C   LIG    1       -0.859  13.510   5.500  0.00  0.00    +0.100 A 
ATOM      9  C   LIG    1        0.356  12.866   5.348  0.00  0.00    +0.030 A 
ATOM     10  C   LIG    1        0.682  12.277   4.143  0.00  0.00    +0.110 A 
ATOM     11  C   LIG    1       -0.215  12.332   3.078  0.00  0.00    -0.030 A 
ATOM     12  C   LIG    1       -1.435  12.986   3.235  0.00  0.00    +0.110 A 
BRANCH   7  14
ATOM     13  F   LIG    1       -3.166  14.780   5.919  0.00  0.00    -0.170 F 
ATOM     14  C   LIG    1       -3.075  14.271   4.619  0.00  0.00    +0.510 C 
ATOM     15  F   LIG    1       -4.117  13.365   4.399  0.00  0.00    -0.170 F 
ATOM     16  F   LIG    1       -3.167  15.321   3.700  0.00  0.00    -0.170 F 
ENDBRANCH   7  14
ENDBRANCH   2  11
ENDBRANCH   1   5
BRANCH   1  17
ATOM     17  N   LIG    1        1.914   8.444  -0.399  0.00  0.00    -0.750 N 
ATOM     18  H   LIG    1        1.184   8.138   0.163  0.00  0.00    +0.400 HD
BRANCH  17  19
ATOM     19  C   LIG    1        2.729   7.518  -1.052  0.00  0.00    +0.250 A 
ATOM     20  C   LIG    1        3.774   7.955  -1.856  0.00  0.00    -0.060 A 
ATOM     21  C   LIG    1        4.578   7.036  -2.501  0.00  0.00    +0.070 A 
ATOM     22  C   LIG    1        4.345   5.682  -2.347  0.00  0.00    -0.010 A 
ATOM     23  C   LIG    1        3.306   5.242  -1.547  0.00  0.00    -0.050 A 
ATOM     24  C   LIG    1        2.822   3.852  -1.200  0.00  0.00    +0.280 C 
ATOM     25  N   LIG    1        1.977   4.013   0.005  0.00  0.00    -0.410 N 
ATOM     26  C   LIG    1        1.459   5.395  -0.107  0.00  0.00    +0.250 C 
ATOM     27  C   LIG    1        2.497   6.157  -0.899  0.00  0.00    -0.180 A 
BRANCH  25  28
ATOM     28  C   LIG    1        0.940   3.093   0.010  0.00  0.00    +0.220 A 
ATOM     29  N   LIG    1        1.089   1.805   0.001  0.00  0.00    -0.490 NA
ATOM     30  C   LIG    1       -0.013   1.076   0.008  0.00  0.00    +0.240 A 
ATOM     31  C   LIG    1       -1.144   1.781   0.017  0.00  0.00    -0.090 A 
ATOM     32  S   LIG    1       -0.723   3.491   0.028  0.00  0.00    +0.100 S 
ENDBRANCH  25  28
ENDBRANCH  17  19
ENDBRANCH   1  17
TORSDOF 6
