REMARK  Name = ZINCrH000004u7f7.0
REMARK                            x       y       z     vdW  Elec       q    Type
REMARK                         _______ _______ _______ _____ _____    ______ ____
ROOT
ATOM      1  C   LIG    1       -2.501  -2.864   0.011  0.00  0.00    +0.230 C 
ATOM      2  C   LIG    1       -2.989  -3.030   1.454  0.00  0.00    +0.010 C 
ATOM      3  C   LIG    1       -4.268  -3.870   1.461  0.00  0.00    +0.190 C 
ATOM      4  N   LIG    1       -3.998  -5.183   0.862  0.00  0.00    -0.540 NA
ATOM      5  C   LIG    1       -3.574  -5.051  -0.538  0.00  0.00    +0.200 C 
ATOM      6  C   LIG    1       -2.273  -4.247  -0.605  0.00  0.00    +0.040 C 
ENDROOT
BRANCH   1   9
ATOM      7  O   LIG    1       -2.329  -0.173   0.024  0.00  0.00    -0.530 OA
ATOM      8  C   LIG    1       -1.266  -0.764   0.011  0.00  0.00    +0.560 C 
ATOM      9  N   LIG    1       -1.244  -2.111   0.003  0.00  0.00    -0.720 N 
ATOM     10  H   LIG    1       -0.397  -2.583  -0.008  0.00  0.00    +0.400 HD
BRANCH   8  11
ATOM     11  C   LIG    1        0.002  -0.004   0.002  0.00  0.00    -0.140 A 
ATOM     12  C   LIG    1       -0.017   1.391   0.010  0.00  0.00    +0.080 A 
ATOM     13  C   LIG    1        1.170   2.095   0.002  0.00  0.00    +0.000 A 
ATOM     14  C   LIG    1        2.378   1.419  -0.013  0.00  0.00    +0.040 A 
ATOM     15  C   LIG    1        2.403   0.036  -0.021  0.00  0.00    +0.000 A 
ATOM     16  C   LIG    1        1.224  -0.679  -0.013  0.00  0.00    +0.040 A 
ENDBRANCH   8  11
ENDBRANCH   1   9
BRANCH   4  17
ATOM     17  C   LIG    1       -5.167  -6.065   0.977  0.00  0.00    +0.340 C 
BRANCH  17  18
ATOM     18  C   LIG    1       -5.721  -5.985   2.376  0.00  0.00    +0.200 A 
ATOM     19  N   LIG    1       -6.632  -5.145   2.782  0.00  0.00    -0.470 NA
ATOM     20  C   LIG    1       -6.876  -5.365   4.082  0.00  0.00    +0.170 A 
ATOM     21  C   LIG    1       -6.075  -6.386   4.482  0.00  0.00    +0.000 A 
ATOM     22  O   LIG    1       -5.361  -6.769   3.401  0.00  0.00    -0.190 OA
BRANCH  21  23
ATOM     23  C   LIG    1       -6.003  -6.970   5.838  0.00  0.00    -0.020 A 
ATOM     24  C   LIG    1       -5.131  -8.027   6.100  0.00  0.00    +0.030 A 
ATOM     25  C   LIG    1       -5.064  -8.564   7.369  0.00  0.00    +0.010 A 
ATOM     26  C   LIG    1       -5.869  -8.065   8.378  0.00  0.00    +0.020 A 
ATOM     27  C   LIG    1       -6.740  -7.021   8.123  0.00  0.00    +0.020 A 
ATOM     28  C   LIG    1       -6.812  -6.471   6.860  0.00  0.00    +0.030 A 
ENDBRANCH  21  23
ENDBRANCH  17  18
ENDBRANCH   4  17
TORSDOF 5
