REMARK  Name = ZINCtV00001bB3Hj.0
REMARK                            x       y       z     vdW  Elec       q    Type
REMARK                         _______ _______ _______ _____ _____    ______ ____
ROOT
ATOM      1  C   LIG    1       -1.296   2.176   0.020  0.00  0.00    +0.280 C 
ATOM      2  C   LIG    1       -2.128   1.755   1.250  0.00  0.00    +0.030 C 
ATOM      3  C   LIG    1       -3.063   0.643   0.713  0.00  0.00    +0.020 C 
ATOM      4  C   LIG    1       -3.428   1.156  -0.702  0.00  0.00    +0.040 C 
ATOM      5  C   LIG    1       -2.123   1.796  -1.221  0.00  0.00    +0.020 C 
ENDROOT
BRANCH   5   6
ATOM      6  C   LIG    1       -2.437   3.029  -2.029  0.00  0.00    -0.040 A 
ATOM      7  C   LIG    1       -3.163   4.059  -1.463  0.00  0.00    +0.030 A 
ATOM      8  C   LIG    1       -3.447   5.192  -2.203  0.00  0.00    +0.080 A 
ATOM      9  C   LIG    1       -3.014   5.290  -3.512  0.00  0.00    -0.180 A 
ATOM     10  C   LIG    1       -2.292   4.257  -4.080  0.00  0.00    +0.070 A 
ATOM     11  C   LIG    1       -2.003   3.126  -3.338  0.00  0.00    +0.020 A 
BRANCH   9  12
ATOM     12  C   LIG    1       -3.329   6.522  -4.320  0.00  0.00    +0.510 C 
ATOM     13  F   LIG    1       -2.314   6.736  -5.259  0.00  0.00    -0.180 F 
ATOM     14  F   LIG    1       -3.417   7.628  -3.469  0.00  0.00    -0.180 F 
ATOM     15  F   LIG    1       -4.548   6.346  -4.983  0.00  0.00    -0.180 F 
ENDBRANCH   9  12
ENDBRANCH   5   6
BRANCH   1  17
ATOM     16  C   LIG    1        0.002  -0.004   0.002  0.00  0.00    +0.300 C 
ATOM     17  N   LIG    1       -0.018   1.461   0.010  0.00  0.00    -0.560 N 
BRANCH  17  18
ATOM     18  C   LIG    1        1.169   2.167   0.003  0.00  0.00    +0.430 A 
ATOM     19  N   LIG    1        1.294   3.474   0.003  0.00  0.00    -0.340 NA
ATOM     20  N   LIG    1        2.543   3.784  -0.002  0.00  0.00    -0.210 NA
ATOM     21  C   LIG    1        3.263   2.689  -0.015  0.00  0.00    +0.160 A 
ATOM     22  O   LIG    1        2.408   1.643  -0.012  0.00  0.00    -0.240 OA
BRANCH  21  23
ATOM     23  C   LIG    1        4.739   2.613  -0.030  0.00  0.00    +0.020 A 
ATOM     24  C   LIG    1        5.377   1.371  -0.038  0.00  0.00    +0.050 A 
ATOM     25  C   LIG    1        6.755   1.307  -0.057  0.00  0.00    +0.040 A 
ATOM     26  C   LIG    1        7.505   2.470  -0.058  0.00  0.00    +0.040 A 
ATOM     27  C   LIG    1        6.880   3.704  -0.045  0.00  0.00    +0.050 A 
ATOM     28  C   LIG    1        5.502   3.783  -0.031  0.00  0.00    -0.060 A 
ATOM     29 BR   LIG    1        4.649   5.471  -0.013  0.00  0.00    -0.000 Br
ENDBRANCH  21  23
ENDBRANCH  17  18
ENDBRANCH   1  17
TORSDOF 5
