REMARK  Name = ZINCqH000005108K.0
REMARK                            x       y       z     vdW  Elec       q    Type
REMARK                         _______ _______ _______ _____ _____    ______ ____
ROOT
ATOM      1  N   LIG    1        3.622  -0.665  -0.037  0.00  0.00    -0.660 N 
ATOM      2  H   LIG    1        4.453  -0.174  -0.123  0.00  0.00    +0.420 HD
ATOM      3  C   LIG    1        3.640  -2.010   0.057  0.00  0.00    +0.520 C 
ATOM      4  O   LIG    1        2.599  -2.632   0.064  0.00  0.00    -0.490 OA
ENDROOT
BRANCH   1  10
ATOM      5  C   LIG    1        2.293   1.281  -0.602  0.00  0.00    -0.120 A 
ATOM      6  C   LIG    1        1.081   1.956  -0.572  0.00  0.00    +0.020 A 
ATOM      7  C   LIG    1       -0.015   1.380   0.043  0.00  0.00    +0.020 A 
ATOM      8  C   LIG    1        0.092   0.133   0.630  0.00  0.00    +0.040 A 
ATOM      9  C   LIG    1        1.296  -0.547   0.605  0.00  0.00    +0.040 A 
ATOM     10  C   LIG    1        2.401   0.022  -0.010  0.00  0.00    +0.170 A 
BRANCH   5  11
ATOM     11  S   LIG    1        3.692   2.012  -1.385  0.00  0.00    -0.080 S 
BRANCH  11  12
ATOM     12  C   LIG    1        3.046   3.600  -1.977  0.00  0.00    +0.260 C 
BRANCH  12  14
ATOM     13  N   LIG    1        4.942   4.910  -3.197  0.00  0.00    -0.390 NA
ATOM     14  C   LIG    1        4.116   4.340  -2.665  0.00  0.00    +0.210 C 
ENDBRANCH  12  14
ENDBRANCH  11  12
ENDBRANCH   5  11
ENDBRANCH   1  10
BRANCH   3  15
ATOM     15  C   LIG    1        4.955  -2.740   0.154  0.00  0.00    +0.270 C 
BRANCH  15  16
ATOM     16  O   LIG    1        4.709  -4.168   0.244  0.00  0.00    -0.330 OA
BRANCH  16  17
ATOM     17  C   LIG    1        5.784  -4.967   0.337  0.00  0.00    +0.490 C 
ATOM     18  O   LIG    1        6.894  -4.488   0.343  0.00  0.00    -0.480 OA
BRANCH  17  19
ATOM     19  C   LIG    1        5.608  -6.460   0.434  0.00  0.00    +0.150 C 
BRANCH  19  20
ATOM     20  S   LIG    1        7.234  -7.256   0.546  0.00  0.00    -0.020 S 
BRANCH  20  21
ATOM     21  C   LIG    1        6.832  -8.968   0.651  0.00  0.00    -0.110 A 
ATOM     22  C   LIG    1        5.503  -9.372   0.639  0.00  0.00    +0.020 A 
ATOM     23  C   LIG    1        5.190 -10.715   0.715  0.00  0.00    +0.010 A 
ATOM     24  C   LIG    1        6.200 -11.658   0.816  0.00  0.00    +0.100 A 
ATOM     25  C   LIG    1        7.525 -11.257   0.834  0.00  0.00    +0.010 A 
ATOM     26  F   LIG    1        5.891 -12.971   0.896  0.00  0.00    -0.140 F 
ATOM     27  C   LIG    1        7.843  -9.915   0.752  0.00  0.00    +0.070 A 
ENDBRANCH  20  21
ENDBRANCH  19  20
ENDBRANCH  17  19
ENDBRANCH  16  17
ENDBRANCH  15  16
ENDBRANCH   3  15
TORSDOF 10
