REMARK  Name = ZINCvU0000000GG2.0
REMARK                            x       y       z     vdW  Elec       q    Type
REMARK                         _______ _______ _______ _____ _____    ______ ____
ROOT
ATOM      1  C   LIG    1       -1.356   4.040  -1.556  0.00  0.00    +0.160 A 
ATOM      2  N   LIG    1       -2.178   3.726  -2.517  0.00  0.00    -0.270 NA
ATOM      3  N   LIG    1       -3.063   2.898  -2.088  0.00  0.00    -0.290 NA
ATOM      4  C   LIG    1       -2.848   2.634  -0.820  0.00  0.00    +0.140 A 
ATOM      5  N   LIG    1       -1.755   3.359  -0.440  0.00  0.00    -0.450 N 
ENDROOT
BRANCH   1   6
ATOM      6  C   LIG    1       -0.183   4.982  -1.656  0.00  0.00    +0.270 C 
BRANCH   6   7
ATOM      7  N   LIG    1        0.709   4.539  -2.736  0.00  0.00    -0.520 NA
ATOM      8  C   LIG    1        0.005   4.513  -4.024  0.00  0.00    +0.210 C 
ATOM      9  C   LIG    1        1.294   3.226  -2.430  0.00  0.00    +0.190 C 
ENDBRANCH   6   7
BRANCH   6  11
ATOM     10  C   LIG    1        0.495   7.365  -1.976  0.00  0.00    +0.030 C 
ATOM     11  C   LIG    1       -0.687   6.394  -1.959  0.00  0.00    +0.040 C 
ENDBRANCH   6  11
ENDBRANCH   1   6
BRANCH   4  12
ATOM     12  S   LIG    1       -3.793   1.551   0.199  0.00  0.00    +0.080 S 
BRANCH  12  13
ATOM     13  C   LIG    1       -5.029   0.991  -1.000  0.00  0.00    +0.110 C 
BRANCH  13  14
ATOM     14  C   LIG    1       -5.975   0.026  -0.332  0.00  0.00    +0.540 C 
ATOM     15  N   LIG    1       -6.984  -0.524  -1.036  0.00  0.00    -0.660 N 
ATOM     16  H   LIG    1       -7.058  -0.358  -1.989  0.00  0.00    +0.420 HD
ATOM     17  O   LIG    1       -5.828  -0.255   0.839  0.00  0.00    -0.500 OA
BRANCH  15  18
ATOM     18  C   LIG    1       -7.927  -1.334  -0.391  0.00  0.00    +0.150 A 
ATOM     19  C   LIG    1       -8.085  -1.256   0.986  0.00  0.00    +0.040 A 
ATOM     20  C   LIG    1       -9.021  -2.053   1.618  0.00  0.00    +0.040 A 
ATOM     21  C   LIG    1       -9.790  -2.935   0.883  0.00  0.00    -0.090 A 
ATOM     22  C   LIG    1       -9.632  -3.019  -0.488  0.00  0.00    +0.050 A 
ATOM     23  C   LIG    1      -10.805  -3.806   1.577  0.00  0.00    +0.100 C 
ATOM     24  C   LIG    1       -8.702  -2.221  -1.128  0.00  0.00    -0.070 A 
ATOM     25 CL   LIG    1       -8.503  -2.328  -2.849  0.00  0.00    -0.060 Cl
ENDBRANCH  15  18
ENDBRANCH  13  14
ENDBRANCH  12  13
ENDBRANCH   4  12
BRANCH   5  26
ATOM     26  C   LIG    1       -1.135   3.394   0.887  0.00  0.00    +0.360 C 
BRANCH  26  27
ATOM     27  C   LIG    1       -1.762   4.493   1.705  0.00  0.00    -0.120 A 
ATOM     28  C   LIG    1       -1.224   5.766   1.681  0.00  0.00    +0.020 A 
ATOM     29  C   LIG    1       -1.802   6.775   2.428  0.00  0.00    +0.010 A 
ATOM     30  C   LIG    1       -2.912   6.508   3.208  0.00  0.00    +0.030 A 
ATOM     31  C   LIG    1       -3.447   5.234   3.237  0.00  0.00    +0.010 A 
ATOM     32  C   LIG    1       -2.872   4.226   2.486  0.00  0.00    +0.040 A 
ENDBRANCH  26  27
ENDBRANCH   5  26
TORSDOF 9
