REMARK  Name = ZINCpe000000Xx9T.0
REMARK                            x       y       z     vdW  Elec       q    Type
REMARK                         _______ _______ _______ _____ _____    ______ ____
ROOT
ATOM      1  C   LIG    1        0.274   6.198   1.560  0.00  0.00    +0.240 C 
ENDROOT
BRANCH   1   4
ATOM      2  N   LIG    1       -1.075   4.359   0.603  0.00  0.00    -0.730 N 
ATOM      3  H   LIG    1       -0.884   4.718  -0.278  0.00  0.00    +0.410 HD
ATOM      4  C   LIG    1       -0.578   4.963   1.700  0.00  0.00    +0.520 C 
ATOM      5  O   LIG    1       -0.817   4.513   2.801  0.00  0.00    -0.500 OA
BRANCH   2   7
ATOM      6  C   LIG    1       -3.131   3.465   1.601  0.00  0.00    +0.070 C 
ATOM      7  C   LIG    1       -1.904   3.158   0.740  0.00  0.00    +0.180 C 
ATOM      8  C   LIG    1       -2.345   2.662  -0.648  0.00  0.00    +0.090 C 
ATOM      9  C   LIG    1       -1.126   2.045  -1.363  0.00  0.00    -0.310 C 
ATOM     10  S   LIG    1       -0.044   1.437  -0.020  0.00  0.00    +2.380 S 
ATOM     11  O   LIG    1        1.178   2.162  -0.035  0.00  0.00    -0.930 OA
ATOM     12  O   LIG    1       -0.024   0.016  -0.038  0.00  0.00    -0.930 OA
ATOM     13  C   LIG    1       -1.074   2.012   1.382  0.00  0.00    -0.300 C 
ENDBRANCH   2   7
ENDBRANCH   1   4
BRANCH   1  14
ATOM     14  O   LIG    1        0.677   6.649   2.854  0.00  0.00    -0.290 OA
BRANCH  14  15
ATOM     15  C   LIG    1        1.457   7.761   2.906  0.00  0.00    +0.100 A 
ATOM     16  C   LIG    1        1.831   8.400   1.733  0.00  0.00    -0.050 A 
ATOM     17  C   LIG    1        2.619   9.533   1.784  0.00  0.00    +0.010 A 
ATOM     18  C   LIG    1        3.047  10.025   3.010  0.00  0.00    +0.130 A 
ATOM     19  C   LIG    1        2.677   9.382   4.184  0.00  0.00    +0.050 A 
ATOM     20  C   LIG    1        1.884   8.253   4.131  0.00  0.00    +0.030 A 
BRANCH  18  21
ATOM     21  N   LIG    1        3.852  11.171   3.063  0.00  0.00    -0.560 N 
ATOM     22  C   LIG    1        4.402  11.852   1.885  0.00  0.00    +0.260 C 
ATOM     23  C   LIG    1        4.822  13.255   2.381  0.00  0.00    +0.060 C 
ATOM     24  C   LIG    1        5.078  12.993   3.883  0.00  0.00    +0.070 C 
ATOM     25  C   LIG    1        4.223  11.786   4.199  0.00  0.00    +0.510 C 
ATOM     26  O   LIG    1        3.917  11.424   5.316  0.00  0.00    -0.510 OA
ENDBRANCH  18  21
ENDBRANCH  14  15
ENDBRANCH   1  14
TORSDOF 5
