REMARK  Name = ZINCvU00000008jE.0
REMARK                            x       y       z     vdW  Elec       q    Type
REMARK                         _______ _______ _______ _____ _____    ______ ____
ROOT
ATOM      1  C   LIG    1       -4.526  -3.516   0.816  0.00  0.00    -0.250 A 
ATOM      2  C   LIG    1       -5.419  -2.454   0.787  0.00  0.00    +0.310 A 
ATOM      3  N   LIG    1       -6.636  -2.935   1.091  0.00  0.00    -0.300 N 
ATOM      4  N   LIG    1       -6.555  -4.309   1.331  0.00  0.00    -0.270 NA
ATOM      5  C   LIG    1       -5.312  -4.704   1.178  0.00  0.00    +0.170 A 
ENDROOT
BRANCH   1  13
ATOM      6  C   LIG    1       -4.944  -2.138  -1.738  0.00  0.00    +0.180 C 
ATOM      7  C   LIG    1       -3.443  -2.109  -1.598  0.00  0.00    +0.140 C 
ATOM      8  N   LIG    1       -2.610  -1.521  -2.401  0.00  0.00    -0.240 NA
ATOM      9  N   LIG    1       -1.292  -1.694  -1.981  0.00  0.00    -0.410 N 
ATOM     10  C   LIG    1       -1.259  -2.420  -0.845  0.00  0.00    +0.530 C 
ATOM     11  O   LIG    1       -0.269  -2.748  -0.212  0.00  0.00    -0.490 OA
ATOM     12  C   LIG    1       -2.659  -2.735  -0.524  0.00  0.00    -0.260 C 
ATOM     13  C   LIG    1       -3.135  -3.464   0.554  0.00  0.00    +0.300 C 
BRANCH   9  14
ATOM     14  C   LIG    1       -0.166  -1.183  -2.639  0.00  0.00    +0.170 A 
ATOM     15  C   LIG    1       -0.318  -0.447  -3.807  0.00  0.00    +0.000 A 
ATOM     16  C   LIG    1        0.794   0.055  -4.454  0.00  0.00    +0.030 A 
ATOM     17  C   LIG    1        2.057  -0.173  -3.940  0.00  0.00    -0.010 A 
ATOM     18  C   LIG    1        2.212  -0.906  -2.778  0.00  0.00    +0.040 A 
ATOM     19  C   LIG    1        1.104  -1.412  -2.126  0.00  0.00    +0.000 A 
ENDBRANCH   9  14
ENDBRANCH   1  13
BRANCH   3  20
ATOM     20  C   LIG    1       -7.808  -2.172   1.163  0.00  0.00    +0.140 A 
ATOM     21  C   LIG    1       -7.767  -0.808   0.908  0.00  0.00    -0.010 A 
ATOM     22  C   LIG    1       -8.926  -0.059   0.975  0.00  0.00    +0.050 A 
ATOM     23  C   LIG    1      -10.125  -0.666   1.304  0.00  0.00    +0.010 A 
ATOM     24  C   LIG    1      -10.168  -2.023   1.564  0.00  0.00    +0.050 A 
ATOM     25  C   LIG    1       -9.013  -2.778   1.494  0.00  0.00    +0.030 A 
ENDBRANCH   3  20
BRANCH   5  26
ATOM     26  C   LIG    1       -4.800  -6.085   1.341  0.00  0.00    -0.030 A 
ATOM     27  C   LIG    1       -3.772  -6.551   0.522  0.00  0.00    +0.040 A 
ATOM     28  C   LIG    1       -3.294  -7.836   0.683  0.00  0.00    +0.010 A 
ATOM     29  C   LIG    1       -3.841  -8.665   1.646  0.00  0.00    +0.030 A 
ATOM     30  C   LIG    1       -4.865  -8.210   2.458  0.00  0.00    +0.010 A 
ATOM     31  C   LIG    1       -5.347  -6.925   2.311  0.00  0.00    +0.050 A 
ENDBRANCH   5  26
TORSDOF 4
