REMARK  Name = ZINCkj00000OLZ80.0
REMARK                            x       y       z     vdW  Elec       q    Type
REMARK                         _______ _______ _______ _____ _____    ______ ____
ROOT
ATOM      1  N   LIG    1       -2.826   1.380   0.037  0.00  0.00    -0.990 NA
ATOM      2  C   LIG    1       -2.178   1.033  -1.236  0.00  0.00    +0.290 C 
ATOM      3  C   LIG    1       -0.752   1.593  -1.232  0.00  0.00    +0.040 C 
ATOM      4  C   LIG    1       -0.013   1.086   0.008  0.00  0.00    +0.040 C 
ATOM      5  C   LIG    1       -0.729   1.579   1.268  0.00  0.00    +0.040 C 
ATOM      6  C   LIG    1       -2.154   1.019   1.293  0.00  0.00    +0.290 C 
ENDROOT
BRANCH   4   7
ATOM      7  C   LIG    1        1.401   1.607  -0.003  0.00  0.00    -0.100 A 
ATOM      8  C   LIG    1        1.635   2.970  -0.003  0.00  0.00    +0.040 A 
ATOM      9  C   LIG    1        2.931   3.449  -0.007  0.00  0.00    -0.010 A 
ATOM     10  C   LIG    1        3.996   2.564  -0.023  0.00  0.00    +0.100 A 
ATOM     11  C   LIG    1        3.760   1.200  -0.028  0.00  0.00    -0.010 A 
ATOM     12  F   LIG    1        5.263   3.031  -0.033  0.00  0.00    -0.140 F 
ATOM     13  C   LIG    1        2.463   0.723  -0.018  0.00  0.00    +0.050 A 
ENDBRANCH   4   7
BRANCH   1  15
ATOM     14  O   LIG    1       -4.296   2.855   1.296  0.00  0.00    -0.910 OA
ATOM     15  S   LIG    1       -4.285   2.163   0.055  0.00  0.00    +2.620 S 
ATOM     16  O   LIG    1       -4.320   2.868  -1.178  0.00  0.00    -0.920 OA
BRANCH  15  17
ATOM     17  C   LIG    1       -5.514   0.829   0.060  0.00  0.00    -0.510 C 
ATOM     18  C   LIG    1       -5.737   0.186  -1.321  0.00  0.00    +0.370 C 
ATOM     19  N   LIG    1       -7.178   0.202  -0.986  0.00  0.00    -0.520 N 
ATOM     20  H   LIG    1       -7.762   0.449  -1.771  0.00  0.00    +0.430 HD
ATOM     21  H   LIG    1       -7.485  -0.643  -0.527  0.00  0.00    +0.450 HD
ATOM     22  C   LIG    1       -6.967   1.325  -0.046  0.00  0.00    +0.360 C 
ENDBRANCH  15  17
ENDBRANCH   1  15
TORSDOF 3
