REMARK  Name = ZINCvU0000000596.0
REMARK                            x       y       z     vdW  Elec       q    Type
REMARK                         _______ _______ _______ _____ _____    ______ ____
ROOT
ATOM      1  C   LIG    1        3.241   0.512  -1.314  0.00  0.00    -0.900 C 
ENDROOT
BRANCH   1   2
ATOM      2  S   LIG    1        2.890   0.702   0.455  0.00  0.00    +2.510 S 
ATOM      3  O   LIG    1        3.562  -0.298   1.208  0.00  0.00    -0.900 OA
ATOM      4  O   LIG    1        2.955   2.071   0.832  0.00  0.00    -0.880 OA
BRANCH   2   9
ATOM      5  C   LIG    1       -2.952  -0.710   0.989  0.00  0.00    +0.110 C 
ATOM      6  C   LIG    1       -1.493  -0.357   0.856  0.00  0.00    -0.020 A 
ATOM      7  C   LIG    1       -0.538  -1.357   0.849  0.00  0.00    +0.000 A 
ATOM      8  C   LIG    1        0.801  -1.033   0.732  0.00  0.00    +0.120 A 
ATOM      9  C   LIG    1        1.184   0.290   0.612  0.00  0.00    -0.670 A 
ATOM     10  C   LIG    1        0.229   1.289   0.613  0.00  0.00    +0.140 A 
ATOM     11  C   LIG    1       -1.110   0.966   0.735  0.00  0.00    +0.010 A 
ENDBRANCH   2   9
ENDBRANCH   1   2
BRANCH   1  12
ATOM     12  S   LIG    1        3.669   2.126  -2.023  0.00  0.00    +2.550 S 
ATOM     13  O   LIG    1        3.893   2.013  -3.422  0.00  0.00    -0.870 OA
ATOM     14  O   LIG    1        4.592   2.809  -1.186  0.00  0.00    -0.880 OA
BRANCH  12  15
ATOM     15  C   LIG    1        2.186   3.069  -1.895  0.00  0.00    -0.700 A 
ATOM     16  C   LIG    1        1.206   2.950  -2.863  0.00  0.00    +0.130 A 
ATOM     17  C   LIG    1        0.040   3.686  -2.760  0.00  0.00    -0.010 A 
ATOM     18  C   LIG    1       -0.141   4.549  -1.695  0.00  0.00    -0.020 A 
ATOM     19  C   LIG    1        0.841   4.671  -0.730  0.00  0.00    -0.010 A 
ATOM     20  C   LIG    1       -1.409   5.356  -1.586  0.00  0.00    +0.090 C 
ATOM     21  C   LIG    1        2.005   3.931  -0.830  0.00  0.00    +0.180 A 
ENDBRANCH  12  15
ENDBRANCH   1  12
BRANCH   1  22
ATOM     22  C   LIG    1        4.396  -0.439  -1.497  0.00  0.00    +0.280 C 
ATOM     23  S   LIG    1        5.619  -0.038  -2.446  0.00  0.00    -0.330 S 
BRANCH  22  24
ATOM     24  N   LIG    1        4.398  -1.627  -0.861  0.00  0.00    -0.580 N 
ATOM     25  H   LIG    1        3.631  -1.895  -0.332  0.00  0.00    +0.410 HD
BRANCH  24  26
ATOM     26  C   LIG    1        5.508  -2.473  -0.963  0.00  0.00    +0.120 A 
ATOM     27  C   LIG    1        5.327  -3.837  -1.150  0.00  0.00    +0.030 A 
ATOM     28  C   LIG    1        6.424  -4.670  -1.255  0.00  0.00    +0.060 A 
ATOM     29  C   LIG    1        7.702  -4.147  -1.163  0.00  0.00    -0.080 A 
ATOM     30  C   LIG    1        7.885  -2.789  -0.972  0.00  0.00    +0.070 A 
ATOM     31 BR   LIG    1        9.201  -5.291  -1.300  0.00  0.00    -0.040 Br
ATOM     32  C   LIG    1        6.791  -1.951  -0.872  0.00  0.00    +0.080 A 
ENDBRANCH  24  26
ENDBRANCH  22  24
ENDBRANCH   1  22
TORSDOF 7
