REMARK  Name = ZINCrD00000l1tii.0
REMARK                            x       y       z     vdW  Elec       q    Type
REMARK                         _______ _______ _______ _____ _____    ______ ____
ROOT
ATOM      1  N   LIG    1        3.929   1.800   0.399  0.00  0.00    -0.480 N 
ATOM      2  C   LIG    1        3.868   2.775  -0.699  0.00  0.00    +0.210 C 
ATOM      3  C   LIG    1        5.163   3.590  -0.726  0.00  0.00    +0.200 C 
ATOM      4  N   LIG    1        6.306   2.683  -0.895  0.00  0.00    -0.520 NA
ATOM      5  C   LIG    1        6.367   1.707   0.202  0.00  0.00    +0.190 C 
ATOM      6  C   LIG    1        5.072   0.892   0.230  0.00  0.00    +0.200 C 
ENDROOT
BRANCH   1  12
ATOM      7  C   LIG    1        2.002   1.140   1.692  0.00  0.00    -0.150 A 
ATOM      8  C   LIG    1        0.806   0.415   1.769  0.00  0.00    +0.130 A 
ATOM      9  C   LIG    1        0.410  -0.319   0.665  0.00  0.00    -0.040 A 
ATOM     10  C   LIG    1        1.196  -0.316  -0.473  0.00  0.00    +0.310 A 
ATOM     11  N   LIG    1        2.319   0.373  -0.527  0.00  0.00    -0.510 NA
ATOM     12  C   LIG    1        2.745   1.092   0.499  0.00  0.00    +0.360 A 
BRANCH   7  13
ATOM     13  C   LIG    1        2.471   1.937   2.837  0.00  0.00    +0.500 C 
ATOM     14  O   LIG    1        3.467   2.625   2.732  0.00  0.00    -0.460 OA
BRANCH  13  16
ATOM     15  C   LIG    1        2.315   2.716   5.089  0.00  0.00    +0.260 C 
ATOM     16  O   LIG    1        1.795   1.904   4.003  0.00  0.00    -0.360 OA
ENDBRANCH  13  16
ENDBRANCH   7  13
ENDBRANCH   1  12
BRANCH   4  17
ATOM     17  C   LIG    1        7.564   3.435  -1.002  0.00  0.00    +0.230 C 
ATOM     18  C   LIG    1        7.446   4.469  -2.124  0.00  0.00    +0.080 C 
BRANCH  17  19
ATOM     19  C   LIG    1        8.692   2.485  -1.312  0.00  0.00    +0.100 A 
ATOM     20  N   LIG    1        8.627   1.549  -2.182  0.00  0.00    -0.430 NA
ATOM     21  C   LIG    1        9.716   0.776  -2.357  0.00  0.00    +0.080 A 
ATOM     22  C   LIG    1        9.920  -0.305  -3.237  0.00  0.00    +0.080 A 
ATOM     23  C   LIG    1       11.111  -0.966  -3.253  0.00  0.00    +0.030 A 
ATOM     24  C   LIG    1       12.144  -0.589  -2.407  0.00  0.00    +0.040 A 
ATOM     25  C   LIG    1       11.973   0.465  -1.538  0.00  0.00    +0.060 A 
ATOM     26  C   LIG    1       10.762   1.153  -1.507  0.00  0.00    -0.180 A 
ATOM     27  S   LIG    1       10.213   2.518  -0.540  0.00  0.00    +0.090 S 
ENDBRANCH  17  19
ENDBRANCH   4  17
TORSDOF 5
