REMARK  Name = ZINCtV00000RliLV.0
REMARK                            x       y       z     vdW  Elec       q    Type
REMARK                         _______ _______ _______ _____ _____    ______ ____
ROOT
ATOM      1  N   LIG    1        1.058  -0.674  -3.058  0.00  0.00    -0.650 N 
ATOM      2  H   LIG    1        0.790  -1.579  -3.284  0.00  0.00    +0.410 HD
ATOM      3  C   LIG    1        0.153   0.192  -2.561  0.00  0.00    +0.710 C 
ATOM      4  N   LIG    1       -1.124  -0.198  -2.378  0.00  0.00    -0.680 N 
ATOM      5  H   LIG    1       -1.407  -1.081  -2.662  0.00  0.00    +0.410 HD
ATOM      6  O   LIG    1        0.489   1.326  -2.276  0.00  0.00    -0.570 OA
ENDROOT
BRANCH   1  12
ATOM      7  C   LIG    1        3.317  -2.496  -4.189  0.00  0.00    +0.160 C 
ATOM      8  C   LIG    1        3.433  -1.058  -3.754  0.00  0.00    +0.060 A 
ATOM      9  N   LIG    1        4.524  -0.335  -3.784  0.00  0.00    -0.280 NA
ATOM     10  N   LIG    1        4.219   0.943  -3.299  0.00  0.00    -0.360 N 
ATOM     11  C   LIG    1        2.898   0.964  -2.980  0.00  0.00    +0.250 A 
ATOM     12  C   LIG    1        2.392  -0.267  -3.248  0.00  0.00    +0.000 A 
BRANCH  10  13
ATOM     13  C   LIG    1        5.156   2.061  -3.164  0.00  0.00    +0.260 C 
ATOM     14  C   LIG    1        4.623   3.211  -2.294  0.00  0.00    +0.030 C 
ATOM     15  C   LIG    1        5.259   4.171  -3.315  0.00  0.00    +0.030 C 
ATOM     16  C   LIG    1        5.119   3.041  -4.349  0.00  0.00    +0.020 C 
ENDBRANCH  10  13
ENDBRANCH   1  12
BRANCH   4  17
ATOM     17  C   LIG    1       -2.046   0.675  -1.784  0.00  0.00    +0.110 A 
ATOM     18  C   LIG    1       -3.039   0.175  -0.952  0.00  0.00    +0.030 A 
ATOM     19  C   LIG    1       -3.943   1.036  -0.363  0.00  0.00    -0.040 A 
ATOM     20  C   LIG    1       -3.867   2.400  -0.611  0.00  0.00    +0.200 A 
ATOM     21  C   LIG    1       -2.877   2.899  -1.447  0.00  0.00    -0.040 A 
ATOM     22  C   LIG    1       -1.969   2.039  -2.032  0.00  0.00    +0.070 A 
BRANCH  20  23
ATOM     23  N   LIG    1       -4.788   3.272  -0.018  0.00  0.00    -0.600 N 
ATOM     24  C   LIG    1       -4.635   4.720  -0.180  0.00  0.00    +0.290 C 
BRANCH  23  25
ATOM     25  C   LIG    1       -5.853   2.761   0.727  0.00  0.00    +0.170 A 
ATOM     26  C   LIG    1       -7.059   2.464   0.105  0.00  0.00    +0.020 A 
ATOM     27  C   LIG    1       -8.109   1.954   0.844  0.00  0.00    +0.060 A 
ATOM     28  C   LIG    1       -7.963   1.749   2.205  0.00  0.00    -0.090 A 
ATOM     29  C   LIG    1       -6.765   2.049   2.828  0.00  0.00    +0.060 A 
ATOM     30 BR   LIG    1       -9.405   1.058   3.214  0.00  0.00    -0.050 Br
ATOM     31  C   LIG    1       -5.710   2.554   2.094  0.00  0.00    +0.020 A 
ENDBRANCH  23  25
ENDBRANCH  20  23
ENDBRANCH   4  17
TORSDOF 5
