REMARK  Name = ZINCvU0000000Iy1.0
REMARK                            x       y       z     vdW  Elec       q    Type
REMARK                         _______ _______ _______ _____ _____    ______ ____
ROOT
ATOM      1  C   LIG    1        1.317   2.190  -6.125  0.00  0.00    +0.200 C 
ENDROOT
BRANCH   1   4
ATOM      2  C   LIG    1        1.135   2.057  -2.491  0.00  0.00    +0.110 A 
ATOM      3  N   LIG    1        1.608   2.318  -3.676  0.00  0.00    -0.450 NA
ATOM      4  C   LIG    1        0.880   1.944  -4.704  0.00  0.00    +0.070 A 
ATOM      5  C   LIG    1       -0.272   1.333  -4.412  0.00  0.00    -0.070 A 
ATOM      6  S   LIG    1       -0.413   1.233  -2.658  0.00  0.00    +0.170 S 
BRANCH   2  11
ATOM      7  C   LIG    1        1.812   2.382   1.200  0.00  0.00    +0.120 A 
ATOM      8  C   LIG    1        3.040   3.024   1.188  0.00  0.00    -0.040 A 
ATOM      9  C   LIG    1        3.643   3.354  -0.014  0.00  0.00    +0.060 A 
ATOM     10  C   LIG    1        3.030   3.043  -1.209  0.00  0.00    +0.050 A 
ATOM     11  C   LIG    1        1.795   2.392  -1.212  0.00  0.00    -0.010 A 
ATOM     12  C   LIG    1        1.185   2.058   0.002  0.00  0.00    +0.080 A 
BRANCH   7  14
ATOM     13  C   LIG    1        1.922   2.429   3.575  0.00  0.00    +0.240 C 
ATOM     14  O   LIG    1        1.221   2.066   2.383  0.00  0.00    -0.300 OA
ENDBRANCH   7  14
BRANCH  12  15
ATOM     15  O   LIG    1       -0.017   1.425   0.010  0.00  0.00    -0.320 OA
ATOM     16  C   LIG    1        0.002  -0.004   0.002  0.00  0.00    +0.240 C 
ENDBRANCH  12  15
ENDBRANCH   2  11
ENDBRANCH   1   4
BRANCH   1  17
ATOM     17  S   LIG    1        2.288   0.778  -6.710  0.00  0.00    +0.070 S 
BRANCH  17  18
ATOM     18  C   LIG    1        2.658   1.318  -8.346  0.00  0.00    +0.210 A 
ATOM     19  N   LIG    1        2.279   2.450  -8.901  0.00  0.00    -0.330 NA
ATOM     20  N   LIG    1        2.722   2.531 -10.104  0.00  0.00    -0.020 NA
ATOM     21  N   LIG    1        3.396   1.475 -10.407  0.00  0.00    -0.070 NA
ATOM     22  N   LIG    1        3.381   0.642  -9.275  0.00  0.00    -0.310 N 
BRANCH  22  23
ATOM     23  C   LIG    1        3.984  -0.616  -9.134  0.00  0.00    +0.110 A 
ATOM     24  C   LIG    1        4.527  -0.995  -7.914  0.00  0.00    +0.030 A 
ATOM     25  C   LIG    1        5.115  -2.237  -7.778  0.00  0.00    +0.050 A 
ATOM     26  C   LIG    1        5.173  -3.098  -8.858  0.00  0.00    -0.060 A 
ATOM     27  C   LIG    1        4.638  -2.722 -10.076  0.00  0.00    +0.040 A 
ATOM     28  C   LIG    1        4.043  -1.483 -10.217  0.00  0.00    +0.050 A 
BRANCH  26  29
ATOM     29  C   LIG    1        5.821  -4.451  -8.707  0.00  0.00    +0.020 C 
ATOM     30  C   LIG    1        5.084  -5.252  -7.632  0.00  0.00    +0.030 C 
ATOM     31  C   LIG    1        7.284  -4.272  -8.296  0.00  0.00    +0.030 C 
ENDBRANCH  26  29
ENDBRANCH  22  23
ENDBRANCH  17  18
ENDBRANCH   1  17
TORSDOF 8
