REMARK  Name = ZINCkj000005jUSJ.0
REMARK                            x       y       z     vdW  Elec       q    Type
REMARK                         _______ _______ _______ _____ _____    ______ ____
ROOT
ATOM      1  C   LIG    1       -2.902   3.183  -2.350  0.00  0.00    +0.040 C 
ENDROOT
BRANCH   1   2
ATOM      2  C   LIG    1       -1.421   3.553  -2.446  0.00  0.00    +0.270 C 
BRANCH   2   6
ATOM      3  C   LIG    1       -0.731   1.580   1.265  0.00  0.00    +0.040 C 
ATOM      4  C   LIG    1       -0.013   1.086   0.008  0.00  0.00    +0.220 C 
ATOM      5  C   LIG    1       -0.748   1.594  -1.235  0.00  0.00    +0.240 C 
ATOM      6  N   LIG    1       -0.716   3.063  -1.254  0.00  0.00    -0.390 N 
ATOM      7  C   LIG    1        0.680   3.521  -1.288  0.00  0.00    +0.240 C 
ATOM      8  C   LIG    1        1.413   3.009  -0.045  0.00  0.00    +0.160 C 
ATOM      9  C   LIG    1        2.881   3.433  -0.106  0.00  0.00    +0.110 C 
ATOM     10  H   LIG    1       -1.167   3.420  -0.425  0.00  0.00    +0.420 HD
ATOM     11  O   LIG    1        1.329   1.582  -0.002  0.00  0.00    -0.350 OA
ENDBRANCH   2   6
ENDBRANCH   1   2
BRANCH   1  12
ATOM     12  C   LIG    1       -3.637   3.693  -3.591  0.00  0.00    +0.280 C 
BRANCH  12  13
ATOM     13  N   LIG    1       -5.056   3.339  -3.499  0.00  0.00    -0.730 N 
ATOM     14  H   LIG    1       -5.385   2.852  -2.727  0.00  0.00    +0.400 HD
ATOM     15  C   LIG    1       -5.903   3.689  -4.487  0.00  0.00    +0.570 C 
ATOM     16  O   LIG    1       -5.490   4.298  -5.454  0.00  0.00    -0.520 OA
BRANCH  15  17
ATOM     17  C   LIG    1       -7.337   3.330  -4.394  0.00  0.00    -0.100 A 
ATOM     18  C   LIG    1       -7.832   2.624  -3.293  0.00  0.00    -0.010 A 
ATOM     19  C   LIG    1       -9.178   2.315  -3.245  0.00  0.00    +0.270 A 
ATOM     20  N   LIG    1       -9.988   2.668  -4.223  0.00  0.00    -0.460 NA
ATOM     21  C   LIG    1       -9.562   3.329  -5.281  0.00  0.00    +0.280 A 
ATOM     22  C   LIG    1       -8.233   3.683  -5.408  0.00  0.00    +0.040 A 
ENDBRANCH  15  17
ENDBRANCH  12  13
ENDBRANCH   1  12
TORSDOF 5
