REMARK  Name = ZINCqH0000007vlV.0
REMARK                            x       y       z     vdW  Elec       q    Type
REMARK                         _______ _______ _______ _____ _____    ______ ____
ROOT
ATOM      1  C   LIG    1        1.524   5.536   0.869  0.00  0.00    +0.510 C 
ATOM      2  N   LIG    1        2.412   6.419   1.367  0.00  0.00    -0.730 N 
ATOM      3  H   LIG    1        2.806   7.090   0.787  0.00  0.00    +0.400 HD
ATOM      4  O   LIG    1        1.032   4.697   1.594  0.00  0.00    -0.530 OA
ENDROOT
BRANCH   1   5
ATOM      5  C   LIG    1        1.143   5.591  -0.588  0.00  0.00    +0.140 C 
BRANCH   5  13
ATOM      6  C   LIG    1       -3.535   5.331  -0.205  0.00  0.00    +0.100 A 
ATOM      7  C   LIG    1       -4.038   4.099  -0.613  0.00  0.00    -0.050 A 
ATOM      8  C   LIG    1       -3.192   3.111  -1.065  0.00  0.00    +0.030 A 
ATOM      9  C   LIG    1       -1.821   3.339  -1.118  0.00  0.00    +0.070 A 
ATOM     10  N   LIG    1       -0.748   2.569  -1.512  0.00  0.00    -0.590 N 
ATOM     11  H   LIG    1       -0.806   1.660  -1.845  0.00  0.00    +0.420 HD
ATOM     12  C   LIG    1        0.412   3.281  -1.370  0.00  0.00    +0.250 A 
ATOM     13  C   LIG    1        0.142   4.504  -0.886  0.00  0.00    -0.160 A 
ATOM     14  C   LIG    1       -1.309   4.582  -0.703  0.00  0.00    -0.050 A 
ATOM     15  C   LIG    1       -2.176   5.575  -0.241  0.00  0.00    +0.020 A 
BRANCH   6  17
ATOM     16  C   LIG    1       -5.776   5.976   0.260  0.00  0.00    +0.230 C 
ATOM     17  O   LIG    1       -4.384   6.296   0.240  0.00  0.00    -0.320 OA
ENDBRANCH   6  17
ENDBRANCH   5  13
ENDBRANCH   1   5
BRANCH   2  18
ATOM     18  C   LIG    1        2.784   6.366   2.783  0.00  0.00    +0.310 C 
BRANCH  18  19
ATOM     19  C   LIG    1        3.911   7.365   3.052  0.00  0.00    -0.110 C 
ATOM     20  C   LIG    1        3.947   8.035   4.427  0.00  0.00    +0.060 C 
ATOM     21  C   LIG    1        3.529   8.840   3.194  0.00  0.00    +0.030 C 
BRANCH  19  22
ATOM     22  C   LIG    1        5.231   7.048   2.398  0.00  0.00    -0.020 A 
ATOM     23  C   LIG    1        5.703   5.749   2.389  0.00  0.00    +0.010 A 
ATOM     24  C   LIG    1        6.913   5.457   1.789  0.00  0.00    +0.040 A 
ATOM     25  C   LIG    1        7.652   6.463   1.196  0.00  0.00    -0.020 A 
ATOM     26  C   LIG    1        7.180   7.764   1.204  0.00  0.00    +0.100 A 
ATOM     27  F   LIG    1        7.902   8.749   0.625  0.00  0.00    -0.140 F 
ATOM     28  C   LIG    1        5.965   8.055   1.801  0.00  0.00    -0.010 A 
ENDBRANCH  19  22
ENDBRANCH  18  19
ENDBRANCH   2  18
TORSDOF 6
