REMARK  Name = ZINCvU0000000AiC.0
REMARK                            x       y       z     vdW  Elec       q    Type
REMARK                         _______ _______ _______ _____ _____    ______ ____
ROOT
ATOM      1  C   LIG    1       -3.743   1.385   0.709  0.00  0.00    -0.220 A 
ATOM      2  C   LIG    1       -4.665   0.393   0.429  0.00  0.00    +0.290 A 
ATOM      3  N   LIG    1       -4.061  -0.522  -0.349  0.00  0.00    -0.300 N 
ATOM      4  N   LIG    1       -2.740  -0.136  -0.591  0.00  0.00    -0.260 NA
ATOM      5  C   LIG    1       -2.505   1.004   0.019  0.00  0.00    +0.140 A 
ENDROOT
BRANCH   3   6
ATOM      6  C   LIG    1       -4.663  -1.687  -0.841  0.00  0.00    +0.140 A 
ATOM      7  C   LIG    1       -5.986  -1.972  -0.528  0.00  0.00    -0.010 A 
ATOM      8  C   LIG    1       -6.579  -3.119  -1.019  0.00  0.00    +0.050 A 
ATOM      9  C   LIG    1       -5.853  -3.989  -1.813  0.00  0.00    +0.010 A 
ATOM     10  C   LIG    1       -4.534  -3.711  -2.122  0.00  0.00    +0.050 A 
ATOM     11  C   LIG    1       -3.937  -2.563  -1.638  0.00  0.00    +0.030 A 
ENDBRANCH   3   6
BRANCH   5  12
ATOM     12  C   LIG    1       -1.229   1.758   0.017  0.00  0.00    -0.020 A 
ATOM     13  C   LIG    1       -1.240   3.152   0.030  0.00  0.00    +0.110 A 
ATOM     14  C   LIG    1       -0.048   3.849   0.022  0.00  0.00    +0.050 A 
ATOM     15  C   LIG    1        1.155   3.167   0.008  0.00  0.00    +0.120 A 
ATOM     16  C   LIG    1        1.172   1.783   0.000  0.00  0.00    -0.040 A 
ATOM     17  C   LIG    1       -0.013   1.076   0.008  0.00  0.00    +0.130 A 
BRANCH  16  18
ATOM     18  N   LIG    1        2.464   1.061  -0.016  0.00  0.00    +0.030 N 
ATOM     19  O   LIG    1        3.510   1.684  -0.022  0.00  0.00    -0.150 OA
ATOM     20  O   LIG    1        2.480  -0.157  -0.023  0.00  0.00    -0.150 OA
ENDBRANCH  16  18
ENDBRANCH   5  12
BRANCH   1  22
ATOM     21  C   LIG    1       -5.167   2.798   2.104  0.00  0.00    -0.130 C 
ATOM     22  C   LIG    1       -3.961   2.582   1.528  0.00  0.00    +0.190 C 
BRANCH  21  24
ATOM     23  O   LIG    1       -4.473   4.753   3.057  0.00  0.00    -0.460 OA
ATOM     24  C   LIG    1       -5.377   3.954   2.895  0.00  0.00    +0.430 C 
BRANCH  24  25
ATOM     25  C   LIG    1       -6.694   4.190   3.524  0.00  0.00    -0.170 A 
ATOM     26  C   LIG    1       -7.735   3.277   3.334  0.00  0.00    +0.090 A 
ATOM     27  C   LIG    1       -8.959   3.500   3.927  0.00  0.00    -0.030 A 
ATOM     28  C   LIG    1       -9.162   4.632   4.701  0.00  0.00    +0.130 A 
ATOM     29  C   LIG    1       -8.134   5.544   4.888  0.00  0.00    -0.030 A 
ATOM     30  F   LIG    1      -10.366   4.848   5.276  0.00  0.00    -0.130 F 
ATOM     31  C   LIG    1       -6.904   5.329   4.304  0.00  0.00    +0.120 A 
ENDBRANCH  24  25
ENDBRANCH  21  24
ENDBRANCH   1  22
TORSDOF 6
