REMARK  Name = ZINCrD000000BXgm.0
REMARK                            x       y       z     vdW  Elec       q    Type
REMARK                         _______ _______ _______ _____ _____    ______ ____
ROOT
ATOM      1  O   LIG    1        7.747   4.316  -1.811  0.00  0.00    -0.570 OA
ATOM      2  C   LIG    1        7.554   3.250  -1.260  0.00  0.00    +0.710 C 
ATOM      3  N   LIG    1        6.307   2.896  -0.893  0.00  0.00    -0.740 N 
ATOM      4  H   LIG    1        6.154   2.045  -0.453  0.00  0.00    +0.400 HD
ATOM      5  N   LIG    1        8.589   2.422  -1.014  0.00  0.00    -0.690 N 
ATOM      6  H   LIG    1        8.449   1.607  -0.506  0.00  0.00    +0.410 HD
ENDROOT
BRANCH   3   7
ATOM      7  C   LIG    1        5.182   3.796  -1.160  0.00  0.00    +0.260 C 
ATOM      8  C   LIG    1        5.058   4.812  -0.021  0.00  0.00    -0.000 C 
ATOM      9  C   LIG    1        4.747   4.072   1.282  0.00  0.00    +0.210 C 
ATOM     10  O   LIG    1        3.547   3.313   1.123  0.00  0.00    -0.370 OA
ATOM     11  C   LIG    1        3.620   2.314   0.103  0.00  0.00    +0.200 C 
ATOM     12  C   LIG    1        3.886   2.984  -1.248  0.00  0.00    +0.030 C 
BRANCH  11  13
ATOM     13  C   LIG    1        2.316   1.561   0.043  0.00  0.00    -0.140 A 
ATOM     14  C   LIG    1        2.306   0.189  -0.152  0.00  0.00    +0.060 A 
ATOM     15  C   LIG    1        1.082  -0.462  -0.201  0.00  0.00    -0.030 A 
ATOM     16  C   LIG    1       -0.078   0.274  -0.056  0.00  0.00    +0.260 A 
ATOM     17  N   LIG    1       -0.031   1.579   0.128  0.00  0.00    -0.480 NA
ATOM     18  C   LIG    1        1.114   2.231   0.180  0.00  0.00    +0.290 A 
ENDBRANCH  11  13
ENDBRANCH   3   7
BRANCH   5  19
ATOM     19  C   LIG    1        9.867   2.737  -1.493  0.00  0.00    +0.160 A 
ATOM     20  C   LIG    1       10.010   3.408  -2.700  0.00  0.00    +0.060 A 
ATOM     21  C   LIG    1       11.270   3.723  -3.170  0.00  0.00    +0.010 A 
ATOM     22  C   LIG    1       12.394   3.360  -2.439  0.00  0.00    +0.140 A 
ATOM     23  C   LIG    1       12.251   2.685  -1.234  0.00  0.00    +0.040 A 
ATOM     24  C   LIG    1       10.991   2.375  -0.762  0.00  0.00    +0.020 A 
BRANCH  22  25
ATOM     25  N   LIG    1       13.674   3.676  -2.919  0.00  0.00    -0.320 N 
ATOM     26  C   LIG    1       13.954   4.326  -4.070  0.00  0.00    +0.230 A 
ATOM     27  C   LIG    1       15.300   4.431  -4.167  0.00  0.00    -0.110 A 
ATOM     28  C   LIG    1       15.861   3.826  -3.038  0.00  0.00    +0.250 A 
ATOM     29  N   LIG    1       14.887   3.378  -2.286  0.00  0.00    -0.290 NA
ENDBRANCH  22  25
ENDBRANCH   5  19
TORSDOF 4
