REMARK  Name = ZINCkj000005gTSX.0
REMARK                            x       y       z     vdW  Elec       q    Type
REMARK                         _______ _______ _______ _____ _____    ______ ____
ROOT
ATOM      1  C   LIG    1        1.035   3.453  -0.440  0.00  0.00    +0.580 C 
ATOM      2  N   LIG    1       -0.163   4.060  -0.554  0.00  0.00    -0.730 N 
ATOM      3  H   LIG    1       -0.979   3.540  -0.488  0.00  0.00    +0.410 HD
ATOM      4  O   LIG    1        2.057   4.105  -0.523  0.00  0.00    -0.510 OA
ENDROOT
BRANCH   2   5
ATOM      5  C   LIG    1       -0.233   5.507  -0.777  0.00  0.00    +0.250 C 
ATOM      6  C   LIG    1       -0.160   6.236   0.567  0.00  0.00    +0.050 C 
ATOM      7  C   LIG    1       -0.315   7.741   0.334  0.00  0.00    +0.260 C 
ATOM      8  N   LIG    1       -1.609   8.011  -0.304  0.00  0.00    -0.350 N 
ATOM      9  C   LIG    1       -1.656   7.374  -1.625  0.00  0.00    +0.270 C 
ATOM     10  H   LIG    1       -2.350   7.643   0.273  0.00  0.00    +0.420 HD
ATOM     11  C   LIG    1       -1.555   5.855  -1.467  0.00  0.00    +0.060 C 
BRANCH   8  12
ATOM     12  C   LIG    1       -1.785   9.462  -0.456  0.00  0.00    +0.100 C 
ATOM     13  C   LIG    1       -0.580  10.355  -0.153  0.00  0.00    +0.090 C 
ATOM     14  C   LIG    1       -1.764  10.313   0.816  0.00  0.00    +0.100 C 
ENDBRANCH   8  12
ENDBRANCH   2   5
BRANCH   1  20
ATOM     15  C   LIG    1        2.330   1.361   0.026  0.00  0.00    +0.250 A 
ATOM     16  N   LIG    1        2.346   0.054   0.222  0.00  0.00    -0.520 NA
ATOM     17  C   LIG    1        1.232  -0.651   0.194  0.00  0.00    +0.540 A 
ATOM     18  N   LIG    1        0.057  -0.095  -0.030  0.00  0.00    -0.520 NA
ATOM     19  C   LIG    1       -0.052   1.206  -0.236  0.00  0.00    +0.360 A 
ATOM     20  C   LIG    1        1.105   1.994  -0.215  0.00  0.00    -0.260 A 
BRANCH  15  22
ATOM     21  C   LIG    1        4.134   2.342  -1.364  0.00  0.00    +0.050 C 
ATOM     22  C   LIG    1        3.609   2.157   0.061  0.00  0.00    +0.110 C 
ENDBRANCH  15  22
ENDBRANCH   1  20
TORSDOF 4
