REMARK  Name = ZINCrD000000DauD.0
REMARK                            x       y       z     vdW  Elec       q    Type
REMARK                         _______ _______ _______ _____ _____    ______ ____
ROOT
ATOM      1  N   LIG    1       -1.378  -1.222   1.449  0.00  0.00    -0.540 NA
ATOM      2  C   LIG    1       -0.498  -2.224   2.063  0.00  0.00    +0.190 C 
ATOM      3  C   LIG    1       -0.862  -2.387   3.541  0.00  0.00    +0.030 C 
ATOM      4  C   LIG    1       -2.325  -2.826   3.656  0.00  0.00    +0.150 C 
ATOM      5  C   LIG    1       -3.216  -1.790   2.966  0.00  0.00    +0.070 C 
ATOM      6  C   LIG    1       -2.784  -1.644   1.505  0.00  0.00    +0.200 C 
ENDROOT
BRANCH   1   7
ATOM      7  C   LIG    1       -0.969  -0.937   0.068  0.00  0.00    +0.350 C 
BRANCH   7  13
ATOM      8  C   LIG    1        4.692   1.039   0.041  0.00  0.00    -0.040 A 
ATOM      9  C   LIG    1        4.092   2.287   0.118  0.00  0.00    +0.130 A 
ATOM     10  C   LIG    1        2.718   2.402   0.155  0.00  0.00    +0.080 A 
ATOM     11  C   LIG    1        1.929   1.264   0.115  0.00  0.00    +0.050 A 
ATOM     12  O   LIG    1        0.595   1.046   0.134  0.00  0.00    -0.190 OA
ATOM     13  C   LIG    1        0.387  -0.278   0.071  0.00  0.00    +0.280 A 
ATOM     14  N   LIG    1        1.520  -0.911   0.013  0.00  0.00    -0.460 NA
ATOM     15  C   LIG    1        2.531  -0.001   0.037  0.00  0.00    +0.020 A 
ATOM     16  C   LIG    1        3.923  -0.103   0.000  0.00  0.00    +0.180 A 
BRANCH   8  18
ATOM     17  O   LIG    1        6.698  -0.161  -0.065  0.00  0.00    -0.150 OA
ATOM     18  N   LIG    1        6.168   0.933   0.003  0.00  0.00    +0.030 N 
ATOM     19  O   LIG    1        6.852   1.940   0.039  0.00  0.00    -0.150 OA
ENDBRANCH   8  18
ENDBRANCH   7  13
ENDBRANCH   1   7
BRANCH   4  20
ATOM     20  O   LIG    1       -2.687  -2.926   5.035  0.00  0.00    -0.290 OA
BRANCH  20  21
ATOM     21  C   LIG    1       -2.406  -4.098   5.663  0.00  0.00    +0.070 A 
ATOM     22  C   LIG    1       -1.695  -5.098   5.007  0.00  0.00    +0.010 A 
ATOM     23  C   LIG    1       -1.432  -6.275   5.688  0.00  0.00    +0.000 A 
ATOM     24  C   LIG    1       -1.882  -6.417   6.990  0.00  0.00    +0.270 A 
ATOM     25  N   LIG    1       -2.555  -5.448   7.583  0.00  0.00    -0.470 NA
ATOM     26  F   LIG    1       -1.630  -7.562   7.661  0.00  0.00    -0.110 F 
ATOM     27  C   LIG    1       -2.820  -4.311   6.969  0.00  0.00    +0.290 A 
ENDBRANCH  20  21
ENDBRANCH   4  20
TORSDOF 5
