REMARK  Name = ZINCrD000003DuIk.0
REMARK                            x       y       z     vdW  Elec       q    Type
REMARK                         _______ _______ _______ _____ _____    ______ ____
ROOT
ATOM      1  C   LIG    1        4.559   5.085  -2.888  0.00  0.00    +0.030 C 
ATOM      2  C   LIG    1        5.305   4.673  -1.618  0.00  0.00    -0.020 C 
ATOM      3  C   LIG    1        6.615   5.459  -1.519  0.00  0.00    +0.040 C 
ATOM      4  C   LIG    1        7.376   5.019  -0.265  0.00  0.00    +0.270 C 
ATOM      5  N   LIG    1        6.493   5.168   0.901  0.00  0.00    -0.610 N 
ATOM      6  C   LIG    1        5.171   4.528   0.872  0.00  0.00    +0.270 C 
ATOM      7  C   LIG    1        6.889   5.879   1.975  0.00  0.00    +0.590 C 
ATOM      8  O   LIG    1        6.109   6.093   2.884  0.00  0.00    -0.520 OA
ATOM      9  C   LIG    1        4.435   4.973  -0.395  0.00  0.00    +0.240 C 
ENDROOT
BRANCH   7  10
ATOM     10  C   LIG    1        8.259   6.394   2.049  0.00  0.00    -0.270 A 
ATOM     11  C   LIG    1        8.642   7.533   2.689  0.00  0.00    +0.100 A 
ATOM     12  C   LIG    1        9.996   7.797   2.611  0.00  0.00    -0.120 A 
ATOM     13  C   LIG    1       10.696   6.874   1.912  0.00  0.00    -0.200 A 
ATOM     14  C   LIG    1       12.194   6.932   1.679  0.00  0.00    +0.110 C 
ATOM     15  C   LIG    1       12.685   8.350   1.981  0.00  0.00    +0.020 C 
ATOM     16  C   LIG    1       12.152   8.781   3.351  0.00  0.00    +0.020 C 
ATOM     17  C   LIG    1       10.644   9.017   3.253  0.00  0.00    +0.100 C 
ATOM     18  S   LIG    1        9.673   5.636   1.333  0.00  0.00    +0.210 S 
ENDBRANCH   7  10
BRANCH   9  19
ATOM     19  N   LIG    1        3.168   4.245  -0.506  0.00  0.00    -0.700 N 
ATOM     20  H   LIG    1        3.119   3.436  -1.038  0.00  0.00    +0.410 HD
ATOM     21  C   LIG    1        2.072   4.700   0.131  0.00  0.00    +0.570 C 
ATOM     22  O   LIG    1        2.133   5.714   0.798  0.00  0.00    -0.520 OA
BRANCH  21  23
ATOM     23  C   LIG    1        0.791   3.964   0.019  0.00  0.00    +0.070 A 
ATOM     24  C   LIG    1       -0.339   4.440   0.680  0.00  0.00    +0.040 A 
ATOM     25  C   LIG    1       -1.530   3.740   0.566  0.00  0.00    +0.060 A 
ATOM     26  C   LIG    1       -1.551   2.592  -0.211  0.00  0.00    -0.010 A 
ATOM     27  C   LIG    1       -0.387   2.174  -0.836  0.00  0.00    +0.260 A 
ATOM     28  N   LIG    1        0.730   2.857  -0.711  0.00  0.00    -0.460 NA
ENDBRANCH  21  23
ENDBRANCH   9  19
TORSDOF 3
