REMARK  Name = ZINCrH000004mcGX.0
REMARK                            x       y       z     vdW  Elec       q    Type
REMARK                         _______ _______ _______ _____ _____    ______ ____
ROOT
ATOM      1  C   LIG    1       -3.583   1.915  -0.336  0.00  0.00    +0.130 A 
ATOM      2  C   LIG    1       -4.797   1.255  -0.425  0.00  0.00    -0.080 A 
ATOM      3  C   LIG    1       -4.853  -0.120  -0.242  0.00  0.00    +0.190 A 
ATOM      4  C   LIG    1       -3.693  -0.833   0.031  0.00  0.00    +0.010 A 
ATOM      5  C   LIG    1       -2.480  -0.176   0.115  0.00  0.00    +0.100 A 
ATOM      6  C   LIG    1       -2.421   1.198  -0.062  0.00  0.00    +0.110 A 
ENDROOT
BRANCH   3   7
ATOM      7  N   LIG    1       -6.081  -0.789  -0.332  0.00  0.00    -0.690 N 
ATOM      8  H   LIG    1       -6.894  -0.351  -0.036  0.00  0.00    +0.410 HD
ATOM      9  C   LIG    1       -6.131  -2.041  -0.828  0.00  0.00    +0.700 C 
ATOM     10  N   LIG    1       -7.294  -2.723  -0.820  0.00  0.00    -0.740 N 
ATOM     11  H   LIG    1       -8.094  -2.313  -0.456  0.00  0.00    +0.400 HD
ATOM     12  O   LIG    1       -5.128  -2.555  -1.284  0.00  0.00    -0.560 OA
BRANCH  10  13
ATOM     13  C   LIG    1       -7.349  -4.084  -1.359  0.00  0.00    +0.290 C 
BRANCH  13  14
ATOM     14  C   LIG    1       -8.773  -4.627  -1.230  0.00  0.00    +0.030 C 
BRANCH  14  15
ATOM     15  C   LIG    1       -8.831  -6.048  -1.794  0.00  0.00    +0.160 C 
ATOM     16  C   LIG    1      -10.253  -6.638  -1.622  0.00  0.00    +0.010 C 
ATOM     17  C   LIG    1      -10.273  -7.695  -2.759  0.00  0.00    +0.000 C 
ATOM     18  C   LIG    1       -9.418  -7.018  -3.852  0.00  0.00    +0.190 C 
ATOM     19  O   LIG    1       -8.600  -6.032  -3.211  0.00  0.00    -0.380 OA
ENDBRANCH  14  15
ENDBRANCH  13  14
ENDBRANCH  10  13
ENDBRANCH   3   7
BRANCH   6  20
ATOM     20  N   LIG    1       -1.189   1.865   0.029  0.00  0.00    -0.640 N 
ATOM     21  H   LIG    1       -1.153   2.772   0.372  0.00  0.00    +0.420 HD
ATOM     22  C   LIG    1       -0.057   1.246  -0.359  0.00  0.00    +0.650 C 
ATOM     23  O   LIG    1       -0.090   0.083  -0.710  0.00  0.00    -0.550 OA
BRANCH  22  24
ATOM     24  O   LIG    1        1.110   1.918  -0.364  0.00  0.00    -0.360 OA
BRANCH  24  25
ATOM     25  C   LIG    1        2.288   1.190  -0.801  0.00  0.00    +0.140 C 
ATOM     26  C   LIG    1        2.511  -0.015   0.116  0.00  0.00    +0.040 C 
ATOM     27  C   LIG    1        3.508   2.110  -0.739  0.00  0.00    +0.080 C 
ATOM     28  C   LIG    1        2.085   0.706  -2.238  0.00  0.00    +0.030 C 
ENDBRANCH  24  25
ENDBRANCH  22  24
ENDBRANCH   6  20
BRANCH   1  30
ATOM     29  C   LIG    1       -4.758   3.932  -0.792  0.00  0.00    +0.250 C 
ATOM     30  O   LIG    1       -3.526   3.262  -0.514  0.00  0.00    -0.320 OA
ENDBRANCH   1  30
TORSDOF 8
