REMARK  Name = ZINCvU00000009TF.0
REMARK                            x       y       z     vdW  Elec       q    Type
REMARK                         _______ _______ _______ _____ _____    ______ ____
ROOT
ATOM      1  O   LIG    1        1.328   2.061  -0.078  0.00  0.00    -0.510 OA
ATOM      2  C   LIG    1        1.675   3.224   0.003  0.00  0.00    +0.600 C 
ATOM      3  N   LIG    1        0.749   4.196   0.120  0.00  0.00    -0.600 N 
ATOM      4  C   LIG    1       -0.677   3.862   0.237  0.00  0.00    +0.300 C 
ATOM      5  C   LIG    1       -1.238   4.553   1.489  0.00  0.00    +0.040 C 
ATOM      6  C   LIG    1       -0.949   6.054   1.411  0.00  0.00    +0.040 C 
ATOM      7  C   LIG    1        0.564   6.282   1.373  0.00  0.00    +0.250 C 
ATOM      8  C   LIG    1        1.146   5.611   0.125  0.00  0.00    +0.280 C 
ENDROOT
BRANCH   2   9
ATOM      9  C   LIG    1        3.104   3.568  -0.025  0.00  0.00    -0.220 A 
ATOM     10  C   LIG    1        3.707   4.511  -0.800  0.00  0.00    +0.280 A 
ATOM     11  O   LIG    1        5.021   4.535  -0.546  0.00  0.00    -0.170 OA
ATOM     12  C   LIG    1        5.357   3.628   0.394  0.00  0.00    +0.070 A 
ATOM     13  C   LIG    1        6.563   3.276   0.985  0.00  0.00    +0.060 A 
ATOM     14  C   LIG    1        6.598   2.284   1.942  0.00  0.00    +0.090 A 
ATOM     15  C   LIG    1        5.437   1.629   2.325  0.00  0.00    -0.100 A 
ATOM     16  C   LIG    1        4.229   1.965   1.748  0.00  0.00    +0.110 A 
ATOM     17 BR   LIG    1        5.509   0.272   3.640  0.00  0.00    -0.030 Br
ATOM     18  C   LIG    1        4.183   2.964   0.781  0.00  0.00    -0.090 A 
ENDBRANCH   2   9
BRANCH   7  19
ATOM     19  N   LIG    1        0.840   7.720   1.329  0.00  0.00    -0.280 N 
ATOM     20  C   LIG    1        0.870   8.486   0.214  0.00  0.00    +0.170 A 
ATOM     21  C   LIG    1        1.163   9.751   0.634  0.00  0.00    +0.010 A 
ATOM     22  N   LIG    1        1.294   9.682   1.971  0.00  0.00    -0.240 NA
ATOM     23  N   LIG    1        1.091   8.468   2.345  0.00  0.00    -0.070 NA
BRANCH  21  24
ATOM     24  C   LIG    1        1.308  10.960  -0.215  0.00  0.00    -0.080 A 
ATOM     25  C   LIG    1        1.147  10.869  -1.597  0.00  0.00    +0.140 A 
ATOM     26  C   LIG    1        1.277  12.000  -2.381  0.00  0.00    -0.010 A 
ATOM     27  C   LIG    1        1.578  13.218  -1.799  0.00  0.00    +0.100 A 
ATOM     28  C   LIG    1        1.745  13.314  -0.430  0.00  0.00    -0.010 A 
ATOM     29  F   LIG    1        0.858   9.679  -2.168  0.00  0.00    -0.130 F 
ATOM     30  C   LIG    1        1.611  12.191   0.366  0.00  0.00    +0.160 A 
ATOM     31  F   LIG    1        1.775  12.287   1.704  0.00  0.00    -0.110 F 
ENDBRANCH  21  24
ENDBRANCH   7  19
TORSDOF 3
