REMARK  Name = ZINCpe000000ZDbD.0
REMARK                            x       y       z     vdW  Elec       q    Type
REMARK                         _______ _______ _______ _____ _____    ______ ____
ROOT
ATOM      1  C   LIG    1       -4.814  -0.503   4.567  0.00  0.00    +0.520 C 
ATOM      2  N   LIG    1       -4.293   0.080   3.469  0.00  0.00    -0.610 N 
ATOM      3  C   LIG    1       -5.110   0.964   2.624  0.00  0.00    +0.300 C 
ATOM      4  C   LIG    1       -4.986   0.498   1.169  0.00  0.00    +0.170 C 
ATOM      5  N   LIG    1       -3.565   0.426   0.801  0.00  0.00    -0.530 NA
ATOM      6  C   LIG    1       -2.855  -0.574   1.611  0.00  0.00    +0.170 C 
ATOM      7  C   LIG    1       -2.892  -0.152   3.084  0.00  0.00    +0.280 C 
ATOM      8  O   LIG    1       -5.942  -0.231   4.920  0.00  0.00    -0.520 OA
ENDROOT
BRANCH   1  14
ATOM      9  O   LIG    1       -5.479  -0.314   8.937  0.00  0.00    -0.530 OA
ATOM     10  C   LIG    1       -4.924  -0.773   7.958  0.00  0.00    +0.570 C 
ATOM     11  N   LIG    1       -3.884  -0.125   7.400  0.00  0.00    -0.730 N 
ATOM     12  H   LIG    1       -3.653   0.764   7.711  0.00  0.00    +0.410 HD
ATOM     13  C   LIG    1       -3.099  -0.740   6.336  0.00  0.00    +0.290 C 
ATOM     14  C   LIG    1       -3.995  -1.493   5.355  0.00  0.00    +0.030 C 
ATOM     15  C   LIG    1       -4.917  -2.418   6.105  0.00  0.00    -0.040 A 
ATOM     16  C   LIG    1       -5.303  -3.622   5.557  0.00  0.00    +0.010 A 
ATOM     17  C   LIG    1       -6.162  -4.455   6.253  0.00  0.00    +0.040 A 
ATOM     18  C   LIG    1       -6.638  -4.087   7.499  0.00  0.00    +0.010 A 
ATOM     19  C   LIG    1       -6.254  -2.885   8.062  0.00  0.00    +0.080 A 
ATOM     20  C   LIG    1       -5.384  -2.048   7.368  0.00  0.00    -0.120 A 
ENDBRANCH   1  14
BRANCH   5  21
ATOM     21  C   LIG    1       -3.406   0.150  -0.633  0.00  0.00    +0.290 C 
BRANCH  21  22
ATOM     22  C   LIG    1       -1.961   0.324  -1.021  0.00  0.00    -0.000 A 
ATOM     23  C   LIG    1       -1.036  -0.648  -1.093  0.00  0.00    +0.140 A 
ATOM     24  O   LIG    1        0.118  -0.070  -1.480  0.00  0.00    -0.200 OA
ATOM     25  C   LIG    1       -0.113   1.241  -1.633  0.00  0.00    +0.420 A 
ATOM     26  N   LIG    1       -1.363   1.482  -1.354  0.00  0.00    -0.470 NA
ENDBRANCH  21  22
ENDBRANCH   5  21
TORSDOF 3
