REMARK  Name = ZINCpk00000y6vXu.0
REMARK                            x       y       z     vdW  Elec       q    Type
REMARK                         _______ _______ _______ _____ _____    ______ ____
ROOT
ATOM      1  C   LIG    1        2.411  -0.653  -0.029  0.00  0.00    +0.500 C 
ATOM      2  N   LIG    1        2.208  -1.362   1.099  0.00  0.00    -0.720 N 
ATOM      3  H   LIG    1        1.805  -2.243   1.052  0.00  0.00    +0.400 HD
ATOM      4  O   LIG    1        2.998   0.408   0.020  0.00  0.00    -0.520 OA
ENDROOT
BRANCH   1  11
ATOM      5  C   LIG    1        1.971  -4.204  -5.021  0.00  0.00    +0.100 C 
ATOM      6  C   LIG    1        2.430  -3.812  -3.641  0.00  0.00    +0.520 C 
ATOM      7  N   LIG    1        2.513  -2.510  -3.303  0.00  0.00    -0.610 N 
ATOM      8  C   LIG    1        2.158  -1.461  -4.269  0.00  0.00    +0.260 C 
ATOM      9  C   LIG    1        1.119  -0.534  -3.632  0.00  0.00    +0.030 C 
ATOM     10  C   LIG    1        1.660  -0.005  -2.302  0.00  0.00    +0.080 C 
ATOM     11  C   LIG    1        1.910  -1.177  -1.349  0.00  0.00    +0.110 C 
ATOM     12  C   LIG    1        2.959  -2.111  -1.961  0.00  0.00    +0.270 C 
ATOM     13  O   LIG    1        2.725  -4.668  -2.834  0.00  0.00    -0.550 OA
BRANCH  11  14
ATOM     14  O   LIG    1        0.692  -1.895  -1.146  0.00  0.00    -0.530 OA
ATOM     15  H   LIG    1        0.792  -2.699  -0.618  0.00  0.00    +0.380 HD
ENDBRANCH  11  14
ENDBRANCH   1  11
BRANCH   2  16
ATOM     16  C   LIG    1        2.594  -0.802   2.397  0.00  0.00    +0.320 C 
BRANCH  16  17
ATOM     17  C   LIG    1        2.143  -1.746   3.514  0.00  0.00    -0.110 C 
ATOM     18  C   LIG    1        2.880  -1.660   4.851  0.00  0.00    +0.060 C 
ATOM     19  C   LIG    1        3.105  -2.860   3.929  0.00  0.00    +0.050 C 
BRANCH  17  20
ATOM     20  C   LIG    1        0.667  -2.050   3.551  0.00  0.00    -0.100 A 
ATOM     21  C   LIG    1        0.221  -3.334   3.303  0.00  0.00    +0.090 A 
ATOM     22  C   LIG    1       -1.132  -3.616   3.343  0.00  0.00    -0.010 A 
ATOM     23  C   LIG    1       -2.042  -2.610   3.619  0.00  0.00    +0.130 A 
ATOM     24  C   LIG    1       -1.596  -1.322   3.861  0.00  0.00    -0.040 A 
ATOM     25  F   LIG    1       -3.364  -2.885   3.652  0.00  0.00    -0.130 F 
ATOM     26  C   LIG    1       -0.241  -1.042   3.827  0.00  0.00    +0.150 A 
ATOM     27  F   LIG    1        0.196   0.215   4.064  0.00  0.00    -0.120 F 
ENDBRANCH  17  20
ENDBRANCH  16  17
ENDBRANCH   2  16
TORSDOF 5
