REMARK  Name = ZINCqH0000032C1C.0
REMARK                            x       y       z     vdW  Elec       q    Type
REMARK                         _______ _______ _______ _____ _____    ______ ____
ROOT
ATOM      1  C   LIG    1       -1.734   0.342   9.505  0.00  0.00    +0.080 C 
ATOM      2  C   LIG    1       -1.991   0.791   8.065  0.00  0.00    +0.100 C 
ATOM      3  C   LIG    1       -0.658   0.953   7.333  0.00  0.00    +0.290 C 
ATOM      4  N   LIG    1       -0.915   1.565   6.020  0.00  0.00    -0.630 N 
ATOM      5  C   LIG    1       -1.739   2.784   5.974  0.00  0.00    +0.280 C 
ATOM      6  C   LIG    1       -3.023   2.529   6.772  0.00  0.00    +0.140 C 
ATOM      7  C   LIG    1       -0.416   1.023   4.892  0.00  0.00    +0.710 C 
ATOM      8  N   LIG    1       -0.579   1.652   3.712  0.00  0.00    -0.740 N 
ATOM      9  H   LIG    1       -1.117   2.458   3.662  0.00  0.00    +0.400 HD
ATOM     10  O   LIG    1        0.182  -0.035   4.939  0.00  0.00    -0.580 OA
ATOM     11  C   LIG    1       -2.841  -0.258   7.347  0.00  0.00    +0.030 C 
ATOM     12  O   LIG    1       -2.681   2.043   8.072  0.00  0.00    -0.350 OA
ENDROOT
BRANCH   8  13
ATOM     13  C   LIG    1        0.056   1.120   2.504  0.00  0.00    +0.260 C 
ATOM     14  C   LIG    1        1.496   1.636   2.412  0.00  0.00    -0.010 C 
ATOM     15  C   LIG    1        2.125   1.140   1.108  0.00  0.00    +0.230 C 
ATOM     16  O   LIG    1        1.336   1.581   0.001  0.00  0.00    -0.370 OA
ATOM     17  C   LIG    1       -0.006   1.091   0.009  0.00  0.00    +0.250 C 
ATOM     18  C   LIG    1       -0.721   1.586   1.268  0.00  0.00    +0.020 C 
BRANCH  17  19
ATOM     19  C   LIG    1       -0.732   1.595  -1.212  0.00  0.00    -0.180 A 
ATOM     20  C   LIG    1       -1.657   0.915  -1.892  0.00  0.00    +0.010 A 
ATOM     21  C   LIG    1       -2.188   1.583  -2.982  0.00  0.00    +0.000 A 
ATOM     22  C   LIG    1       -1.694   2.804  -3.188  0.00  0.00    -0.050 A 
ATOM     23  S   LIG    1       -0.494   3.171  -1.955  0.00  0.00    +0.140 S 
ENDBRANCH  17  19
ENDBRANCH   8  13
BRANCH   6  24
ATOM     24  C   LIG    1       -3.809   3.836   6.905  0.00  0.00    +0.470 C 
ATOM     25  F   LIG    1       -3.026   4.784   7.572  0.00  0.00    -0.170 F 
ATOM     26  F   LIG    1       -4.981   3.603   7.633  0.00  0.00    -0.170 F 
ATOM     27  F   LIG    1       -4.138   4.314   5.633  0.00  0.00    -0.170 F 
ENDBRANCH   6  24
TORSDOF 3
