REMARK  Name = ZINCqH0000008P1p.0
REMARK                            x       y       z     vdW  Elec       q    Type
REMARK                         _______ _______ _______ _____ _____    ______ ____
ROOT
ATOM      1  C   LIG    1        4.506   5.084  -2.375  0.00  0.00    +0.040 C 
ENDROOT
BRANCH   1   4
ATOM      2  N   LIG    1        3.543   3.345  -0.902  0.00  0.00    -0.730 N 
ATOM      3  H   LIG    1        2.669   3.726  -1.077  0.00  0.00    +0.400 HD
ATOM      4  C   LIG    1        4.640   3.887  -1.469  0.00  0.00    +0.520 C 
ATOM      5  O   LIG    1        5.734   3.410  -1.251  0.00  0.00    -0.530 OA
BRANCH   2   7
ATOM      6  C   LIG    1        3.997   2.650   1.398  0.00  0.00    +0.040 C 
ATOM      7  C   LIG    1        3.673   2.182  -0.022  0.00  0.00    +0.280 C 
BRANCH   7   8
ATOM      8  C   LIG    1        2.378   1.411  -0.013  0.00  0.00    -0.080 A 
ATOM      9  C   LIG    1        2.396   0.029  -0.021  0.00  0.00    +0.030 A 
ATOM     10  C   LIG    1        1.208  -0.678  -0.013  0.00  0.00    +0.040 A 
ATOM     11  C   LIG    1        0.002  -0.004   0.002  0.00  0.00    +0.030 A 
ATOM     12  C   LIG    1       -0.017   1.379   0.010  0.00  0.00    -0.030 A 
ATOM     13 CL   LIG    1       -1.532   2.227   0.021  0.00  0.00    -0.060 Cl
ATOM     14  C   LIG    1        1.172   2.087   0.002  0.00  0.00    +0.020 A 
ENDBRANCH   7   8
ENDBRANCH   2   7
ENDBRANCH   1   4
BRANCH   1  15
ATOM     15  C   LIG    1        5.890   5.497  -2.882  0.00  0.00    +0.320 C 
BRANCH  15  16
ATOM     16  N   LIG    1        5.760   6.660  -3.762  0.00  0.00    -0.550 N 
ATOM     17  C   LIG    1        5.580   6.498  -5.091  0.00  0.00    +0.490 C 
ATOM     18  C   LIG    1        5.482   7.707  -5.986  0.00  0.00    +0.230 C 
ATOM     19  O   LIG    1        4.901   8.796  -5.264  0.00  0.00    -0.300 OA
ATOM     20  C   LIG    1        5.385   9.030  -4.015  0.00  0.00    +0.080 A 
ATOM     21  C   LIG    1        5.444  10.317  -3.511  0.00  0.00    +0.030 A 
ATOM     22  C   LIG    1        5.942  10.537  -2.239  0.00  0.00    +0.020 A 
ATOM     23  C   LIG    1        6.380   9.475  -1.470  0.00  0.00    +0.020 A 
ATOM     24  C   LIG    1        6.323   8.185  -1.967  0.00  0.00    +0.000 A 
ATOM     25  C   LIG    1        6.884   8.100  -6.457  0.00  0.00    +0.060 C 
ATOM     26  O   LIG    1        5.494   5.384  -5.563  0.00  0.00    -0.500 OA
ATOM     27  C   LIG    1        5.827   7.959  -3.239  0.00  0.00    +0.090 A 
ENDBRANCH  15  16
ENDBRANCH   1  15
TORSDOF 5
