REMARK  Name = ZINCpk00000ebMtl.0
REMARK                            x       y       z     vdW  Elec       q    Type
REMARK                         _______ _______ _______ _____ _____    ______ ____
ROOT
ATOM      1  O   LIG    1       -3.870   4.138   3.710  0.00  0.00    -0.520 OA
ATOM      2  C   LIG    1       -3.953   3.083   3.116  0.00  0.00    +0.520 C 
ATOM      3  N   LIG    1       -3.008   2.775   2.223  0.00  0.00    -0.710 N 
ATOM      4  H   LIG    1       -2.285   3.406   2.075  0.00  0.00    +0.410 HD
ATOM      5  CA  LIG    1       -3.015   1.534   1.460  0.00  0.00    +0.240 C 
ATOM      6  C   LIG    1       -4.381   0.915   1.443  0.00  0.00    +0.520 C 
ATOM      7  N   LIG    1       -5.324   1.219   2.340  0.00  0.00    -0.710 N 
ATOM      8  H   LIG    1       -6.187   0.783   2.272  0.00  0.00    +0.410 HD
ATOM      9  O   LIG    1       -4.641   0.104   0.581  0.00  0.00    -0.520 OA
ATOM     10  CA  LIG    1       -5.111   2.179   3.414  0.00  0.00    +0.270 C 
ENDROOT
BRANCH   5  11
ATOM     11  C   LIG    1       -2.580   1.826   0.023  0.00  0.00    +0.140 C 
BRANCH  11  12
ATOM     12  C   LIG    1       -1.154   2.313   0.020  0.00  0.00    -0.090 A 
ATOM     13  C   LIG    1       -0.842   3.594   0.029  0.00  0.00    -0.020 A 
ATOM     14  S   LIG    1        0.895   3.830   0.014  0.00  0.00    +0.100 S 
ATOM     15  C   LIG    1        1.198   2.098   0.002  0.00  0.00    -0.140 A 
ATOM     16  C   LIG    1        2.401   1.385  -0.014  0.00  0.00    +0.050 A 
ATOM     17  C   LIG    1        2.390   0.010  -0.021  0.00  0.00    +0.030 A 
ATOM     18  C   LIG    1        1.185  -0.678  -0.013  0.00  0.00    +0.010 A 
ATOM     19  C   LIG    1        0.002  -0.004   0.002  0.00  0.00    +0.050 A 
ATOM     20  C   LIG    1       -0.017   1.407   0.010  0.00  0.00    -0.070 A 
ENDBRANCH  11  12
ENDBRANCH   5  11
BRANCH  10  21
ATOM     21  C   LIG    1       -4.833   1.422   4.715  0.00  0.00    +0.160 C 
BRANCH  21  22
ATOM     22  C   LIG    1       -6.042   0.604   5.088  0.00  0.00    +0.310 A 
ATOM     23  N   LIG    1       -6.969   1.141   5.856  0.00  0.00    -0.510 NA
ATOM     24  C   LIG    1       -8.047   0.455   6.199  0.00  0.00    +0.320 A 
ATOM     25  C   LIG    1       -8.188  -0.848   5.749  0.00  0.00    -0.080 A 
ATOM     26  C   LIG    1       -7.190  -1.381   4.948  0.00  0.00    +0.320 A 
ATOM     27  N   LIG    1       -6.143  -0.632   4.641  0.00  0.00    -0.510 NA
ENDBRANCH  21  22
ENDBRANCH  10  21
TORSDOF 4
