REMARK  Name = ZINCrD000000Akhy.0
REMARK                            x       y       z     vdW  Elec       q    Type
REMARK                         _______ _______ _______ _____ _____    ______ ____
ROOT
ATOM      1  O   LIG    1       -0.508  -0.623   0.912  0.00  0.00    -0.510 OA
ATOM      2  C   LIG    1       -0.004  -0.005  -0.001  0.00  0.00    +0.530 C 
ATOM      3  N   LIG    1        0.585  -0.664  -1.018  0.00  0.00    -0.670 N 
ATOM      4  H   LIG    1        0.931  -0.173  -1.779  0.00  0.00    +0.420 HD
ENDROOT
BRANCH   3   5
ATOM      5  C   LIG    1        0.697  -2.061  -0.976  0.00  0.00    +0.160 A 
ATOM      6  C   LIG    1       -0.307  -2.820  -0.388  0.00  0.00    +0.050 A 
ATOM      7  C   LIG    1       -0.190  -4.199  -0.350  0.00  0.00    +0.090 A 
ATOM      8  C   LIG    1        0.925  -4.819  -0.896  0.00  0.00    +0.070 A 
ATOM      9  O   LIG    1        1.029  -6.180  -0.851  0.00  0.00    -0.310 OA
ATOM     10  C   LIG    1        0.099  -6.904  -1.659  0.00  0.00    +0.230 C 
ATOM     11  C   LIG    1       -1.220  -7.093  -0.926  0.00  0.00    -0.010 C 
ATOM     12  C   LIG    1       -1.930  -5.774  -0.664  0.00  0.00    +0.230 C 
ATOM     13  C   LIG    1        1.926  -4.063  -1.482  0.00  0.00    +0.060 A 
ATOM     14  O   LIG    1       -1.169  -4.956   0.226  0.00  0.00    -0.310 OA
ATOM     15  C   LIG    1        1.810  -2.685  -1.526  0.00  0.00    -0.060 A 
ATOM     16 CL   LIG    1        3.059  -1.733  -2.266  0.00  0.00    -0.050 Cl
ENDBRANCH   3   5
BRANCH   2  17
ATOM     17  C   LIG    1       -0.035   1.502   0.002  0.00  0.00    +0.060 C 
BRANCH  17  18
ATOM     18  C   LIG    1       -0.755   1.995   1.258  0.00  0.00    +0.330 C 
BRANCH  18  19
ATOM     19  N   LIG    1       -0.785   3.459   1.261  0.00  0.00    -0.540 N 
ATOM     20  C   LIG    1        0.223   4.154   1.848  0.00  0.00    +0.600 A 
ATOM     21  N   LIG    1        0.240   5.454   1.868  0.00  0.00    -0.500 NA
ATOM     22  C   LIG    1       -0.753   6.185   1.317  0.00  0.00    +0.070 A 
ATOM     23  C   LIG    1       -1.822   5.539   0.703  0.00  0.00    -0.230 A 
ATOM     24  C   LIG    1       -2.791   6.474   0.168  0.00  0.00    +0.080 A 
ATOM     25  C   LIG    1       -2.494   7.747   0.354  0.00  0.00    -0.050 A 
ATOM     26  S   LIG    1       -0.977   7.926   1.214  0.00  0.00    +0.200 S 
ATOM     27  C   LIG    1       -1.817   4.110   0.687  0.00  0.00    +0.560 A 
ATOM     28  O   LIG    1       -2.727   3.491   0.163  0.00  0.00    -0.520 OA
ENDBRANCH  18  19
ENDBRANCH  17  18
ENDBRANCH   2  17
TORSDOF 4
