REMARK  Name = ZINCpk00000y6usL.0
REMARK                            x       y       z     vdW  Elec       q    Type
REMARK                         _______ _______ _______ _____ _____    ______ ____
ROOT
ATOM      1  N   LIG    1       -1.640   2.540   1.409  0.00  0.00    -0.490 NA
ATOM      2  C   LIG    1       -0.662   3.443   2.070  0.00  0.00    +0.170 C 
ATOM      3  C   LIG    1       -1.439   4.058   3.253  0.00  0.00    +0.060 C 
ATOM      4  C   LIG    1       -2.925   3.957   2.853  0.00  0.00    +0.280 C 
ATOM      5  C   LIG    1       -2.922   3.289   1.461  0.00  0.00    +0.200 C 
ENDROOT
BRANCH   4   6
ATOM      6  C   LIG    1       -3.540   5.331   2.773  0.00  0.00    +0.160 A 
ATOM      7  N   LIG    1       -3.655   6.194   3.753  0.00  0.00    -0.420 NA
ATOM      8  C   LIG    1       -4.260   7.270   3.220  0.00  0.00    +0.160 A 
ATOM      9  N   LIG    1       -4.479   7.011   1.966  0.00  0.00    -0.380 NA
ATOM     10  C   LIG    1       -4.618   8.542   3.944  0.00  0.00    +0.210 C 
ATOM     11  O   LIG    1       -4.068   5.905   1.687  0.00  0.00    +0.080 OA
ENDBRANCH   4   6
BRANCH   4  12
ATOM     12  N   LIG    1       -3.656   3.129   3.815  0.00  0.00    -0.720 N 
ATOM     13  H   LIG    1       -4.088   2.311   3.522  0.00  0.00    +0.410 HD
ATOM     14  C   LIG    1       -3.730   3.504   5.108  0.00  0.00    +0.500 C 
ATOM     15  O   LIG    1       -3.191   4.526   5.474  0.00  0.00    -0.490 OA
ATOM     16  C   LIG    1       -4.482   2.652   6.097  0.00  0.00    +0.100 C 
ENDBRANCH   4  12
BRANCH   1  17
ATOM     17  C   LIG    1       -1.247   2.264   0.021  0.00  0.00    +0.270 C 
BRANCH  17  21
ATOM     18  N   LIG    1        2.066   0.743  -0.014  0.00  0.00    -0.370 N 
ATOM     19  N   LIG    1        1.250  -0.396  -0.012  0.00  0.00    -0.300 NA
ATOM     20  C   LIG    1        0.002  -0.004   0.002  0.00  0.00    +0.100 A 
ATOM     21  C   LIG    1       -0.017   1.395   0.010  0.00  0.00    -0.230 A 
ATOM     22  C   LIG    1       -1.206  -0.904   0.008  0.00  0.00    +0.150 C 
ATOM     23  C   LIG    1        1.265   1.828  -0.000  0.00  0.00    +0.090 A 
ATOM     24  C   LIG    1        1.716   3.266   0.003  0.00  0.00    +0.130 C 
BRANCH  18  26
ATOM     25  C   LIG    1        4.028   0.764  -1.474  0.00  0.00    +0.040 C 
ATOM     26  C   LIG    1        3.531   0.753  -0.027  0.00  0.00    +0.320 C 
ENDBRANCH  18  26
ENDBRANCH  17  21
ENDBRANCH   1  17
TORSDOF 5
