REMARK  Name = ZINCpk00000xW2nw.0
REMARK                            x       y       z     vdW  Elec       q    Type
REMARK                         _______ _______ _______ _____ _____    ______ ____
ROOT
ATOM      1  C   LIG    1        2.278   1.475   0.012  0.00  0.00    +0.480 A 
ATOM      2  C   LIG    1        2.310   0.079   0.046  0.00  0.00    -0.210 A 
ATOM      3  C   LIG    1        1.113  -0.607   0.089  0.00  0.00    +0.370 A 
ATOM      4  N   LIG    1       -0.024   0.073   0.096  0.00  0.00    -0.610 NA
ATOM      5  C   LIG    1       -0.026   1.398   0.064  0.00  0.00    +0.600 A 
ATOM      6  N   LIG    1        1.101   2.093   0.022  0.00  0.00    -0.630 NA
ENDROOT
BRANCH   1   7
ATOM      7  N   LIG    1        3.454   2.205  -0.033  0.00  0.00    -0.700 N 
ATOM      8  H   LIG    1        3.423   3.174  -0.056  0.00  0.00    +0.410 HD
BRANCH   7  14
ATOM      9  C   LIG    1        5.840   2.463   0.449  0.00  0.00    +0.170 C 
ATOM     10  O   LIG    1        5.939   3.576  -0.444  0.00  0.00    -0.370 OA
ATOM     11  C   LIG    1        6.289   3.221  -1.783  0.00  0.00    +0.210 C 
ATOM     12  C   LIG    1        5.213   2.300  -2.364  0.00  0.00    -0.010 C 
ATOM     13  C   LIG    1        5.073   1.064  -1.471  0.00  0.00    +0.020 C 
ATOM     14  C   LIG    1        4.745   1.512  -0.044  0.00  0.00    +0.210 C 
BRANCH   9  16
ATOM     15  C   LIG    1        5.523   1.789   2.834  0.00  0.00    +0.030 C 
ATOM     16  C   LIG    1        5.488   2.962   1.852  0.00  0.00    -0.010 C 
ATOM     17  C   LIG    1        6.504   4.020   2.287  0.00  0.00    +0.020 C 
ENDBRANCH   9  16
ENDBRANCH   7  14
ENDBRANCH   1   7
BRANCH   5  18
ATOM     18  N   LIG    1       -1.235   2.071   0.067  0.00  0.00    -0.700 N 
ATOM     19  H   LIG    1       -1.250   3.041   0.043  0.00  0.00    +0.410 HD
BRANCH  18  20
ATOM     20  C   LIG    1       -2.492   1.320   0.107  0.00  0.00    +0.280 C 
BRANCH  20  21
ATOM     21  C   LIG    1       -3.670   2.297   0.102  0.00  0.00    +0.020 C 
BRANCH  21  22
ATOM     22  C   LIG    1       -4.983   1.512   0.144  0.00  0.00    +0.280 C 
BRANCH  22  23
ATOM     23  N   LIG    1       -6.110   2.447   0.140  0.00  0.00    -1.120 NA
ATOM     24  H   LIG    1       -5.962   3.387   0.331  0.00  0.00    +0.420 HD
BRANCH  23  25
ATOM     25  S   LIG    1       -7.638   1.901  -0.192  0.00  0.00    +2.620 S 
ATOM     26  O   LIG    1       -7.493   1.170  -1.403  0.00  0.00    -0.950 OA
ATOM     27  O   LIG    1       -8.448   3.067  -0.133  0.00  0.00    -0.960 OA
ATOM     28  C   LIG    1       -8.028   0.784   1.183  0.00  0.00    -0.280 C 
ENDBRANCH  23  25
ENDBRANCH  22  23
ENDBRANCH  21  22
ENDBRANCH  20  21
ENDBRANCH  18  20
ENDBRANCH   5  18
TORSDOF 9
