REMARK  Name = ZINC9l0000002lUW.0
REMARK                            x       y       z     vdW  Elec       q    Type
REMARK                         _______ _______ _______ _____ _____    ______ ____
ROOT
ATOM      1  C   LIG    1        1.294   0.655  -0.406  0.00  0.00    -0.180 C 
ATOM      2  C   LIG    1        0.893  -0.821  -0.441  0.00  0.00    -0.000 C 
ATOM      3  C   LIG    1        1.631  -0.256   0.775  0.00  0.00    -0.000 C 
ENDROOT
BRANCH   1   5
ATOM      4  C   LIG    1        3.744   0.435  -0.841  0.00  0.00    +0.000 C 
ATOM      5  C   LIG    1        2.447   1.096  -1.310  0.00  0.00    +0.030 C 
ATOM      6  C   LIG    1        2.154   0.676  -2.752  0.00  0.00    +0.010 C 
ENDBRANCH   1   5
BRANCH   1   7
ATOM      7  C   LIG    1        0.196   1.670  -0.211  0.00  0.00    +0.520 C 
ATOM      8  O   LIG    1        0.091   2.610  -0.980  0.00  0.00    -0.690 OA
ATOM      9  O   LIG    1       -0.587   1.550   0.715  0.00  0.00    -0.700 OA
ENDBRANCH   1   7
TORSDOF 2
