REMARK  Name = ZINCrH000004r5fM.0
REMARK                            x       y       z     vdW  Elec       q    Type
REMARK                         _______ _______ _______ _____ _____    ______ ____
ROOT
ATOM      1  C   LIG    1       -4.788   6.552  -4.597  0.00  0.00    +0.100 C 
ATOM      2  C   LIG    1       -3.965   6.133  -3.406  0.00  0.00    +0.050 A 
ATOM      3  C   LIG    1       -3.299   4.921  -3.422  0.00  0.00    -0.010 A 
ATOM      4  C   LIG    1       -2.541   4.533  -2.336  0.00  0.00    +0.100 A 
ATOM      5  C   LIG    1       -2.456   5.362  -1.217  0.00  0.00    -0.160 A 
ATOM      6  C   LIG    1       -3.130   6.584  -1.208  0.00  0.00    +0.200 A 
ATOM      7  C   LIG    1       -3.881   6.962  -2.301  0.00  0.00    -0.690 A 
ENDROOT
BRANCH   5   8
ATOM      8  C   LIG    1       -1.649   4.950  -0.048  0.00  0.00    +0.560 C 
ATOM      9  N   LIG    1       -0.999   3.770  -0.060  0.00  0.00    -0.720 N 
ATOM     10  H   LIG    1       -1.060   3.190  -0.835  0.00  0.00    +0.400 HD
ATOM     11  O   LIG    1       -1.573   5.676   0.924  0.00  0.00    -0.530 OA
BRANCH   9  12
ATOM     12  C   LIG    1       -0.200   3.362   1.099  0.00  0.00    +0.240 C 
ATOM     13  C   LIG    1        1.201   3.968   0.991  0.00  0.00    +0.010 C 
ATOM     14  C   LIG    1        2.035   3.542   2.200  0.00  0.00    +0.010 C 
ATOM     15  C   LIG    1        2.141   2.016   2.235  0.00  0.00    +0.010 C 
ATOM     16  C   LIG    1        0.740   1.410   2.343  0.00  0.00    -0.010 C 
ATOM     17  C   LIG    1        0.846  -0.116   2.378  0.00  0.00    +0.020 C 
ATOM     18  C   LIG    1       -0.094   1.836   1.133  0.00  0.00    -0.010 C 
ATOM     19  C   LIG    1        0.578   1.342  -0.149  0.00  0.00    +0.020 C 
ENDBRANCH   9  12
ENDBRANCH   5   8
BRANCH   7  20
ATOM     20  S   LIG    1       -4.733   8.504  -2.292  0.00  0.00    +2.690 S 
ATOM     21  O   LIG    1       -4.487   9.091  -1.022  0.00  0.00    -0.950 OA
ATOM     22  O   LIG    1       -6.039   8.244  -2.788  0.00  0.00    -0.950 OA
BRANCH  20  23
ATOM     23  N   LIG    1       -3.995   9.479  -3.409  0.00  0.00    -0.990 NA
ATOM     24  C   LIG    1       -2.798  10.253  -3.052  0.00  0.00    +0.290 C 
ATOM     25  C   LIG    1       -1.690   9.935  -4.068  0.00  0.00    +0.010 C 
ATOM     26  C   LIG    1       -2.212  10.202  -5.482  0.00  0.00    +0.020 C 
ATOM     27  C   LIG    1       -3.404   9.286  -5.768  0.00  0.00    +0.010 C 
ATOM     28  C   LIG    1       -4.528   9.592  -4.773  0.00  0.00    +0.290 C 
ENDBRANCH  20  23
ENDBRANCH   7  20
TORSDOF 4
