REMARK  Name = ZINCvU0000000HAP.0
REMARK                            x       y       z     vdW  Elec       q    Type
REMARK                         _______ _______ _______ _____ _____    ______ ____
ROOT
ATOM      1  O   LIG    1        0.774   0.548   2.529  0.00  0.00    -0.520 OA
ATOM      2  C   LIG    1       -0.222   1.232   2.431  0.00  0.00    +0.530 C 
ATOM      3  N   LIG    1       -0.698   1.558   1.213  0.00  0.00    -0.730 N 
ATOM      4  H   LIG    1       -1.495   2.106   1.135  0.00  0.00    +0.400 HD
ENDROOT
BRANCH   2   5
ATOM      5  C   LIG    1       -0.927   1.718   3.671  0.00  0.00    +0.110 C 
ATOM      6  C   LIG    1       -0.956   3.223   3.668  0.00  0.00    -0.150 A 
ATOM      7  C   LIG    1       -1.870   3.882   2.866  0.00  0.00    +0.050 A 
ATOM      8  C   LIG    1       -1.911   5.263   2.849  0.00  0.00    -0.010 A 
ATOM      9  C   LIG    1       -1.037   5.992   3.634  0.00  0.00    +0.060 A 
ATOM     10  C   LIG    1       -0.126   5.340   4.437  0.00  0.00    +0.010 A 
ATOM     11  C   LIG    1       -0.081   3.950   4.457  0.00  0.00    +0.130 A 
ATOM     12  O   LIG    1        0.822   3.329   5.253  0.00  0.00    -0.240 OA
ATOM     13  C   LIG    1        0.634   2.037   5.615  0.00  0.00    +0.130 A 
ATOM     14  C   LIG    1        1.292   1.543   6.735  0.00  0.00    +0.010 A 
ATOM     15  C   LIG    1        1.113   0.230   7.120  0.00  0.00    +0.060 A 
ATOM     16  C   LIG    1        0.278  -0.597   6.391  0.00  0.00    -0.010 A 
ATOM     17  C   LIG    1       -0.378  -0.108   5.277  0.00  0.00    +0.060 A 
ATOM     18  C   LIG    1       -0.203   1.207   4.887  0.00  0.00    -0.130 A 
ENDBRANCH   2   5
BRANCH   3  19
ATOM     19  C   LIG    1       -0.013   1.086   0.008  0.00  0.00    +0.270 C 
BRANCH  19  20
ATOM     20  C   LIG    1       -0.753   1.593  -1.232  0.00  0.00    +0.280 C 
BRANCH  20  21
ATOM     21  N   LIG    1       -0.067   1.120  -2.437  0.00  0.00    -0.700 N 
ATOM     22  H   LIG    1        0.730   0.573  -2.358  0.00  0.00    +0.420 HD
BRANCH  21  23
ATOM     23  C   LIG    1       -0.559   1.456  -3.693  0.00  0.00    +0.450 A 
ATOM     24  N   LIG    1       -1.650   2.199  -3.794  0.00  0.00    -0.520 NA
ATOM     25  C   LIG    1       -2.146   2.545  -4.967  0.00  0.00    +0.400 A 
ATOM     26  C   LIG    1       -1.547   2.132  -6.139  0.00  0.00    -0.290 A 
ATOM     27  C   LIG    1       -0.403   1.347  -6.079  0.00  0.00    +0.190 A 
ATOM     28  C   LIG    1        0.098   1.004  -4.835  0.00  0.00    -0.160 A 
ATOM     29 CL   LIG    1        1.524   0.024  -4.700  0.00  0.00    -0.040 Cl
BRANCH  26  30
ATOM     30  C   LIG    1       -2.128   2.529  -7.472  0.00  0.00    +0.520 C 
ATOM     31  F   LIG    1       -1.102   2.623  -8.419  0.00  0.00    -0.180 F 
ATOM     32  F   LIG    1       -2.766   3.768  -7.352  0.00  0.00    -0.170 F 
ATOM     33  F   LIG    1       -3.054   1.565  -7.883  0.00  0.00    -0.170 F 
ENDBRANCH  26  30
ENDBRANCH  21  23
ENDBRANCH  20  21
ENDBRANCH  19  20
ENDBRANCH   3  19
TORSDOF 6
