REMARK  Name = ZINC650000002oJk.0
REMARK                            x       y       z     vdW  Elec       q    Type
REMARK                         _______ _______ _______ _____ _____    ______ ____
ROOT
ATOM      1  C   LIG    1        0.011   1.072   2.506  0.00  0.00    +0.200 C 
ENDROOT
BRANCH   1   3
ATOM      2  C   LIG    1       -0.013   1.086   0.008  0.00  0.00    +0.040 C 
ATOM      3  C   LIG    1       -0.729   1.579   1.267  0.00  0.00    +0.010 C 
ENDBRANCH   1   3
BRANCH   1   4
ATOM      4  O   LIG    1       -0.070  -0.353   2.560  0.00  0.00    -0.550 OA
ATOM      5  H   LIG    1       -0.973  -0.695   2.607  0.00  0.00    +0.390 HD
ENDBRANCH   1   4
BRANCH   1   6
ATOM      6  C   LIG    1       -0.630   1.667   3.762  0.00  0.00    +0.230 C 
BRANCH   6   7
ATOM      7  N   LIG    1        0.152   1.277   4.943  0.00  0.00    -0.630 N 
ATOM      8  H   LIG    1       -0.271   1.669   5.771  0.00  0.00    +0.440 HD
ATOM      9  H   LIG    1        1.095   1.623   4.851  0.00  0.00    +0.440 HD
ATOM     10  H   LIG    1        0.169   0.271   5.018  0.00  0.00    +0.440 HD
ENDBRANCH   6   7
ENDBRANCH   1   6
TORSDOF 4
