REMARK  Name = ZINCrg000000sEaE.0
REMARK                            x       y       z     vdW  Elec       q    Type
REMARK                         _______ _______ _______ _____ _____    ______ ____
ROOT
ATOM      1  N   LIG    1        0.410   6.294   0.936  0.00  0.00    -0.510 NA
ATOM      2  C   LIG    1        0.754   5.872   2.301  0.00  0.00    +0.200 C 
ATOM      3  C   LIG    1        0.002   6.745   3.307  0.00  0.00    +0.210 C 
ATOM      4  N   LIG    1       -1.444   6.626   3.071  0.00  0.00    -0.490 N 
ATOM      5  C   LIG    1       -1.788   7.048   1.706  0.00  0.00    +0.220 C 
ATOM      6  C   LIG    1       -1.036   6.174   0.700  0.00  0.00    +0.180 C 
ENDROOT
BRANCH   1  11
ATOM      7  N   LIG    1        0.786   5.442  -2.528  0.00  0.00    -0.520 N 
ATOM      8  C   LIG    1        0.669   3.990  -2.563  0.00  0.00    +0.260 C 
ATOM      9  C   LIG    1        1.273   3.375  -1.298  0.00  0.00    +0.040 C 
ATOM     10  C   LIG    1        0.670   4.082  -0.078  0.00  0.00    +0.000 C 
ATOM     11  C   LIG    1        1.171   5.528  -0.060  0.00  0.00    +0.200 C 
ATOM     12  C   LIG    1        0.986   6.149  -1.415  0.00  0.00    +0.520 C 
ATOM     13  O   LIG    1        1.021   7.359  -1.502  0.00  0.00    -0.510 OA
BRANCH   7  17
ATOM     14  C   LIG    1        0.364   6.463  -7.330  0.00  0.00    +0.370 C 
ATOM     15  N   LIG    1        0.486   6.605  -5.877  0.00  0.00    -0.380 N 
ATOM     16  C   LIG    1        0.575   5.590  -4.979  0.00  0.00    +0.190 A 
ATOM     17  C   LIG    1        0.674   6.143  -3.743  0.00  0.00    -0.010 A 
ATOM     18  C   LIG    1        0.645   7.537  -3.893  0.00  0.00    +0.270 A 
ATOM     19  N   LIG    1        0.533   7.812  -5.168  0.00  0.00    -0.290 NA
ENDBRANCH   7  17
ENDBRANCH   1  11
BRANCH   4  20
ATOM     20  C   LIG    1       -2.161   7.347   4.010  0.00  0.00    +0.350 A 
ATOM     21  N   LIG    1       -2.582   8.568   3.720  0.00  0.00    -0.510 NA
ATOM     22  C   LIG    1       -3.272   9.288   4.583  0.00  0.00    +0.320 A 
ATOM     23  C   LIG    1       -3.579   8.800   5.840  0.00  0.00    -0.040 A 
ATOM     24  C   LIG    1       -3.160   7.531   6.200  0.00  0.00    +0.140 A 
ATOM     25  C   LIG    1       -2.433   6.782   5.268  0.00  0.00    -0.070 A 
BRANCH  25  26
ATOM     26  C   LIG    1       -1.976   5.463   5.589  0.00  0.00    +0.260 C 
ATOM     27  N   LIG    1       -1.612   4.418   5.844  0.00  0.00    -0.410 NA
ENDBRANCH  25  26
ENDBRANCH   4  20
TORSDOF 4
