REMARK  Name = ZINCqH0000007Hk2.0
REMARK                            x       y       z     vdW  Elec       q    Type
REMARK                         _______ _______ _______ _____ _____    ______ ____
ROOT
ATOM      1  C   LIG    1       -1.002  -3.206  -5.550  0.00  0.00    +0.590 C 
ATOM      2  N   LIG    1       -1.044  -4.336  -4.816  0.00  0.00    -0.660 N 
ATOM      3  H   LIG    1       -1.473  -5.130  -5.172  0.00  0.00    +0.410 HD
ATOM      4  O   LIG    1       -0.541  -2.187  -5.072  0.00  0.00    -0.500 OA
ENDROOT
BRANCH   1  10
ATOM      5  C   LIG    1       -2.862  -2.905  -7.182  0.00  0.00    +0.200 A 
ATOM      6  C   LIG    1       -3.333  -2.901  -8.485  0.00  0.00    -0.110 A 
ATOM      7  C   LIG    1       -2.483  -3.204  -9.533  0.00  0.00    +0.120 A 
ATOM      8  C   LIG    1       -1.156  -3.507  -9.295  0.00  0.00    -0.110 A 
ATOM      9  C   LIG    1       -0.662  -3.511  -8.000  0.00  0.00    +0.200 A 
ATOM     10  C   LIG    1       -1.515  -3.205  -6.929  0.00  0.00    -0.210 A 
BRANCH   5  12
ATOM     11  C   LIG    1       -5.056  -2.317  -6.488  0.00  0.00    +0.260 C 
ATOM     12  O   LIG    1       -3.699  -2.614  -6.155  0.00  0.00    -0.310 OA
ENDBRANCH   5  12
BRANCH   9  13
ATOM     13  O   LIG    1        0.641  -3.808  -7.769  0.00  0.00    -0.310 OA
ATOM     14  C   LIG    1        1.449  -4.109  -8.909  0.00  0.00    +0.260 C 
ENDBRANCH   9  13
ENDBRANCH   1  10
BRANCH   2  15
ATOM     15  C   LIG    1       -0.468  -4.364  -3.542  0.00  0.00    +0.170 A 
ATOM     16  C   LIG    1        0.153  -5.519  -3.084  0.00  0.00    -0.010 A 
ATOM     17  C   LIG    1        0.722  -5.547  -1.825  0.00  0.00    +0.060 A 
ATOM     18  C   LIG    1        0.675  -4.427  -1.018  0.00  0.00    -0.010 A 
ATOM     19  C   LIG    1        0.056  -3.269  -1.470  0.00  0.00    +0.170 A 
ATOM     20  C   LIG    1       -0.521  -3.239  -2.731  0.00  0.00    +0.040 A 
BRANCH  19  21
ATOM     21  N   LIG    1        0.008  -2.133  -0.649  0.00  0.00    -0.320 N 
ATOM     22  N   LIG    1       -1.099  -1.295  -0.465  0.00  0.00    -0.290 NA
ATOM     23  C   LIG    1       -0.759  -0.344   0.367  0.00  0.00    +0.080 A 
ATOM     24  C   LIG    1        0.572  -0.551   0.747  0.00  0.00    -0.120 A 
ATOM     25  C   LIG    1       -1.649   0.776   0.840  0.00  0.00    +0.160 C 
ATOM     26  C   LIG    1        1.021  -1.656   0.109  0.00  0.00    +0.090 A 
ATOM     27  C   LIG    1        2.401  -2.250   0.224  0.00  0.00    +0.140 C 
ENDBRANCH  19  21
ENDBRANCH   2  15
TORSDOF 5
