REMARK  Name = ZINCvU0000000DP5.0
REMARK                            x       y       z     vdW  Elec       q    Type
REMARK                         _______ _______ _______ _____ _____    ______ ____
ROOT
ATOM      1  C   LIG    1       -1.232   3.145   0.030  0.00  0.00    +0.000 A 
ATOM      2  C   LIG    1       -1.213   1.748   0.017  0.00  0.00    +0.050 A 
ATOM      3  C   LIG    1       -0.013   1.076   0.008  0.00  0.00    +0.090 A 
ATOM      4  C   LIG    1        1.188   1.791   0.000  0.00  0.00    -0.110 A 
ATOM      5  C   LIG    1        1.169   3.188   0.007  0.00  0.00    +0.050 A 
ATOM      6  C   LIG    1       -0.031   3.860   0.022  0.00  0.00    +0.080 A 
ENDROOT
BRANCH   1  10
ATOM      7  C   LIG    1       -4.630   4.326   0.069  0.00  0.00    +0.220 A 
ATOM      8  N   LIG    1       -3.939   5.445   0.068  0.00  0.00    -0.270 NA
ATOM      9  N   LIG    1       -2.682   5.170   0.059  0.00  0.00    -0.260 NA
ATOM     10  C   LIG    1       -2.521   3.866   0.045  0.00  0.00    +0.200 A 
ATOM     11  O   LIG    1       -3.748   3.307   0.055  0.00  0.00    -0.210 OA
BRANCH   7  18
ATOM     12  C   LIG    1       -6.256   6.719   0.098  0.00  0.00    +0.110 C 
ATOM     13  C   LIG    1       -6.898   5.356   0.097  0.00  0.00    -0.020 A 
ATOM     14  C   LIG    1       -8.272   5.238   0.110  0.00  0.00    +0.020 A 
ATOM     15  C   LIG    1       -8.863   3.987   0.109  0.00  0.00    +0.050 A 
ATOM     16  C   LIG    1       -8.081   2.846   0.095  0.00  0.00    +0.000 A 
ATOM     17  C   LIG    1       -6.705   2.949   0.077  0.00  0.00    +0.050 A 
ATOM     18  C   LIG    1       -6.102   4.208   0.083  0.00  0.00    -0.040 A 
ENDBRANCH   7  18
ENDBRANCH   1  10
BRANCH   4  19
ATOM     19  C   LIG    1        2.477   1.070  -0.015  0.00  0.00    +0.560 C 
ATOM     20  N   LIG    1        3.635   1.759  -0.023  0.00  0.00    -0.720 N 
ATOM     21  H   LIG    1        3.622   2.729  -0.018  0.00  0.00    +0.400 HD
ATOM     22  O   LIG    1        2.494  -0.146  -0.022  0.00  0.00    -0.530 OA
BRANCH  20  23
ATOM     23  C   LIG    1        4.913   1.044  -0.038  0.00  0.00    +0.250 C 
ATOM     24  C   LIG    1        5.311   0.678   1.393  0.00  0.00    +0.020 C 
ATOM     25  C   LIG    1        6.646  -0.069   1.377  0.00  0.00    +0.040 C 
ATOM     26  C   LIG    1        7.723   0.826   0.762  0.00  0.00    +0.040 C 
ATOM     27  C   LIG    1        7.326   1.192  -0.670  0.00  0.00    -0.010 C 
ATOM     28  C   LIG    1        5.991   1.939  -0.653  0.00  0.00    +0.050 C 
BRANCH  27  29
ATOM     29  C   LIG    1        8.404   2.087  -1.285  0.00  0.00    +0.450 C 
ATOM     30  F   LIG    1        8.041   2.422  -2.594  0.00  0.00    -0.180 F 
ATOM     31  F   LIG    1        9.625   1.404  -1.300  0.00  0.00    -0.180 F 
ATOM     32  F   LIG    1        8.532   3.254  -0.524  0.00  0.00    -0.180 F 
ENDBRANCH  27  29
ENDBRANCH  20  23
ENDBRANCH   4  19
TORSDOF 5
