REMARK  Name = ZINCrg00000J2e0R.0
REMARK                            x       y       z     vdW  Elec       q    Type
REMARK                         _______ _______ _______ _____ _____    ______ ____
ROOT
ATOM      1  N   LIG    1       -0.334  -4.781  -1.343  0.00  0.00    -0.690 N 
ATOM      2  H   LIG    1       -0.696  -4.174  -2.008  0.00  0.00    +0.420 HD
ATOM      3  C   LIG    1       -0.132  -6.077  -1.652  0.00  0.00    +0.510 C 
ATOM      4  O   LIG    1        0.320  -6.836  -0.820  0.00  0.00    -0.510 OA
ENDROOT
BRANCH   3   5
ATOM      5  C   LIG    1       -0.464  -6.579  -3.020  0.00  0.00    +0.510 C 
ATOM      6  N   LIG    1       -0.392  -7.898  -3.289  0.00  0.00    -0.580 N 
ATOM      7  C   LIG    1       -0.534  -8.389  -4.667  0.00  0.00    +0.290 C 
ATOM      8  C   LIG    1       -1.637  -9.446  -4.707  0.00  0.00    +0.060 C 
ATOM      9  C   LIG    1       -1.345 -10.525  -3.668  0.00  0.00    +0.100 C 
ATOM     10  C   LIG    1       -2.420 -11.623  -3.730  0.00  0.00    +0.280 C 
ATOM     11  N   LIG    1       -1.659 -12.834  -4.077  0.00  0.00    -0.640 N 
ATOM     12  C   LIG    1       -0.363 -12.511  -4.200  0.00  0.00    +0.640 C 
ATOM     13  O   LIG    1        0.498 -13.320  -4.482  0.00  0.00    -0.520 OA
ATOM     14  C   LIG    1       -2.224 -14.173  -4.260  0.00  0.00    +0.340 C 
ATOM     15  C   LIG    1       -1.286  -9.925  -2.267  0.00  0.00    +0.050 C 
ATOM     16  O   LIG    1       -0.106 -11.215  -3.982  0.00  0.00    -0.310 OA
ATOM     17  C   LIG    1       -0.175  -8.871  -2.210  0.00  0.00    +0.300 C 
ATOM     18  O   LIG    1       -0.800  -5.800  -3.888  0.00  0.00    -0.520 OA
ENDBRANCH   3   5
BRANCH   1  19
ATOM     19  C   LIG    1       -0.008  -4.288  -0.002  0.00  0.00    +0.330 C 
BRANCH  19  23
ATOM     20  C   LIG    1       -0.907  -0.117   0.240  0.00  0.00    +0.140 A 
ATOM     21  C   LIG    1        0.400  -0.536   0.038  0.00  0.00    -0.090 A 
ATOM     22  C   LIG    1        0.688  -1.885  -0.040  0.00  0.00    +0.080 A 
ATOM     23  C   LIG    1       -0.325  -2.817   0.083  0.00  0.00    -0.160 A 
ATOM     24  C   LIG    1       -1.629  -2.403   0.286  0.00  0.00    -0.020 A 
ATOM     25  C   LIG    1       -2.731  -3.422   0.420  0.00  0.00    +0.100 C 
ATOM     26  C   LIG    1       -1.921  -1.056   0.370  0.00  0.00    -0.030 A 
BRANCH  20  28
ATOM     27  C   LIG    1       -0.099   2.118   0.182  0.00  0.00    +0.250 C 
ATOM     28  O   LIG    1       -1.193   1.209   0.318  0.00  0.00    -0.320 OA
ENDBRANCH  20  28
ENDBRANCH  19  23
ENDBRANCH   1  19
TORSDOF 4
