REMARK  Name = ZINCqH0000032XKk.0
REMARK                            x       y       z     vdW  Elec       q    Type
REMARK                         _______ _______ _______ _____ _____    ______ ____
ROOT
ATOM      1  C   LIG    1        3.632  -2.019   0.056  0.00  0.00    +0.600 C 
ATOM      2  N   LIG    1        3.621  -0.674  -0.037  0.00  0.00    -0.670 N 
ATOM      3  H   LIG    1        4.456  -0.186  -0.111  0.00  0.00    +0.410 HD
ATOM      4  O   LIG    1        2.584  -2.636   0.064  0.00  0.00    -0.490 OA
ENDROOT
BRANCH   1   8
ATOM      5  N   LIG    1        6.754  -3.810  -0.388  0.00  0.00    -0.340 N 
ATOM      6  N   LIG    1        6.694  -3.706   1.006  0.00  0.00    -0.270 NA
ATOM      7  C   LIG    1        5.607  -3.067   1.337  0.00  0.00    +0.120 A 
ATOM      8  C   LIG    1        4.912  -2.740   0.150  0.00  0.00    -0.270 A 
ATOM      9  C   LIG    1        5.165  -2.739   2.740  0.00  0.00    +0.170 C 
ATOM     10  C   LIG    1        5.665  -3.219  -0.907  0.00  0.00    +0.170 A 
ATOM     11 CL   LIG    1        5.274  -3.081  -2.592  0.00  0.00    +0.020 Cl
BRANCH   5  12
ATOM     12  C   LIG    1        7.825  -4.454  -1.153  0.00  0.00    +0.330 C 
BRANCH  12  13
ATOM     13  C   LIG    1        8.907  -3.424  -1.482  0.00  0.00    +0.010 C 
BRANCH  13  15
ATOM     14  C   LIG    1       11.108  -3.066  -2.610  0.00  0.00    +0.030 C 
ATOM     15  C   LIG    1       10.025  -4.096  -2.281  0.00  0.00    +0.020 C 
ENDBRANCH  13  15
ENDBRANCH  12  13
ENDBRANCH   5  12
ENDBRANCH   1   8
BRANCH   2  16
ATOM     16  C   LIG    1        2.405   0.018  -0.029  0.00  0.00    +0.140 A 
ATOM     17  C   LIG    1        2.318   1.262   0.582  0.00  0.00    +0.010 A 
ATOM     18  C   LIG    1        1.118   1.950   0.593  0.00  0.00    +0.030 A 
ATOM     19  C   LIG    1       -0.000   1.404  -0.003  0.00  0.00    +0.030 A 
ATOM     20  C   LIG    1        0.077   0.154  -0.620  0.00  0.00    -0.120 A 
ATOM     21  C   LIG    1        1.286  -0.539  -0.631  0.00  0.00    +0.090 A 
BRANCH  20  22
ATOM     22  C   LIG    1       -1.121  -0.433  -1.258  0.00  0.00    +0.560 C 
ATOM     23  N   LIG    1       -2.289   0.239  -1.246  0.00  0.00    -0.700 N 
ATOM     24  H   LIG    1       -2.344   1.108  -0.817  0.00  0.00    +0.400 HD
ATOM     25  O   LIG    1       -1.051  -1.521  -1.795  0.00  0.00    -0.520 OA
BRANCH  23  26
ATOM     26  C   LIG    1       -3.475  -0.343  -1.879  0.00  0.00    +0.220 C 
ATOM     27  C   LIG    1       -4.343   0.581  -2.736  0.00  0.00    +0.010 C 
ATOM     28  C   LIG    1       -4.844   0.114  -1.368  0.00  0.00    +0.020 C 
ENDBRANCH  23  26
ENDBRANCH  20  22
ENDBRANCH   2  16
TORSDOF 7
