REMARK  Name = ZINCfA000000bd3B.1
REMARK                            x       y       z     vdW  Elec       q    Type
REMARK                         _______ _______ _______ _____ _____    ______ ____
ROOT
ATOM      1  N   LIG    1       -0.141   1.105   2.554  0.00  0.00    -0.380 N 
ATOM      2  C   LIG    1       -1.160   1.365   3.579  0.00  0.00    +0.320 C 
ATOM      3  H   LIG    1        0.727   1.541   2.824  0.00  0.00    +0.420 HD
ENDROOT
BRANCH   1   4
ATOM      4  C   LIG    1       -0.588   1.658   1.268  0.00  0.00    +0.050 C 
ATOM      5  C   LIG    1       -1.905   0.995   0.858  0.00  0.00    +0.090 C 
ATOM      6  C   LIG    1        0.474   1.387   0.200  0.00  0.00    +0.090 C 
BRANCH   4   8
ATOM      7  C   LIG    1       -1.263   3.743   0.069  0.00  0.00    +0.060 C 
ATOM      8  C   LIG    1       -0.798   3.167   1.407  0.00  0.00    +0.040 C 
ENDBRANCH   4   8
ENDBRANCH   1   4
BRANCH   1   9
ATOM      9  C   LIG    1        0.060  -0.344   2.420  0.00  0.00    +0.320 C 
BRANCH   9  10
ATOM     10  C   LIG    1        0.626  -0.893   3.704  0.00  0.00    -0.210 A 
ATOM     11  C   LIG    1       -0.183  -1.596   4.584  0.00  0.00    +0.110 A 
ATOM     12  C   LIG    1        0.383  -2.088   5.751  0.00  0.00    -0.020 A 
ATOM     13  C   LIG    1        1.721  -1.853   6.001  0.00  0.00    +0.310 A 
ATOM     14  N   LIG    1        2.459  -1.176   5.144  0.00  0.00    -0.470 NA
ATOM     15  C   LIG    1        1.957  -0.698   4.022  0.00  0.00    +0.150 A 
ATOM     16  C   LIG    1        2.844   0.069   3.076  0.00  0.00    +0.130 C 
ENDBRANCH   9  10
ENDBRANCH   1   9
TORSDOF 4
