REMARK  Name = ZINCfA000000bd3B.0
REMARK                            x       y       z     vdW  Elec       q    Type
REMARK                         _______ _______ _______ _____ _____    ______ ____
ROOT
ATOM      1  N   LIG    1       -1.844  -0.825  -1.348  0.00  0.00    -0.380 N 
ATOM      2  C   LIG    1       -0.939  -1.579  -2.226  0.00  0.00    +0.320 C 
ATOM      3  H   LIG    1       -1.946   0.116  -1.698  0.00  0.00    +0.420 HD
ENDROOT
BRANCH   1   4
ATOM      4  C   LIG    1       -3.158  -1.482  -1.319  0.00  0.00    +0.050 C 
ATOM      5  C   LIG    1       -4.100  -0.697  -0.405  0.00  0.00    +0.090 C 
ATOM      6  C   LIG    1       -3.003  -2.909  -0.789  0.00  0.00    +0.090 C 
BRANCH   4   8
ATOM      7  C   LIG    1       -5.106  -2.208  -2.705  0.00  0.00    +0.060 C 
ATOM      8  C   LIG    1       -3.738  -1.524  -2.735  0.00  0.00    +0.040 C 
ENDBRANCH   4   8
ENDBRANCH   1   4
BRANCH   1   9
ATOM      9  C   LIG    1       -1.287  -0.785   0.011  0.00  0.00    +0.320 C 
BRANCH   9  10
ATOM     10  C   LIG    1        0.002  -0.004   0.002  0.00  0.00    -0.220 A 
ATOM     11  C   LIG    1        1.222  -0.663  -0.013  0.00  0.00    +0.110 A 
ATOM     12  C   LIG    1        2.382   0.096  -0.020  0.00  0.00    -0.020 A 
ATOM     13  C   LIG    1        2.285   1.475  -0.012  0.00  0.00    +0.310 A 
ATOM     14  N   LIG    1        1.107   2.068   0.003  0.00  0.00    -0.480 NA
ATOM     15  C   LIG    1       -0.017   1.378   0.010  0.00  0.00    +0.160 A 
ATOM     16  C   LIG    1       -1.337   2.105   0.020  0.00  0.00    +0.130 C 
ENDBRANCH   9  10
ENDBRANCH   1   9
TORSDOF 4
