REMARK  Name = ZINCqH00000098jY.0
REMARK                            x       y       z     vdW  Elec       q    Type
REMARK                         _______ _______ _______ _____ _____    ______ ____
ROOT
ATOM      1  C   LIG    1        1.490  -2.474  -1.420  0.00  0.00    +0.070 C 
ATOM      2  C   LIG    1        1.709  -1.885  -0.025  0.00  0.00    +0.380 C 
ENDROOT
BRANCH   2   3
ATOM      3  C   LIG    1        1.264  -0.445  -0.012  0.00  0.00    +0.180 A 
ATOM      4  N   LIG    1        2.041   0.610  -0.014  0.00  0.00    -0.460 NA
ATOM      5  C   LIG    1        1.208   1.675  -0.001  0.00  0.00    +0.220 A 
ATOM      6  N   LIG    1       -0.014   1.209   0.009  0.00  0.00    -0.370 NA
ATOM      7  O   LIG    1        0.002  -0.004   0.002  0.00  0.00    +0.090 OA
BRANCH   5   8
ATOM      8  C   LIG    1        1.605   3.104   0.004  0.00  0.00    -0.040 A 
ATOM      9  C   LIG    1        2.954   3.454  -0.002  0.00  0.00    +0.110 A 
ATOM     10  C   LIG    1        3.319   4.785  -0.003  0.00  0.00    -0.010 A 
ATOM     11  C   LIG    1        2.347   5.772   0.013  0.00  0.00    +0.120 A 
ATOM     12  C   LIG    1        1.005   5.428   0.024  0.00  0.00    -0.010 A 
ATOM     13  F   LIG    1        2.709   7.074   0.017  0.00  0.00    -0.130 F 
ATOM     14  C   LIG    1        0.631   4.101   0.019  0.00  0.00    +0.090 A 
ENDBRANCH   5   8
ENDBRANCH   2   3
BRANCH   2  15
ATOM     15  N   LIG    1        0.930  -2.645   0.955  0.00  0.00    -0.730 N 
ATOM     16  H   LIG    1        0.048  -2.338   1.217  0.00  0.00    +0.410 HD
ATOM     17  C   LIG    1        1.438  -3.772   1.492  0.00  0.00    +0.520 C 
ATOM     18  O   LIG    1        2.541  -4.156   1.164  0.00  0.00    -0.530 OA
BRANCH  17  19
ATOM     19  C   LIG    1        0.637  -4.554   2.500  0.00  0.00    +0.090 C 
BRANCH  19  20
ATOM     20  C   LIG    1        1.437  -5.779   2.948  0.00  0.00    +0.060 C 
BRANCH  20  21
ATOM     21  C   LIG    1        0.635  -6.562   3.956  0.00  0.00    +0.430 C 
ATOM     22  O   LIG    1       -0.469  -6.177   4.284  0.00  0.00    -0.450 OA
BRANCH  21  23
ATOM     23  C   LIG    1        1.168  -7.742   4.519  0.00  0.00    -0.320 A 
ATOM     24  C   LIG    1        0.539  -8.539   5.442  0.00  0.00    +0.110 A 
ATOM     25  C   LIG    1        1.287  -9.625   5.819  0.00  0.00    -0.010 A 
ATOM     26  C   LIG    1        2.487  -9.723   5.230  0.00  0.00    -0.050 A 
ATOM     27  S   LIG    1        2.742  -8.432   4.144  0.00  0.00    +0.240 S 
ENDBRANCH  21  23
ENDBRANCH  20  21
ENDBRANCH  19  20
ENDBRANCH  17  19
ENDBRANCH   2  15
TORSDOF 7
