REMARK  Name = ZINCrH000004uyED.0
REMARK                            x       y       z     vdW  Elec       q    Type
REMARK                         _______ _______ _______ _____ _____    ______ ____
ROOT
ATOM      1  O   LIG    1       -0.372   1.653  -0.678  0.00  0.00    -0.520 OA
ATOM      2  C   LIG    1       -1.293   1.760   0.103  0.00  0.00    +0.530 C 
ATOM      3  N   LIG    1       -1.302   2.767   1.000  0.00  0.00    -0.730 N 
ATOM      4  H   LIG    1       -2.070   2.895   1.578  0.00  0.00    +0.400 HD
ENDROOT
BRANCH   2   5
ATOM      5  C   LIG    1       -2.427   0.769   0.072  0.00  0.00    -0.030 C 
ATOM      6  C   LIG    1       -2.258  -0.166  -1.129  0.00  0.00    +0.040 C 
ATOM      7  C   LIG    1       -2.340   0.657  -2.419  0.00  0.00    +0.220 C 
ATOM      8  O   LIG    1       -3.588   1.351  -2.463  0.00  0.00    -0.380 OA
ATOM      9  C   LIG    1       -3.781   2.273  -1.388  0.00  0.00    +0.210 C 
ATOM     10  C   LIG    1       -3.758   1.516  -0.058  0.00  0.00    +0.020 C 
BRANCH   5  11
ATOM     11  C   LIG    1       -2.425  -0.039   1.345  0.00  0.00    -0.080 A 
ATOM     12  C   LIG    1       -3.499   0.034   2.212  0.00  0.00    +0.010 A 
ATOM     13  C   LIG    1       -3.500  -0.711   3.376  0.00  0.00    +0.000 A 
ATOM     14  C   LIG    1       -2.421  -1.522   3.678  0.00  0.00    +0.000 A 
ATOM     15  C   LIG    1       -1.345  -1.591   2.814  0.00  0.00    +0.010 A 
ATOM     16  C   LIG    1       -1.347  -0.850   1.647  0.00  0.00    +0.010 A 
ENDBRANCH   5  11
ENDBRANCH   2   5
BRANCH   3  17
ATOM     17  C   LIG    1       -0.148   3.664   1.106  0.00  0.00    +0.410 C 
BRANCH  17  18
ATOM     18  C   LIG    1       -0.407   4.690   2.179  0.00  0.00    -0.050 A 
ATOM     19  C   LIG    1       -0.105   4.578   3.492  0.00  0.00    -0.010 A 
ATOM     20  C   LIG    1       -0.550   5.808   4.052  0.00  0.00    +0.060 A 
ATOM     21  N   LIG    1       -1.059   6.496   3.060  0.00  0.00    -0.350 NA
ATOM     22  O   LIG    1       -0.985   5.888   2.017  0.00  0.00    +0.120 OA
BRANCH  20  23
ATOM     23  C   LIG    1       -0.463   6.225   5.474  0.00  0.00    -0.030 A 
ATOM     24  C   LIG    1        0.105   5.372   6.418  0.00  0.00    +0.040 A 
ATOM     25  C   LIG    1        0.189   5.767   7.738  0.00  0.00    +0.010 A 
ATOM     26  C   LIG    1       -0.299   7.002   8.126  0.00  0.00    +0.020 A 
ATOM     27  C   LIG    1       -0.869   7.850   7.193  0.00  0.00    +0.010 A 
ATOM     28  C   LIG    1       -0.953   7.468   5.870  0.00  0.00    +0.040 A 
ENDBRANCH  20  23
ENDBRANCH  17  18
ENDBRANCH   3  17
TORSDOF 5
