REMARK  Name = ZINCrD000000A7cY.0
REMARK                            x       y       z     vdW  Elec       q    Type
REMARK                         _______ _______ _______ _____ _____    ______ ____
ROOT
ATOM      1  C   LIG    1       -2.317   4.486   0.049  0.00  0.00    +0.530 C 
ATOM      2  N   LIG    1       -1.087   3.936   0.101  0.00  0.00    -0.610 N 
ATOM      3  C   LIG    1       -0.532   3.465   1.377  0.00  0.00    +0.280 C 
ATOM      4  C   LIG    1        0.838   4.117   1.589  0.00  0.00    +0.010 C 
ATOM      5  C   LIG    1        1.726   3.836   0.375  0.00  0.00    +0.030 C 
ATOM      6  C   LIG    1        1.089   4.445  -0.876  0.00  0.00    +0.030 C 
ATOM      7  C   LIG    1       -0.277   3.796  -1.117  0.00  0.00    +0.280 C 
ATOM      8  O   LIG    1       -3.013   4.511   1.041  0.00  0.00    -0.530 OA
ENDROOT
BRANCH   1  15
ATOM      9  O   LIG    1       -4.061   8.717  -1.723  0.00  0.00    -0.540 OA
ATOM     10  C   LIG    1       -4.508   7.906  -2.506  0.00  0.00    +0.550 C 
ATOM     11  N   LIG    1       -4.472   6.592  -2.210  0.00  0.00    -0.610 N 
ATOM     12  C   LIG    1       -5.008   5.597  -3.149  0.00  0.00    +0.260 C 
ATOM     13  C   LIG    1       -3.927   4.548  -3.426  0.00  0.00    +0.020 C 
ATOM     14  C   LIG    1       -3.439   3.961  -2.100  0.00  0.00    +0.040 C 
ATOM     15  C   LIG    1       -2.826   5.071  -1.244  0.00  0.00    -0.020 C 
ATOM     16  C   LIG    1       -3.894   6.126  -0.941  0.00  0.00    +0.310 C 
BRANCH  10  17
ATOM     17  C   LIG    1       -5.103   8.368  -3.811  0.00  0.00    -0.070 C 
ATOM     18  C   LIG    1       -4.151   8.961  -4.852  0.00  0.00    +0.060 C 
ATOM     19  C   LIG    1       -5.115   9.872  -4.089  0.00  0.00    +0.060 C 
ENDBRANCH  10  17
ENDBRANCH   1  15
BRANCH   6  20
ATOM     20  C   LIG    1        1.980   4.196  -2.066  0.00  0.00    -0.060 A 
ATOM     21  C   LIG    1        2.288   2.901  -2.439  0.00  0.00    +0.040 A 
ATOM     22  C   LIG    1        3.102   2.670  -3.532  0.00  0.00    +0.030 A 
ATOM     23  C   LIG    1        3.617   3.736  -4.249  0.00  0.00    +0.070 A 
ATOM     24  C   LIG    1        3.312   5.035  -3.872  0.00  0.00    +0.070 A 
ATOM     25  F   LIG    1        3.814   6.077  -4.570  0.00  0.00    -0.130 F 
ATOM     26  F   LIG    1        4.416   3.511  -5.315  0.00  0.00    -0.130 F 
ATOM     27  C   LIG    1        2.494   5.263  -2.780  0.00  0.00    +0.030 A 
ENDBRANCH   6  20
TORSDOF 3
