REMARK  Name = ZINCrD0000073sXC.0
REMARK                            x       y       z     vdW  Elec       q    Type
REMARK                         _______ _______ _______ _____ _____    ______ ____
ROOT
ATOM      1  C   LIG    1        0.002  -0.004   0.002  0.00  0.00    +0.130 C 
ENDROOT
BRANCH   1   2
ATOM      2  C   LIG    1       -0.018   1.503   0.010  0.00  0.00    +0.470 C 
ATOM      3  O   LIG    1       -1.073   2.093   0.018  0.00  0.00    -0.500 OA
BRANCH   2   4
ATOM      4  O   LIG    1        1.135   2.190   0.003  0.00  0.00    -0.360 OA
BRANCH   4   5
ATOM      5  C   LIG    1        1.039   3.639   0.012  0.00  0.00    +0.300 C 
BRANCH   5  12
ATOM      6  C   LIG    1        2.587   5.611   0.007  0.00  0.00    +0.130 A 
ATOM      7  C   LIG    1        3.862   6.157  -0.001  0.00  0.00    -0.040 A 
ATOM      8  C   LIG    1        4.968   5.328  -0.016  0.00  0.00    +0.030 A 
ATOM      9  C   LIG    1        4.803   3.954  -0.021  0.00  0.00    +0.060 A 
ATOM     10  C   LIG    1        3.531   3.407  -0.008  0.00  0.00    +0.060 A 
ATOM     11  F   LIG    1        5.885   3.144  -0.035  0.00  0.00    -0.140 F 
ATOM     12  C   LIG    1        2.424   4.233   0.002  0.00  0.00    -0.100 A 
BRANCH   6  14
ATOM     13  C   LIG    1        1.742   7.833   0.028  0.00  0.00    +0.250 C 
ATOM     14  O   LIG    1        1.499   6.425   0.022  0.00  0.00    -0.310 OA
ENDBRANCH   6  14
ENDBRANCH   5  12
ENDBRANCH   4   5
ENDBRANCH   2   4
ENDBRANCH   1   2
BRANCH   1  15
ATOM     15  C   LIG    1       -1.433  -0.534   0.013  0.00  0.00    +0.060 C 
BRANCH  15  16
ATOM     16  C   LIG    1       -1.413  -2.041   0.005  0.00  0.00    +0.400 C 
ATOM     17  O   LIG    1       -0.354  -2.633  -0.009  0.00  0.00    -0.450 OA
BRANCH  16  18
ATOM     18  C   LIG    1       -2.675  -2.792   0.013  0.00  0.00    -0.170 A 
ATOM     19  C   LIG    1       -3.897  -2.111   0.034  0.00  0.00    +0.090 A 
ATOM     20  C   LIG    1       -5.078  -2.820   0.037  0.00  0.00    +0.010 A 
ATOM     21  C   LIG    1       -5.062  -4.210   0.031  0.00  0.00    +0.090 A 
ATOM     22  O   LIG    1       -6.240  -4.887   0.044  0.00  0.00    -0.300 OA
ATOM     23  C   LIG    1       -6.196  -6.265  -0.343  0.00  0.00    +0.230 C 
ATOM     24  C   LIG    1       -5.020  -6.931   0.385  0.00  0.00    +0.230 C 
ATOM     25  O   LIG    1       -3.817  -6.256   0.002  0.00  0.00    -0.300 OA
ATOM     26  C   LIG    1       -3.848  -4.895   0.014  0.00  0.00    +0.040 A 
ATOM     27  C   LIG    1       -2.659  -4.192   0.005  0.00  0.00    +0.100 A 
ENDBRANCH  16  18
ENDBRANCH  15  16
ENDBRANCH   1  15
TORSDOF 8
