REMARK  Name = ZINCnE00000rhmBt.1
REMARK                            x       y       z     vdW  Elec       q    Type
REMARK                         _______ _______ _______ _____ _____    ______ ____
ROOT
ATOM      1  C   LIG    1       -6.278   1.667  -0.662  0.00  0.00    +0.110 C 
ATOM      2  C   LIG    1       -6.113   3.109  -0.255  0.00  0.00    -0.300 A 
ATOM      3  C   LIG    1       -4.953   3.710   0.065  0.00  0.00    +0.120 A 
ATOM      4  N   LIG    1       -5.048   4.992   0.389  0.00  0.00    -0.540 NA
ATOM      5  C   LIG    1       -6.233   5.519   0.367  0.00  0.00    +0.380 A 
ATOM      6  S   LIG    1       -7.407   4.297  -0.112  0.00  0.00    +0.000 S 
ENDROOT
BRANCH   3   7
ATOM      7  C   LIG    1       -3.656   2.990   0.051  0.00  0.00    -0.010 A 
ATOM      8  C   LIG    1       -3.598   1.649   0.427  0.00  0.00    +0.050 A 
ATOM      9  C   LIG    1       -2.392   0.981   0.413  0.00  0.00    -0.020 A 
ATOM     10  C   LIG    1       -1.235   1.644   0.017  0.00  0.00    +0.140 A 
ATOM     11  N   LIG    1       -0.011   0.966   0.007  0.00  0.00    -0.660 N 
ATOM     12  H   LIG    1        0.002  -0.004   0.002  0.00  0.00    +0.410 HD
ATOM     13  C   LIG    1        1.148   1.649   0.000  0.00  0.00    +0.520 C 
ATOM     14  C   LIG    1        1.154   3.154   0.026  0.00  0.00    +0.070 C 
ATOM     15  C   LIG    1       -0.031   3.694  -0.775  0.00  0.00    +0.090 C 
ATOM     16  O   LIG    1        2.199   1.046  -0.028  0.00  0.00    -0.540 OA
ATOM     17  C   LIG    1       -1.290   2.981  -0.353  0.00  0.00    -0.130 A 
ATOM     18  C   LIG    1       -2.494   3.653  -0.340  0.00  0.00    +0.090 A 
ENDBRANCH   3   7
BRANCH   5  19
ATOM     19  N   LIG    1       -6.529   6.841   0.674  0.00  0.00    -0.640 NA
ATOM     20  C   LIG    1       -7.804   7.276   0.617  0.00  0.00    +0.430 C 
ATOM     21  O   LIG    1       -8.691   6.514   0.297  0.00  0.00    -0.570 OA
BRANCH  20  22
ATOM     22  C   LIG    1       -8.126   8.710   0.950  0.00  0.00    +0.320 C 
ATOM     23 CL   LIG    1       -9.874   9.021   0.642  0.00  0.00    -0.160 Cl
ATOM     24  F   LIG    1       -7.353   9.560   0.151  0.00  0.00    -0.170 F 
ENDBRANCH  20  22
ENDBRANCH   5  19
TORSDOF 3
