REMARK  Name = ZINCpe000000W2Ih.0
REMARK                            x       y       z     vdW  Elec       q    Type
REMARK                         _______ _______ _______ _____ _____    ______ ____
ROOT
ATOM      1  C   LIG    1       -1.973   4.031   4.347  0.00  0.00    +0.460 A 
ATOM      2  C   LIG    1       -2.302   3.253   3.219  0.00  0.00    -0.100 A 
ATOM      3  N   LIG    1       -3.158   2.240   2.997  0.00  0.00    -0.170 NA
ATOM      4  N   LIG    1       -3.090   1.865   1.768  0.00  0.00    +0.020 NA
ATOM      5  N   LIG    1       -2.137   2.644   1.095  0.00  0.00    -0.370 N 
ATOM      6  C   LIG    1       -1.637   3.528   2.011  0.00  0.00    +0.310 A 
ATOM      7  N   LIG    1       -0.731   4.501   1.977  0.00  0.00    -0.520 NA
ATOM      8  C   LIG    1       -0.457   5.201   3.057  0.00  0.00    +0.580 A 
ATOM      9  N   LIG    1       -1.054   4.981   4.214  0.00  0.00    -0.560 NA
ENDROOT
BRANCH   1  14
ATOM     10  C   LIG    1       -1.714   3.045   6.469  0.00  0.00    +0.200 C 
ATOM     11  C   LIG    1       -1.541   3.883   7.753  0.00  0.00    +0.060 C 
ATOM     12  C   LIG    1       -2.782   4.814   7.734  0.00  0.00    +0.180 C 
ATOM     13  C   LIG    1       -2.944   5.088   6.218  0.00  0.00    +0.190 C 
ATOM     14  N   LIG    1       -2.590   3.810   5.563  0.00  0.00    -0.460 N 
BRANCH  12  15
ATOM     15  O   LIG    1       -2.526   6.024   8.449  0.00  0.00    -0.550 OA
ATOM     16  H   LIG    1       -3.273   6.638   8.464  0.00  0.00    +0.380 HD
ENDBRANCH  12  15
BRANCH  10  17
ATOM     17  C   LIG    1       -0.355   2.814   5.807  0.00  0.00    +0.150 C 
BRANCH  17  19
ATOM     18  C   LIG    1        1.810   1.861   6.193  0.00  0.00    +0.200 C 
ATOM     19  O   LIG    1        0.506   2.123   6.715  0.00  0.00    -0.380 OA
ENDBRANCH  17  19
ENDBRANCH  10  17
ENDBRANCH   1  14
BRANCH   5  20
ATOM     20  C   LIG    1       -1.755   2.537  -0.315  0.00  0.00    +0.400 C 
BRANCH  20  21
ATOM     21  C   LIG    1       -0.609   1.568  -0.453  0.00  0.00    -0.130 A 
ATOM     22  C   LIG    1        0.694   2.023  -0.380  0.00  0.00    +0.040 A 
ATOM     23  C   LIG    1        1.745   1.135  -0.514  0.00  0.00    +0.010 A 
ATOM     24  C   LIG    1        1.493  -0.208  -0.718  0.00  0.00    +0.030 A 
ATOM     25  C   LIG    1        0.190  -0.664  -0.790  0.00  0.00    +0.010 A 
ATOM     26  C   LIG    1       -0.861   0.224  -0.658  0.00  0.00    +0.040 A 
ENDBRANCH  20  21
ENDBRANCH   5  20
TORSDOF 6
