REMARK  Name = ZINCrD0000073lbS.0
REMARK                            x       y       z     vdW  Elec       q    Type
REMARK                         _______ _______ _______ _____ _____    ______ ____
ROOT
ATOM      1  C   LIG    1       -1.216   3.391   0.045  0.00  0.00    +0.200 A 
ATOM      2  N   LIG    1       -1.169   2.076   0.019  0.00  0.00    -0.440 NA
ATOM      3  C   LIG    1       -0.017   1.403  -0.004  0.00  0.00    +0.130 A 
ATOM      4  C   LIG    1        0.002  -0.004  -0.025  0.00  0.00    +0.050 A 
ATOM      5  C   LIG    1        1.193  -0.662  -0.054  0.00  0.00    +0.040 A 
ATOM      6  C   LIG    1        2.399   0.034  -0.063  0.00  0.00    +0.030 A 
ATOM      7  C   LIG    1        2.420   1.397  -0.043  0.00  0.00    +0.050 A 
ATOM      8  C   LIG    1        1.214   2.106  -0.013  0.00  0.00    -0.060 A 
ATOM      9  C   LIG    1        1.187   3.569   0.010  0.00  0.00    -0.070 A 
ATOM     10  C   LIG    1       -0.057   4.183   0.038  0.00  0.00    +0.070 A 
ENDROOT
BRANCH   1  14
ATOM     11  C   LIG    1       -5.010   5.308   0.135  0.00  0.00    +0.150 A 
ATOM     12  C   LIG    1       -4.935   3.922   0.112  0.00  0.00    -0.020 A 
ATOM     13  C   LIG    1       -3.706   3.297   0.083  0.00  0.00    +0.110 A 
ATOM     14  C   LIG    1       -2.538   4.059   0.076  0.00  0.00    -0.100 A 
ATOM     15  C   LIG    1       -2.617   5.451   0.105  0.00  0.00    +0.080 A 
ATOM     16  C   LIG    1       -3.849   6.070   0.128  0.00  0.00    -0.080 A 
BRANCH  11  18
ATOM     17  C   LIG    1       -6.227   7.349   0.185  0.00  0.00    +0.240 C 
ATOM     18  O   LIG    1       -6.222   5.921   0.163  0.00  0.00    -0.310 OA
ENDBRANCH  11  18
ENDBRANCH   1  14
BRANCH   9  19
ATOM     19  C   LIG    1        2.435   4.361   0.003  0.00  0.00    +0.510 C 
ATOM     20  O   LIG    1        3.510   3.801   0.081  0.00  0.00    -0.470 OA
BRANCH  19  21
ATOM     21  O   LIG    1        2.381   5.703  -0.091  0.00  0.00    -0.320 OA
BRANCH  21  22
ATOM     22  C   LIG    1        3.646   6.416  -0.092  0.00  0.00    +0.160 C 
ATOM     23  C   LIG    1        3.517   7.740  -0.877  0.00  0.00    +0.070 C 
ATOM     24  C   LIG    1        3.824   8.810   0.196  0.00  0.00    +0.260 C 
ATOM     25  O   LIG    1        3.659   8.125   1.474  0.00  0.00    -0.340 OA
ATOM     26  C   LIG    1        4.016   6.837   1.315  0.00  0.00    +0.470 C 
ATOM     27  O   LIG    1        4.541   6.139   2.149  0.00  0.00    -0.410 OA
ENDBRANCH  21  22
ENDBRANCH  19  21
ENDBRANCH   9  19
TORSDOF 5
