REMARK  Name = ZINCrg000015psH0.0
REMARK                            x       y       z     vdW  Elec       q    Type
REMARK                         _______ _______ _______ _____ _____    ______ ____
ROOT
ATOM      1  S   LIG    1       -0.080   6.029   0.035  0.00  0.00    +2.690 S 
ATOM      2  O   LIG    1        1.170   6.444   0.570  0.00  0.00    -0.940 OA
ATOM      3  O   LIG    1       -1.329   6.410   0.593  0.00  0.00    -0.940 OA
ENDROOT
BRANCH   1  11
ATOM      4  O   LIG    1       -4.146   4.499  -2.657  0.00  0.00    -0.920 OA
ATOM      5  S   LIG    1       -3.801   5.868  -2.820  0.00  0.00    +2.390 S 
ATOM      6  C   LIG    1       -2.646   6.041  -4.240  0.00  0.00    -0.280 C 
ATOM      7  C   LIG    1       -1.280   5.881  -3.551  0.00  0.00    +0.160 C 
ATOM      8  O   LIG    1       -0.172   6.321  -4.319  0.00  0.00    -0.340 OA
ATOM      9  C   LIG    1        1.078   6.069  -3.658  0.00  0.00    +0.220 C 
ATOM     10  C   LIG    1        1.140   6.788  -2.305  0.00  0.00    +0.290 C 
ATOM     11  N   LIG    1       -0.102   6.528  -1.544  0.00  0.00    -0.990 NA
ATOM     12  C   LIG    1       -1.349   6.745  -2.274  0.00  0.00    +0.250 C 
ATOM     13  O   LIG    1       -4.822   6.850  -2.921  0.00  0.00    -0.910 OA
ATOM     14  C   LIG    1       -2.614   6.356  -1.508  0.00  0.00    -0.300 C 
ENDBRANCH   1  11
BRANCH   1  15
ATOM     15  C   LIG    1       -0.056   4.267   0.025  0.00  0.00    -0.660 A 
ATOM     16  C   LIG    1        1.151   3.592   0.010  0.00  0.00    +0.130 A 
ATOM     17  C   LIG    1        1.169   2.210   0.003  0.00  0.00    +0.060 A 
ATOM     18  C   LIG    1       -0.018   1.503   0.010  0.00  0.00    -0.040 A 
ATOM     19  C   LIG    1       -1.225   2.178   0.020  0.00  0.00    +0.060 A 
ATOM     20  C   LIG    1       -1.244   3.560   0.032  0.00  0.00    +0.120 A 
BRANCH  18  21
ATOM     21  C   LIG    1        0.002  -0.004   0.002  0.00  0.00    -0.010 C 
ATOM     22  N   LIG    1        0.622  -0.691  -1.134  0.00  0.00    -0.050 NA
ATOM     23  N   LIG    1       -0.620  -0.707  -1.123  0.00  0.00    -0.050 NA
BRANCH  21  24
ATOM     24  C   LIG    1        0.024  -0.687   1.371  0.00  0.00    +0.510 C 
ATOM     25  F   LIG    1        1.168  -0.290   2.072  0.00  0.00    -0.150 F 
ATOM     26  F   LIG    1        0.042  -2.075   1.199  0.00  0.00    -0.170 F 
ATOM     27  F   LIG    1       -1.116  -0.321   2.093  0.00  0.00    -0.150 F 
ENDBRANCH  21  24
ENDBRANCH  18  21
ENDBRANCH   1  15
TORSDOF 4
