REMARK  Name = ZINCpk00000y6z3W.2
REMARK                            x       y       z     vdW  Elec       q    Type
REMARK                         _______ _______ _______ _____ _____    ______ ____
ROOT
ATOM      1  C   LIG    1       -1.659   8.528   0.067  0.00  0.00    +0.260 C 
ENDROOT
BRANCH   1   7
ATOM      2  C   LIG    1        1.510   8.551   0.038  0.00  0.00    +0.160 C 
ATOM      3  C   LIG    1        0.634   7.324   0.038  0.00  0.00    +0.110 A 
ATOM      4  N   LIG    1        1.052   6.084   0.033  0.00  0.00    -0.290 NA
ATOM      5  N   LIG    1       -0.069   5.244   0.032  0.00  0.00    -0.320 N 
ATOM      6  C   LIG    1       -1.173   6.025   0.047  0.00  0.00    +0.230 A 
ATOM      7  C   LIG    1       -0.765   7.315   0.051  0.00  0.00    -0.220 A 
BRANCH   5   8
ATOM      8  C   LIG    1       -0.050   3.842   0.024  0.00  0.00    +0.160 A 
ATOM      9  C   LIG    1        1.161   3.163   0.008  0.00  0.00    +0.020 A 
ATOM     10  C   LIG    1        1.176   1.782   0.000  0.00  0.00    +0.040 A 
ATOM     11  C   LIG    1       -0.013   1.076   0.008  0.00  0.00    +0.000 A 
ATOM     12  C   LIG    1       -1.220   1.750   0.017  0.00  0.00    +0.040 A 
ATOM     13  C   LIG    1       -1.242   3.130   0.031  0.00  0.00    -0.010 A 
ENDBRANCH   5   8
ENDBRANCH   1   7
BRANCH   1  14
ATOM     14  N   LIG    1       -1.769   9.072  -1.293  0.00  0.00    -0.510 NA
ATOM     15  C   LIG    1       -2.550   8.172  -2.162  0.00  0.00    +0.200 C 
ATOM     16  C   LIG    1       -3.727   8.992  -2.730  0.00  0.00    -0.020 C 
ATOM     17  C   LIG    1       -3.226  10.455  -2.604  0.00  0.00    +0.120 C 
ATOM     18  C   LIG    1       -2.422  10.399  -1.282  0.00  0.00    +0.220 C 
BRANCH  17  19
ATOM     19  O   LIG    1       -2.381  10.803  -3.703  0.00  0.00    -0.530 OA
ATOM     20  H   LIG    1       -2.818  10.758  -4.565  0.00  0.00    +0.390 HD
ENDBRANCH  17  19
BRANCH  17  21
ATOM     21  C   LIG    1       -4.401  11.429  -2.491  0.00  0.00    +0.320 C 
BRANCH  21  22
ATOM     22  N   LIG    1       -5.288  11.261  -3.645  0.00  0.00    -0.290 N 
ATOM     23  C   LIG    1       -6.615  11.001  -3.594  0.00  0.00    +0.140 A 
ATOM     24  C   LIG    1       -7.034  10.925  -4.879  0.00  0.00    +0.140 A 
ATOM     25  N   LIG    1       -5.957  11.140  -5.643  0.00  0.00    -0.260 NA
ATOM     26  N   LIG    1       -4.940  11.341  -4.881  0.00  0.00    -0.090 NA
ENDBRANCH  21  22
ENDBRANCH  17  21
ENDBRANCH   1  14
TORSDOF 6
