REMARK  Name = ZINCrH000004tVSC.0
REMARK                            x       y       z     vdW  Elec       q    Type
REMARK                         _______ _______ _______ _____ _____    ______ ____
ROOT
ATOM      1  C   LIG    1        2.511   0.344   0.601  0.00  0.00    -0.090 A 
ATOM      2  C   LIG    1        1.401  -0.459   0.406  0.00  0.00    +0.020 A 
ATOM      3  C   LIG    1        0.158   0.110   0.218  0.00  0.00    +0.040 A 
ATOM      4  C   LIG    1        0.022   1.499   0.226  0.00  0.00    -0.120 A 
ATOM      5  C   LIG    1        1.146   2.303   0.424  0.00  0.00    +0.070 A 
ATOM      6  C   LIG    1        2.383   1.721   0.610  0.00  0.00    +0.020 A 
ENDROOT
BRANCH   4   7
ATOM      7  C   LIG    1       -1.305   2.116   0.020  0.00  0.00    +0.550 C 
ATOM      8  N   LIG    1       -2.409   1.522   0.515  0.00  0.00    -0.600 N 
ATOM      9  C   LIG    1       -2.280   0.217   1.123  0.00  0.00    +0.260 C 
ATOM     10  C   LIG    1       -2.454  -0.881   0.053  0.00  0.00    +0.010 C 
ATOM     11  C   LIG    1       -3.857  -0.952  -0.382  0.00  0.00    +0.000 C 
ATOM     12  C   LIG    1       -4.373   0.317  -1.053  0.00  0.00    +0.010 C 
ATOM     13  C   LIG    1       -4.847   1.284   0.004  0.00  0.00    +0.020 C 
ATOM     14  C   LIG    1       -3.701   2.229   0.409  0.00  0.00    +0.270 C 
ATOM     15  O   LIG    1       -1.401   3.160  -0.597  0.00  0.00    -0.530 OA
ENDBRANCH   4   7
BRANCH   1  16
ATOM     16  C   LIG    1        3.865  -0.285   0.806  0.00  0.00    +0.320 C 
BRANCH  16  19
ATOM     17  O   LIG    1        6.314  -1.356   0.463  0.00  0.00    -0.530 OA
ATOM     18  C   LIG    1        5.753  -1.008  -0.554  0.00  0.00    +0.510 C 
ATOM     19  N   LIG    1        4.523  -0.461  -0.491  0.00  0.00    -0.730 N 
ATOM     20  H   LIG    1        4.074  -0.182  -1.304  0.00  0.00    +0.400 HD
BRANCH  18  21
ATOM     21  C   LIG    1        6.430  -1.189  -1.888  0.00  0.00    +0.120 C 
BRANCH  21  22
ATOM     22  C   LIG    1        7.784  -1.817  -1.684  0.00  0.00    -0.080 A 
ATOM     23  C   LIG    1        8.895  -1.018  -1.494  0.00  0.00    +0.050 A 
ATOM     24  C   LIG    1       10.137  -1.593  -1.300  0.00  0.00    -0.010 A 
ATOM     25  C   LIG    1       10.269  -2.972  -1.308  0.00  0.00    +0.100 A 
ATOM     26  C   LIG    1        9.156  -3.772  -1.504  0.00  0.00    -0.010 A 
ATOM     27  F   LIG    1       11.483  -3.535  -1.126  0.00  0.00    -0.140 F 
ATOM     28  C   LIG    1        7.914  -3.194  -1.692  0.00  0.00    +0.050 A 
ENDBRANCH  21  22
ENDBRANCH  18  21
ENDBRANCH  16  19
ENDBRANCH   1  16
TORSDOF 5
