REMARK  Name = ZINCpk000000nOkv.0
REMARK                            x       y       z     vdW  Elec       q    Type
REMARK                         _______ _______ _______ _____ _____    ______ ____
ROOT
ATOM      1  C   LIG    1       -0.774   1.568  -1.233  0.00  0.00    +0.050 C 
ATOM      2  C   LIG    1        0.010   1.053  -0.015  0.00  0.00    +0.290 C 
ATOM      3  N   LIG    1       -0.756   1.498   1.153  0.00  0.00    -0.550 N 
ATOM      4  C   LIG    1       -1.889   2.208   0.738  0.00  0.00    +0.140 A 
ATOM      5  C   LIG    1       -2.889   2.806   1.508  0.00  0.00    -0.030 A 
ATOM      6  C   LIG    1       -3.934   3.466   0.898  0.00  0.00    +0.050 A 
ATOM      7  C   LIG    1       -4.000   3.542  -0.481  0.00  0.00    -0.010 A 
ATOM      8  C   LIG    1       -3.013   2.953  -1.250  0.00  0.00    +0.060 A 
ATOM      9  C   LIG    1       -0.418   1.257   2.435  0.00  0.00    +0.530 C 
ATOM     10  O   LIG    1        0.587   0.629   2.690  0.00  0.00    -0.510 OA
ATOM     11  C   LIG    1       -1.965   2.289  -0.643  0.00  0.00    -0.120 A 
ENDROOT
BRANCH   1  13
ATOM     12  C   LIG    1        1.394   1.848  -2.443  0.00  0.00    +0.020 C 
ATOM     13  C   LIG    1        0.085   2.535  -2.050  0.00  0.00    -0.010 C 
ATOM     14  C   LIG    1       -0.673   2.950  -3.312  0.00  0.00    +0.030 C 
ENDBRANCH   1  13
BRANCH   9  15
ATOM     15  C   LIG    1       -1.290   1.770   3.553  0.00  0.00    +0.320 C 
BRANCH  15  16
ATOM     16  N   LIG    1       -0.712   1.380   4.841  0.00  0.00    -1.110 NA
ATOM     17  H   LIG    1       -0.023   0.698   4.877  0.00  0.00    +0.430 HD
BRANCH  16  18
ATOM     18  S   LIG    1       -1.233   2.105   6.236  0.00  0.00    +2.730 S 
ATOM     19  O   LIG    1       -1.216   3.505   5.991  0.00  0.00    -0.950 OA
ATOM     20  O   LIG    1       -0.515   1.493   7.299  0.00  0.00    -0.950 OA
BRANCH  18  21
ATOM     21  C   LIG    1       -2.923   1.658   6.456  0.00  0.00    -0.820 A 
ATOM     22  C   LIG    1       -3.380   0.576   7.127  0.00  0.00    +0.370 A 
ATOM     23  N   LIG    1       -4.728   0.592   7.066  0.00  0.00    -0.360 N 
ATOM     24  N   LIG    1       -5.112   1.721   6.332  0.00  0.00    -0.290 NA
ATOM     25  C   LIG    1       -5.630  -0.397   7.661  0.00  0.00    +0.380 C 
ATOM     26  C   LIG    1       -4.030   2.363   5.972  0.00  0.00    +0.330 A 
ENDBRANCH  18  21
ENDBRANCH  16  18
ENDBRANCH  15  16
ENDBRANCH   9  15
TORSDOF 5
