REMARK  Name = ZINCrH000004mPaC.0
REMARK                            x       y       z     vdW  Elec       q    Type
REMARK                         _______ _______ _______ _____ _____    ______ ____
ROOT
ATOM      1  S   LIG    1        0.056  -1.123   3.847  0.00  0.00    -0.090 S 
ENDROOT
BRANCH   1   2
ATOM      2  C   LIG    1        0.060  -0.053   5.311  0.00  0.00    +0.070 C 
BRANCH   2   5
ATOM      3  N   LIG    1        0.080  -0.321   7.770  0.00  0.00    -0.670 N 
ATOM      4  H   LIG    1        0.142   0.644   7.845  0.00  0.00    +0.410 HD
ATOM      5  C   LIG    1        0.075  -0.904   6.555  0.00  0.00    +0.530 C 
ATOM      6  O   LIG    1        0.082  -2.113   6.463  0.00  0.00    -0.500 OA
BRANCH   3  10
ATOM      7  C   LIG    1       -0.170  -2.667  11.209  0.00  0.00    +0.120 A 
ATOM      8  C   LIG    1        0.522  -3.133  10.101  0.00  0.00    +0.010 A 
ATOM      9  C   LIG    1        0.605  -2.356   8.962  0.00  0.00    +0.070 A 
ATOM     10  C   LIG    1       -0.004  -1.109   8.926  0.00  0.00    +0.100 A 
ATOM     11  C   LIG    1       -0.692  -0.641  10.037  0.00  0.00    +0.030 A 
ATOM     12  C   LIG    1       -0.779  -1.420  11.174  0.00  0.00    -0.060 A 
BRANCH   7  14
ATOM     13  C   LIG    1       -0.980  -2.889  13.434  0.00  0.00    +0.250 C 
ATOM     14  O   LIG    1       -0.252  -3.431  12.330  0.00  0.00    -0.320 OA
ENDBRANCH   7  14
ENDBRANCH   3  10
ENDBRANCH   2   5
ENDBRANCH   1   2
BRANCH   1  15
ATOM     15  C   LIG    1        0.038   0.063   2.474  0.00  0.00    +0.070 C 
BRANCH  15  16
ATOM     16  C   LIG    1        0.033  -0.683   1.165  0.00  0.00    +0.530 C 
ATOM     17  N   LIG    1        0.020  -0.003   0.002  0.00  0.00    -0.610 N 
ATOM     18  C   LIG    1        0.011   1.462   0.010  0.00  0.00    +0.280 C 
ATOM     19  O   LIG    1        0.041  -1.896   1.159  0.00  0.00    -0.510 OA
BRANCH  17  20
ATOM     20  C   LIG    1        0.015  -0.729  -1.271  0.00  0.00    +0.350 C 
BRANCH  20  21
ATOM     21  C   LIG    1        1.434  -0.968  -1.718  0.00  0.00    -0.120 A 
ATOM     22  C   LIG    1        2.071  -0.039  -2.521  0.00  0.00    +0.030 A 
ATOM     23  C   LIG    1        3.373  -0.253  -2.928  0.00  0.00    -0.020 A 
ATOM     24  C   LIG    1        4.040  -1.408  -2.539  0.00  0.00    -0.080 A 
ATOM     25  C   LIG    1        3.395  -2.342  -1.737  0.00  0.00    +0.030 A 
ATOM     26  C   LIG    1        2.095  -2.119  -1.329  0.00  0.00    +0.070 A 
BRANCH  24  27
ATOM     27  S   LIG    1        5.699  -1.689  -3.062  0.00  0.00    -0.120 S 
ATOM     28  C   LIG    1        6.067  -0.218  -4.058  0.00  0.00    +0.120 C 
ENDBRANCH  24  27
ENDBRANCH  20  21
ENDBRANCH  17  20
ENDBRANCH  15  16
ENDBRANCH   1  15
TORSDOF 9
