REMARK  Name = ZINCqH0000008lQM.0
REMARK                            x       y       z     vdW  Elec       q    Type
REMARK                         _______ _______ _______ _____ _____    ______ ____
ROOT
ATOM      1  N   LIG    1       -6.446   7.269   0.075  0.00  0.00    -0.720 N 
ATOM      2  H   LIG    1       -5.685   7.870   0.074  0.00  0.00    +0.400 HD
ATOM      3  C   LIG    1       -6.251   5.935   0.066  0.00  0.00    +0.520 C 
ATOM      4  O   LIG    1       -7.203   5.183   0.068  0.00  0.00    -0.510 OA
ENDROOT
BRANCH   1   6
ATOM      5  C   LIG    1       -8.335   7.890  -1.349  0.00  0.00    +0.040 C 
ATOM      6  C   LIG    1       -7.807   7.810   0.085  0.00  0.00    +0.290 C 
BRANCH   6   7
ATOM      7  C   LIG    1       -7.795   9.189   0.693  0.00  0.00    -0.100 A 
ATOM      8  C   LIG    1       -6.767  10.066   0.401  0.00  0.00    +0.000 A 
ATOM      9  C   LIG    1       -6.761  11.326   0.963  0.00  0.00    +0.010 A 
ATOM     10  C   LIG    1       -7.779  11.721   1.821  0.00  0.00    -0.070 A 
ATOM     11  C   LIG    1       -7.703  13.105   2.411  0.00  0.00    +0.080 C 
ATOM     12  C   LIG    1       -9.063  13.531   2.960  0.00  0.00    +0.020 C 
ATOM     13  C   LIG    1       -9.583  12.421   3.881  0.00  0.00    +0.020 C 
ATOM     14  C   LIG    1       -9.947  11.212   3.022  0.00  0.00    +0.080 C 
ATOM     15  C   LIG    1       -8.806  10.848   2.108  0.00  0.00    -0.070 A 
ATOM     16  C   LIG    1       -8.812   9.582   1.539  0.00  0.00    +0.010 A 
ENDBRANCH   6   7
ENDBRANCH   1   6
BRANCH   3  17
ATOM     17  C   LIG    1       -4.851   5.378   0.056  0.00  0.00    +0.230 C 
BRANCH  17  18
ATOM     18  O   LIG    1       -4.906   3.950   0.048  0.00  0.00    -0.270 OA
BRANCH  18  19
ATOM     19  C   LIG    1       -3.720   3.287   0.038  0.00  0.00    +0.180 A 
ATOM     20  C   LIG    1       -3.700   1.900   0.030  0.00  0.00    +0.010 A 
ATOM     21  C   LIG    1       -2.493   1.228   0.021  0.00  0.00    +0.150 A 
ATOM     22  C   LIG    1       -1.306   1.936   0.019  0.00  0.00    -0.080 A 
ATOM     23  C   LIG    1       -1.323   3.319   0.032  0.00  0.00    +0.150 A 
ATOM     24  C   LIG    1       -2.528   3.996   0.036  0.00  0.00    -0.060 A 
BRANCH  22  25
ATOM     25  N   LIG    1       -0.014   1.214   0.009  0.00  0.00    +0.030 N 
ATOM     26  O   LIG    1        1.032   1.837   0.002  0.00  0.00    -0.160 OA
ATOM     27  O   LIG    1        0.002  -0.004   0.002  0.00  0.00    -0.160 OA
ENDBRANCH  22  25
ENDBRANCH  18  19
ENDBRANCH  17  18
ENDBRANCH   3  17
TORSDOF 6
