REMARK  Name = ZINCrg000000sA1v.0
REMARK                            x       y       z     vdW  Elec       q    Type
REMARK                         _______ _______ _______ _____ _____    ______ ____
ROOT
ATOM      1  C   LIG    1       -0.016   1.080   0.008  0.00  0.00    +0.370 C 
ENDROOT
BRANCH   1  11
ATOM      2  C   LIG    1        1.033   6.153  -2.120  0.00  0.00    +0.350 C 
ATOM      3  N   LIG    1        0.185   4.985  -2.367  0.00  0.00    -0.550 N 
ATOM      4  C   LIG    1        0.270   3.917  -1.547  0.00  0.00    +0.600 A 
ATOM      5  C   LIG    1       -0.554   2.796  -1.788  0.00  0.00    -0.140 A 
ATOM      6  C   LIG    1       -1.425   2.816  -2.870  0.00  0.00    +0.320 A 
ATOM      7  N   LIG    1       -1.465   3.943  -3.675  0.00  0.00    -0.510 N 
ATOM      8  C   LIG    1       -2.379   3.992  -4.819  0.00  0.00    +0.340 C 
ATOM      9  N   LIG    1       -2.074   1.649  -2.877  0.00  0.00    -0.490 NA
ATOM     10  C   LIG    1       -1.664   0.907  -1.880  0.00  0.00    +0.510 A 
ATOM     11  N   LIG    1       -0.723   1.568  -1.179  0.00  0.00    -0.400 N 
ATOM     12  O   LIG    1        1.044   3.921  -0.607  0.00  0.00    -0.510 OA
ATOM     13  C   LIG    1       -0.666   4.993  -3.408  0.00  0.00    +0.710 A 
ATOM     14  O   LIG    1       -0.716   5.973  -4.125  0.00  0.00    -0.530 OA
ENDBRANCH   1  11
BRANCH   1  15
ATOM     15  C   LIG    1       -0.717   1.573   1.248  0.00  0.00    +0.500 C 
ATOM     16  N   LIG    1       -0.242   1.246   2.466  0.00  0.00    -0.670 N 
ATOM     17  H   LIG    1        0.511   0.639   2.546  0.00  0.00    +0.420 HD
ATOM     18  O   LIG    1       -1.709   2.264   1.150  0.00  0.00    -0.490 OA
BRANCH  16  19
ATOM     19  C   LIG    1       -0.833   1.782   3.615  0.00  0.00    +0.180 A 
ATOM     20  C   LIG    1       -0.053   2.086   4.722  0.00  0.00    +0.000 A 
ATOM     21  C   LIG    1       -0.639   2.620   5.853  0.00  0.00    +0.090 A 
ATOM     22  C   LIG    1       -2.003   2.842   5.887  0.00  0.00    -0.200 A 
ATOM     23  C   LIG    1       -2.784   2.535   4.788  0.00  0.00    +0.090 A 
ATOM     24  C   LIG    1       -2.203   2.006   3.652  0.00  0.00    +0.030 A 
BRANCH  22  25
ATOM     25  C   LIG    1       -2.641   3.419   7.125  0.00  0.00    +0.510 C 
ATOM     26  F   LIG    1       -3.767   4.166   6.764  0.00  0.00    -0.180 F 
ATOM     27  F   LIG    1       -1.722   4.247   7.779  0.00  0.00    -0.180 F 
ATOM     28  F   LIG    1       -3.024   2.380   7.980  0.00  0.00    -0.180 F 
ENDBRANCH  22  25
ENDBRANCH  16  19
ENDBRANCH   1  15
TORSDOF 4
