REMARK  Name = ZINCvU0000000J5D.0
REMARK                            x       y       z     vdW  Elec       q    Type
REMARK                         _______ _______ _______ _____ _____    ______ ____
ROOT
ATOM      1  C   LIG    1       -3.714   6.587   1.623  0.00  0.00    -0.100 A 
ATOM      2  C   LIG    1       -4.932   6.882   1.008  0.00  0.00    +0.010 A 
ATOM      3  C   LIG    1       -5.122   6.582  -0.325  0.00  0.00    +0.060 A 
ATOM      4  C   LIG    1       -4.108   5.992  -1.057  0.00  0.00    -0.040 A 
ATOM      5  C   LIG    1       -2.895   5.690  -0.453  0.00  0.00    +0.130 A 
ATOM      6  C   LIG    1       -2.693   5.987   0.884  0.00  0.00    +0.060 A 
ENDROOT
BRANCH   1   9
ATOM      7  N   LIG    1       -4.494   7.486   3.762  0.00  0.00    -0.670 N 
ATOM      8  H   LIG    1       -5.329   7.723   3.329  0.00  0.00    +0.410 HD
ATOM      9  C   LIG    1       -3.506   6.907   3.051  0.00  0.00    +0.560 C 
ATOM     10  O   LIG    1       -2.445   6.648   3.584  0.00  0.00    -0.500 OA
BRANCH   7  16
ATOM     11  C   LIG    1       -4.538   9.023   5.625  0.00  0.00    -0.090 A 
ATOM     12  C   LIG    1       -4.364   9.275   6.971  0.00  0.00    +0.020 A 
ATOM     13  C   LIG    1       -3.958   8.261   7.820  0.00  0.00    +0.000 A 
ATOM     14  C   LIG    1       -3.730   6.990   7.324  0.00  0.00    +0.010 A 
ATOM     15  C   LIG    1       -3.907   6.730   5.979  0.00  0.00    -0.060 A 
ATOM     16  C   LIG    1       -4.314   7.746   5.124  0.00  0.00    +0.130 A 
BRANCH  11  18
ATOM     17  C   LIG    1       -6.497  10.104   4.556  0.00  0.00    +0.020 C 
ATOM     18  C   LIG    1       -4.974  10.130   4.700  0.00  0.00    +0.060 C 
ENDBRANCH  11  18
BRANCH  15  19
ATOM     19  C   LIG    1       -3.658   5.345   5.440  0.00  0.00    +0.060 C 
ATOM     20  C   LIG    1       -2.575   4.660   6.275  0.00  0.00    +0.020 C 
ENDBRANCH  15  19
ENDBRANCH   7  16
ENDBRANCH   1   9
BRANCH   5  21
ATOM     21  O   LIG    1       -1.903   5.106  -1.176  0.00  0.00    -0.310 OA
BRANCH  21  22
ATOM     22  C   LIG    1       -2.180   4.827  -2.550  0.00  0.00    +0.330 C 
BRANCH  22  23
ATOM     23  C   LIG    1       -0.974   4.186  -3.186  0.00  0.00    +0.050 A 
ATOM     24  C   LIG    1        0.196   3.917  -2.564  0.00  0.00    +0.120 A 
ATOM     25  N   LIG    1        1.021   3.337  -3.488  0.00  0.00    -0.360 N 
ATOM     26  C   LIG    1        2.300   2.866  -3.418  0.00  0.00    +0.220 A 
ATOM     27  C   LIG    1        2.897   2.334  -4.504  0.00  0.00    +0.020 A 
ATOM     28  C   LIG    1        2.208   2.256  -5.725  0.00  0.00    +0.030 A 
ATOM     29  C   LIG    1        0.932   2.721  -5.810  0.00  0.00    -0.040 A 
ATOM     30  C   LIG    1        0.179   2.645  -7.113  0.00  0.00    +0.120 C 
ATOM     31  C   LIG    1        0.322   3.274  -4.666  0.00  0.00    +0.230 A 
ATOM     32  N   LIG    1       -0.880   3.793  -4.458  0.00  0.00    -0.480 NA
ENDBRANCH  22  23
ENDBRANCH  21  22
ENDBRANCH   5  21
TORSDOF 7
