REMARK  Name = ZINCnE000001Namk.1
REMARK                            x       y       z     vdW  Elec       q    Type
REMARK                         _______ _______ _______ _____ _____    ______ ____
ROOT
ATOM      1  N   LIG    1        2.721   5.155   0.003  0.00  0.00    -0.730 N 
ATOM      2  H   LIG    1        1.949   5.742   0.013  0.00  0.00    +0.400 HD
ATOM      3  C   LIG    1        2.550   3.818  -0.002  0.00  0.00    +0.650 C 
ATOM      4  N   LIG    1        1.308   3.297   0.007  0.00  0.00    -0.690 NA
ATOM      5  O   LIG    1        3.518   3.082  -0.015  0.00  0.00    -0.650 OA
ENDROOT
BRANCH   4   6
ATOM      6  C   LIG    1        1.132   1.918   0.002  0.00  0.00    +0.370 A 
ATOM      7  N   LIG    1       -0.016   1.316   0.009  0.00  0.00    -0.570 NA
ATOM      8  C   LIG    1        0.002  -0.004   0.002  0.00  0.00    +0.120 A 
ATOM      9  C   LIG    1        1.223  -0.542  -0.013  0.00  0.00    -0.240 A 
ATOM     10  S   LIG    1        2.398   0.770  -0.017  0.00  0.00    +0.010 S 
BRANCH   8  11
ATOM     11  C   LIG    1       -1.255  -0.836   0.009  0.00  0.00    +0.060 C 
ATOM     12  C   LIG    1       -1.011  -2.317   0.342  0.00  0.00    +0.010 C 
ATOM     13  C   LIG    1       -2.052  -2.649  -0.743  0.00  0.00    -0.000 C 
ATOM     14  C   LIG    1       -1.693  -1.301  -1.390  0.00  0.00    +0.010 C 
ENDBRANCH   8  11
ENDBRANCH   4   6
BRANCH   1  15
ATOM     15  C   LIG    1        4.072   5.722  -0.007  0.00  0.00    +0.240 C 
BRANCH  15  17
ATOM     16  C   LIG    1        3.118   7.717  -1.169  0.00  0.00    +0.070 C 
ATOM     17  C   LIG    1        3.985   7.249   0.002  0.00  0.00    +0.160 C 
BRANCH  17  18
ATOM     18  C   LIG    1        5.368   7.832  -0.132  0.00  0.00    -0.110 A 
ATOM     19  C   LIG    1        6.345   7.141  -0.823  0.00  0.00    +0.020 A 
ATOM     20  C   LIG    1        7.613   7.678  -0.950  0.00  0.00    +0.000 A 
ATOM     21  C   LIG    1        7.906   8.901  -0.377  0.00  0.00    +0.000 A 
ATOM     22  C   LIG    1        6.930   9.590   0.319  0.00  0.00    +0.000 A 
ATOM     23  C   LIG    1        5.661   9.055   0.441  0.00  0.00    +0.030 A 
ENDBRANCH  17  18
BRANCH  17  24
ATOM     24  O   LIG    1        3.401   7.686   1.230  0.00  0.00    -0.550 OA
ATOM     25  H   LIG    1        3.898   7.424   2.017  0.00  0.00    +0.380 HD
ENDBRANCH  17  24
ENDBRANCH  15  17
ENDBRANCH   1  15
TORSDOF 6
