REMARK  Name = ZINCpe000000TBV5.0
REMARK                            x       y       z     vdW  Elec       q    Type
REMARK                         _______ _______ _______ _____ _____    ______ ____
ROOT
ATOM      1  C   LIG    1       -5.628  -1.871  -0.565  0.00  0.00    -0.470 C 
ATOM      2  C   LIG    1       -4.857  -3.090   0.006  0.00  0.00    +0.090 C 
ATOM      3  C   LIG    1       -3.395  -2.598   0.016  0.00  0.00    +0.260 C 
ATOM      4  N   LIG    1       -3.429  -1.128   0.030  0.00  0.00    -0.630 N 
ATOM      5  C   LIG    1       -2.353  -0.317   0.024  0.00  0.00    +0.730 C 
ATOM      6  N   LIG    1       -1.112  -0.844   0.009  0.00  0.00    -0.660 N 
ATOM      7  H   LIG    1       -0.994  -1.806   0.003  0.00  0.00    +0.410 HD
ATOM      8  O   LIG    1       -2.501   0.890   0.031  0.00  0.00    -0.540 OA
ATOM      9  C   LIG    1       -4.836  -0.688   0.046  0.00  0.00    +0.350 C 
ENDROOT
BRANCH   6  10
ATOM     10  C   LIG    1        0.002  -0.004   0.002  0.00  0.00    +0.310 A 
ATOM     11  C   LIG    1       -0.016   1.357   0.009  0.00  0.00    -0.070 A 
ATOM     12  C   LIG    1        1.308   1.803  -0.001  0.00  0.00    +0.070 A 
ATOM     13  N   LIG    1        2.094   0.757  -0.014  0.00  0.00    -0.280 NA
ATOM     14  N   LIG    1        1.297  -0.395  -0.012  0.00  0.00    -0.390 N 
ATOM     15  C   LIG    1        1.780  -1.778  -0.024  0.00  0.00    +0.360 C 
BRANCH  12  16
ATOM     16  C   LIG    1        1.755   3.242   0.002  0.00  0.00    +0.260 C 
ATOM     17  C   LIG    1        2.708   3.492   1.190  0.00  0.00    +0.030 C 
ATOM     18  C   LIG    1        2.273   4.903   1.672  0.00  0.00    +0.000 C 
ATOM     19  C   LIG    1        0.751   4.854   1.386  0.00  0.00    +0.200 C 
ATOM     20  O   LIG    1        0.621   4.102   0.169  0.00  0.00    -0.360 OA
ENDBRANCH  12  16
ENDBRANCH   6  10
BRANCH   1  21
ATOM     21  S   LIG    1       -7.350  -1.865   0.007  0.00  0.00    +2.630 S 
ATOM     22  O   LIG    1       -7.405  -1.751   1.423  0.00  0.00    -0.950 OA
ATOM     23  O   LIG    1       -8.106  -2.853  -0.679  0.00  0.00    -0.940 OA
BRANCH  21  24
ATOM     24  N   LIG    1       -7.963  -0.427  -0.542  0.00  0.00    -1.120 NA
ATOM     25  H   LIG    1       -8.240   0.254   0.090  0.00  0.00    +0.420 HD
BRANCH  24  27
ATOM     26  C   LIG    1       -9.000   1.017  -2.221  0.00  0.00    +0.040 C 
ATOM     27  C   LIG    1       -8.085  -0.186  -1.982  0.00  0.00    +0.260 C 
ENDBRANCH  24  27
ENDBRANCH  21  24
ENDBRANCH   1  21
TORSDOF 5
