REMARK  Name = ZINCb700000010bO.0
REMARK                            x       y       z     vdW  Elec       q    Type
REMARK                         _______ _______ _______ _____ _____    ______ ____
ROOT
ATOM      1  N   LIG    1        1.359   2.035   0.000  0.00  0.00    -0.390 N 
ATOM      2  C   LIG    1       -0.019   1.526   0.010  0.00  0.00    +0.280 C 
ATOM      3  C   LIG    1        0.002  -0.004   0.002  0.00  0.00    +0.230 C 
ATOM      4  N   LIG    1        0.730  -0.488   1.184  0.00  0.00    -0.540 NA
ATOM      5  C   LIG    1        2.104   0.034   1.200  0.00  0.00    +0.210 C 
ATOM      6  C   LIG    1        2.066   1.563   1.198  0.00  0.00    +0.270 C 
ATOM      7  H   LIG    1        1.835   1.700  -0.824  0.00  0.00    +0.420 HD
ENDROOT
BRANCH   1   9
ATOM      8  C   LIG    1        2.769   4.034   0.105  0.00  0.00    +0.080 C 
ATOM      9  C   LIG    1        1.339   3.503  -0.010  0.00  0.00    +0.250 C 
ENDBRANCH   1   9
BRANCH   4  10
ATOM     10  C   LIG    1        0.723  -1.956   1.242  0.00  0.00    +0.390 C 
BRANCH  10  11
ATOM     11  C   LIG    1        1.653  -2.409   2.289  0.00  0.00    +0.190 C 
ATOM     12  N   LIG    1        2.370  -2.760   3.098  0.00  0.00    -0.390 NA
ENDBRANCH  10  11
ENDBRANCH   4  10
TORSDOF 3
