REMARK  Name = ZINCpe00000MJIYY.0
REMARK                            x       y       z     vdW  Elec       q    Type
REMARK                         _______ _______ _______ _____ _____    ______ ____
ROOT
ATOM      1  C   LIG    1       -1.514   4.342   0.038  0.00  0.00    +0.270 C 
ATOM      2  C   LIG    1       -2.765   4.059   0.876  0.00  0.00    +0.020 C 
ATOM      3  C   LIG    1       -3.684   5.283   0.836  0.00  0.00    +0.050 C 
ATOM      4  C   LIG    1       -4.039   5.601  -0.618  0.00  0.00    +0.180 C 
ATOM      5  N   LIG    1       -2.810   5.865  -1.377  0.00  0.00    -0.520 NA
ATOM      6  C   LIG    1       -1.933   4.687  -1.393  0.00  0.00    +0.190 C 
ENDROOT
BRANCH   1   9
ATOM      7  C   LIG    1        1.102   1.948   0.002  0.00  0.00    -0.020 A 
ATOM      8  N   LIG    1        0.628   3.178   0.013  0.00  0.00    -0.260 NA
ATOM      9  N   LIG    1       -0.656   3.155   0.025  0.00  0.00    -0.270 N 
ATOM     10  C   LIG    1       -1.101   1.880   0.017  0.00  0.00    +0.160 A 
ATOM     11  C   LIG    1       -0.013   1.076   0.008  0.00  0.00    -0.020 A 
BRANCH   7  15
ATOM     12  C   LIG    1        4.898   2.109  -0.033  0.00  0.00    +0.290 C 
ATOM     13  N   LIG    1        3.486   2.499  -0.017  0.00  0.00    -0.720 N 
ATOM     14  H   LIG    1        3.243   3.438  -0.010  0.00  0.00    +0.410 HD
ATOM     15  C   LIG    1        2.526   1.554  -0.013  0.00  0.00    +0.600 C 
ATOM     16  O   LIG    1        2.831   0.377  -0.022  0.00  0.00    -0.530 OA
ENDBRANCH   7  15
ENDBRANCH   1   9
BRANCH   5  17
ATOM     17  C   LIG    1       -3.120   6.309  -2.743  0.00  0.00    +0.240 C 
BRANCH  17  18
ATOM     18  C   LIG    1       -3.805   7.650  -2.692  0.00  0.00    +0.520 C 
ATOM     19  N   LIG    1       -4.184   8.256  -3.834  0.00  0.00    -0.630 N 
ATOM     20  H   LIG    1       -4.017   7.830  -4.689  0.00  0.00    +0.420 HD
ATOM     21  O   LIG    1       -4.014   8.184  -1.623  0.00  0.00    -0.490 OA
BRANCH  19  22
ATOM     22  C   LIG    1       -4.819   9.498  -3.787  0.00  0.00    +0.250 A 
ATOM     23  N   LIG    1       -5.241  10.202  -4.804  0.00  0.00    -0.390 NA
ATOM     24  O   LIG    1       -5.751  11.238  -4.444  0.00  0.00    +0.100 OA
ATOM     25  C   LIG    1       -5.734  11.362  -3.109  0.00  0.00    -0.020 A 
ATOM     26  C   LIG    1       -6.277  12.515  -2.304  0.00  0.00    +0.190 C 
ATOM     27  C   LIG    1       -5.140  10.248  -2.624  0.00  0.00    -0.040 A 
ENDBRANCH  19  22
ENDBRANCH  17  18
ENDBRANCH   5  17
TORSDOF 5
