REMARK  Name = ZINCvU0000000Jvx.0
REMARK                            x       y       z     vdW  Elec       q    Type
REMARK                         _______ _______ _______ _____ _____    ______ ____
ROOT
ATOM      1  C   LIG    1        3.617  -1.758   0.227  0.00  0.00    +0.540 C 
ATOM      2  N   LIG    1        3.623  -0.412   0.174  0.00  0.00    -0.650 N 
ATOM      3  H   LIG    1        4.465   0.069   0.146  0.00  0.00    +0.420 HD
ATOM      4  O   LIG    1        2.570  -2.364   0.132  0.00  0.00    -0.510 OA
ENDROOT
BRANCH   2   5
ATOM      5  C   LIG    1        2.413   0.294   0.158  0.00  0.00    +0.120 A 
ATOM      6  C   LIG    1        1.270  -0.295  -0.362  0.00  0.00    +0.060 A 
ATOM      7  C   LIG    1        0.077   0.403  -0.377  0.00  0.00    +0.000 A 
ATOM      8  C   LIG    1        0.019   1.689   0.127  0.00  0.00    +0.030 A 
ATOM      9  C   LIG    1        1.154   2.284   0.647  0.00  0.00    -0.040 A 
ATOM     10  C   LIG    1        2.353   1.591   0.665  0.00  0.00    +0.100 A 
BRANCH  10  11
ATOM     11  O   LIG    1        3.470   2.174   1.177  0.00  0.00    -0.260 OA
BRANCH  11  12
ATOM     12  C   LIG    1        3.339   3.386   1.777  0.00  0.00    +0.080 A 
ATOM     13  C   LIG    1        3.716   4.540   1.104  0.00  0.00    +0.010 A 
ATOM     14  C   LIG    1        3.577   5.771   1.716  0.00  0.00    +0.020 A 
ATOM     15  C   LIG    1        3.072   5.853   3.000  0.00  0.00    +0.010 A 
ATOM     16  C   LIG    1        2.701   4.705   3.675  0.00  0.00    +0.020 A 
ATOM     17  C   LIG    1        2.833   3.472   3.066  0.00  0.00    +0.000 A 
ENDBRANCH  11  12
ENDBRANCH  10  11
ENDBRANCH   2   5
BRANCH   1  18
ATOM     18  C   LIG    1        4.910  -2.511   0.404  0.00  0.00    +0.110 C 
BRANCH  18  19
ATOM     19  S   LIG    1        4.574  -4.289   0.437  0.00  0.00    +0.090 S 
BRANCH  19  21
ATOM     20  N   LIG    1        6.575  -6.219   0.748  0.00  0.00    -0.450 N 
ATOM     21  C   LIG    1        6.210  -4.907   0.649  0.00  0.00    +0.140 A 
ATOM     22  N   LIG    1        7.308  -4.189   0.746  0.00  0.00    -0.290 NA
ATOM     23  N   LIG    1        8.326  -4.959   0.892  0.00  0.00    -0.270 NA
ATOM     24  C   LIG    1        7.942  -6.214   0.898  0.00  0.00    +0.230 A 
BRANCH  24  25
ATOM     25  C   LIG    1        8.814  -7.399   1.045  0.00  0.00    -0.020 A 
ATOM     26  C   LIG    1       10.111  -7.258   1.542  0.00  0.00    +0.070 A 
ATOM     27  C   LIG    1       10.917  -8.369   1.681  0.00  0.00    +0.010 A 
ATOM     28  C   LIG    1       10.448  -9.618   1.318  0.00  0.00    +0.030 A 
ATOM     29  C   LIG    1        9.165  -9.764   0.819  0.00  0.00    +0.010 A 
ATOM     30  C   LIG    1        8.347  -8.663   0.680  0.00  0.00    +0.010 A 
ENDBRANCH  24  25
BRANCH  20  32
ATOM     31  C   LIG    1        5.472  -7.803  -0.754  0.00  0.00    +0.050 C 
ATOM     32  C   LIG    1        5.693  -7.388   0.702  0.00  0.00    +0.300 C 
ENDBRANCH  20  32
ENDBRANCH  19  21
ENDBRANCH  18  19
ENDBRANCH   1  18
TORSDOF 8
