REMARK  Name = ZINCpe00000MCnBZ.0
REMARK                            x       y       z     vdW  Elec       q    Type
REMARK                         _______ _______ _______ _____ _____    ______ ____
ROOT
ATOM      1  C   LIG    1        1.383   2.600  -1.958  0.00  0.00    +0.350 C 
ENDROOT
BRANCH   1  11
ATOM      2  O   LIG    1        1.875   8.545  -4.358  0.00  0.00    -0.550 OA
ATOM      3  C   LIG    1        1.840   7.379  -4.013  0.00  0.00    +0.710 A 
ATOM      4  N   LIG    1        1.303   7.063  -2.822  0.00  0.00    -0.650 N 
ATOM      5  H   LIG    1        0.953   7.768  -2.256  0.00  0.00    +0.440 HD
ATOM      6  C   LIG    1        1.242   5.784  -2.401  0.00  0.00    +0.590 A 
ATOM      7  C   LIG    1        1.748   4.757  -3.230  0.00  0.00    -0.100 A 
ATOM      8  C   LIG    1        2.305   5.100  -4.457  0.00  0.00    +0.140 A 
ATOM      9  C   LIG    1        2.727   3.908  -5.062  0.00  0.00    -0.050 A 
ATOM     10  C   LIG    1        2.436   2.889  -4.221  0.00  0.00    +0.280 A 
ATOM     11  N   LIG    1        1.845   3.388  -3.103  0.00  0.00    -0.390 N 
ATOM     12  O   LIG    1        0.752   5.515  -1.319  0.00  0.00    -0.520 OA
ATOM     13  N   LIG    1        2.338   6.435  -4.834  0.00  0.00    -0.620 N 
ATOM     14  H   LIG    1        2.720   6.688  -5.689  0.00  0.00    +0.440 HD
ENDBRANCH   1  11
BRANCH   1  15
ATOM     15  C   LIG    1       -0.084   2.293  -2.118  0.00  0.00    +0.500 C 
ATOM     16  N   LIG    1       -0.729   1.575  -1.178  0.00  0.00    -0.610 N 
ATOM     17  C   LIG    1       -0.013   1.086   0.008  0.00  0.00    +0.260 C 
ATOM     18  C   LIG    1       -0.736   1.583   1.265  0.00  0.00    +0.050 C 
ATOM     19  C   LIG    1       -2.217   1.206   1.169  0.00  0.00    -0.070 C 
ATOM     20  C   LIG    1       -2.898   1.768  -0.077  0.00  0.00    -0.010 C 
ATOM     21  C   LIG    1       -2.482  -0.288   1.392  0.00  0.00    +0.010 C 
ATOM     22  C   LIG    1       -2.611   0.041   2.889  0.00  0.00    +0.010 C 
ATOM     23  C   LIG    1       -2.998   1.468   2.464  0.00  0.00    +0.020 C 
ATOM     24  C   LIG    1       -2.158   1.269  -1.323  0.00  0.00    +0.300 C 
ATOM     25  O   LIG    1       -0.684   2.693  -3.093  0.00  0.00    -0.520 OA
BRANCH  20  26
ATOM     26  C   LIG    1       -4.352   1.293  -0.122  0.00  0.00    +0.180 C 
BRANCH  26  27
ATOM     27  O   LIG    1       -5.019   1.905  -1.227  0.00  0.00    -0.570 OA
ATOM     28  H   LIG    1       -5.947   1.649  -1.318  0.00  0.00    +0.380 HD
ENDBRANCH  26  27
ENDBRANCH  20  26
ENDBRANCH   1  15
TORSDOF 4
