REMARK  Name = ZINCrg00000fRwvz.0
REMARK                            x       y       z     vdW  Elec       q    Type
REMARK                         _______ _______ _______ _____ _____    ______ ____
ROOT
ATOM      1  C   LIG    1        0.313  -0.636  -6.783  0.00  0.00    +0.510 C 
ATOM      2  O   LIG    1        1.409  -0.164  -7.015  0.00  0.00    -0.490 OA
ENDROOT
BRANCH   1   3
ATOM      3  C   LIG    1       -0.343  -1.497  -7.781  0.00  0.00    -0.150 A 
ATOM      4  C   LIG    1        0.293  -1.764  -8.990  0.00  0.00    +0.200 A 
ATOM      5  C   LIG    1       -0.341  -2.594  -9.937  0.00  0.00    -0.080 A 
ATOM      6  C   LIG    1        0.271  -2.890 -11.166  0.00  0.00    +0.050 A 
ATOM      7  C   LIG    1       -0.370  -3.690 -12.063  0.00  0.00    +0.010 A 
ATOM      8  C   LIG    1       -1.626  -4.220 -11.779  0.00  0.00    +0.030 A 
ATOM      9  C   LIG    1       -2.248  -3.954 -10.596  0.00  0.00    +0.030 A 
ATOM     10  C   LIG    1       -1.618  -3.133  -9.648  0.00  0.00    -0.040 A 
ATOM     11  C   LIG    1       -2.240  -2.840  -8.414  0.00  0.00    +0.100 A 
ATOM     12  C   LIG    1       -1.613  -2.041  -7.508  0.00  0.00    +0.060 A 
BRANCH  11  13
ATOM     13  O   LIG    1       -3.465  -3.355  -8.131  0.00  0.00    -0.490 OA
ATOM     14  H   LIG    1       -4.202  -2.794  -8.411  0.00  0.00    +0.390 HD
ENDBRANCH  11  13
BRANCH   4  15
ATOM     15  O   LIG    1        1.512  -1.234  -9.253  0.00  0.00    -0.470 OA
ATOM     16  H   LIG    1        2.252  -1.789  -8.970  0.00  0.00    +0.400 HD
ENDBRANCH   4  15
ENDBRANCH   1   3
BRANCH   1  17
ATOM     17  O   LIG    1       -0.302  -0.371  -5.613  0.00  0.00    -0.330 OA
BRANCH  17  18
ATOM     18  C   LIG    1        0.405   0.486  -4.677  0.00  0.00    +0.270 C 
BRANCH  18  21
ATOM     19  C   LIG    1        1.336   2.081  -2.528  0.00  0.00    +0.290 C 
ATOM     20  N   LIG    1        0.027   1.431  -2.423  0.00  0.00    -0.600 N 
ATOM     21  C   LIG    1       -0.430   0.669  -3.436  0.00  0.00    +0.520 C 
ATOM     22  O   LIG    1       -1.514   0.131  -3.349  0.00  0.00    -0.510 OA
BRANCH  20  23
ATOM     23  C   LIG    1       -0.784   1.609  -1.216  0.00  0.00    +0.280 C 
ATOM     24  C   LIG    1       -0.013   1.086   0.008  0.00  0.00    +0.070 C 
ATOM     25  C   LIG    1       -0.766   1.600   1.262  0.00  0.00    -0.290 C 
ATOM     26  S   LIG    1       -1.166   3.330   0.805  0.00  0.00    +2.390 S 
ATOM     27  O   LIG    1       -2.504   3.623   1.183  0.00  0.00    -0.930 OA
ATOM     28  O   LIG    1       -0.110   4.183   1.224  0.00  0.00    -0.930 OA
ATOM     29  C   LIG    1       -1.083   3.107  -1.009  0.00  0.00    -0.330 C 
ENDBRANCH  20  23
ENDBRANCH  18  21
ENDBRANCH  17  18
ENDBRANCH   1  17
TORSDOF 7
