REMARK  Name = ZINCrH000004qB52.1
REMARK                            x       y       z     vdW  Elec       q    Type
REMARK                         _______ _______ _______ _____ _____    ______ ____
ROOT
ATOM      1  C   LIG    1       -0.370   0.266  -0.124  0.00  0.00    +0.530 C 
ATOM      2  N   LIG    1       -1.580  -0.299   0.062  0.00  0.00    -0.580 N 
ATOM      3  C   LIG    1       -1.764  -1.756  -0.039  0.00  0.00    +0.290 C 
ATOM      4  C   LIG    1       -1.767  -2.370   1.349  0.00  0.00    -0.010 C 
ATOM      5  C   LIG    1       -2.926  -1.888   2.213  0.00  0.00    +0.220 C 
ATOM      6  N   LIG    1       -2.771  -0.479   2.575  0.00  0.00    -0.490 N 
ATOM      7  C   LIG    1       -3.326   0.362   1.591  0.00  0.00    +0.080 A 
ATOM      8  C   LIG    1       -4.464   1.099   1.874  0.00  0.00    +0.060 A 
ATOM      9  C   LIG    1       -4.968   1.973   0.927  0.00  0.00    +0.020 A 
ATOM     10  C   LIG    1       -4.341   2.110  -0.297  0.00  0.00    +0.020 A 
ATOM     11  C   LIG    1       -3.211   1.366  -0.590  0.00  0.00    +0.010 A 
ATOM     12  C   LIG    1       -2.708   0.482   0.351  0.00  0.00    +0.100 A 
ATOM     13  O   LIG    1        0.570  -0.416  -0.476  0.00  0.00    -0.510 OA
ENDROOT
BRANCH   1  14
ATOM     14  C   LIG    1       -0.185   1.744   0.106  0.00  0.00    +0.170 C 
BRANCH  14  18
ATOM     15  C   LIG    1        4.211   3.929  -1.248  0.00  0.00    +0.150 C 
ATOM     16  C   LIG    1        3.194   3.048  -0.569  0.00  0.00    +0.090 A 
ATOM     17  C   LIG    1        1.861   3.044  -0.801  0.00  0.00    -0.120 A 
ATOM     18  C   LIG    1        1.282   2.083   0.034  0.00  0.00    +0.090 A 
ATOM     19  N   LIG    1        2.232   1.534   0.746  0.00  0.00    -0.270 NA
ATOM     20  N   LIG    1        3.450   2.122   0.379  0.00  0.00    -0.470 N 
ATOM     21  H   LIG    1        4.321   1.906   0.745  0.00  0.00    +0.440 HD
ENDBRANCH  14  18
ENDBRANCH   1  14
BRANCH   6  22
ATOM     22  C   LIG    1       -1.359  -0.150   2.814  0.00  0.00    +0.230 C 
BRANCH  22  23
ATOM     23  C   LIG    1       -0.919  -0.747   4.127  0.00  0.00    -0.070 A 
ATOM     24  C   LIG    1       -1.157  -0.069   5.308  0.00  0.00    +0.020 A 
ATOM     25  C   LIG    1       -0.758  -0.619   6.512  0.00  0.00    +0.000 A 
ATOM     26  C   LIG    1       -0.112  -1.841   6.534  0.00  0.00    +0.000 A 
ATOM     27  C   LIG    1        0.131  -2.515   5.352  0.00  0.00    +0.000 A 
ATOM     28  C   LIG    1       -0.273  -1.968   4.148  0.00  0.00    +0.000 A 
ENDBRANCH  22  23
ENDBRANCH   6  22
TORSDOF 4
