REMARK  Name = ZINCrH000004qB52.0
REMARK                            x       y       z     vdW  Elec       q    Type
REMARK                         _______ _______ _______ _____ _____    ______ ____
ROOT
ATOM      1  C   LIG    1        0.041   1.668  -0.121  0.00  0.00    +0.530 C 
ATOM      2  N   LIG    1       -1.071   2.414   0.034  0.00  0.00    -0.570 N 
ATOM      3  C   LIG    1       -2.409   1.800   0.013  0.00  0.00    +0.290 C 
ATOM      4  C   LIG    1       -2.900   1.589   1.434  0.00  0.00    -0.020 C 
ATOM      5  C   LIG    1       -3.079   2.891   2.204  0.00  0.00    +0.230 C 
ATOM      6  N   LIG    1       -1.791   3.524   2.488  0.00  0.00    -0.480 N 
ATOM      7  C   LIG    1       -1.391   4.359   1.426  0.00  0.00    +0.080 A 
ATOM      8  C   LIG    1       -1.356   5.733   1.604  0.00  0.00    +0.060 A 
ATOM      9  C   LIG    1       -0.901   6.545   0.579  0.00  0.00    +0.020 A 
ATOM     10  C   LIG    1       -0.484   5.990  -0.616  0.00  0.00    +0.020 A 
ATOM     11  C   LIG    1       -0.529   4.619  -0.803  0.00  0.00    +0.010 A 
ATOM     12  C   LIG    1       -0.994   3.803   0.216  0.00  0.00    +0.100 A 
ATOM     13  O   LIG    1       -0.053   0.489  -0.391  0.00  0.00    -0.510 OA
ENDROOT
BRANCH   1  14
ATOM     14  C   LIG    1        1.400   2.299   0.035  0.00  0.00    +0.140 C 
BRANCH  14  20
ATOM     15  C   LIG    1        4.815  -1.062  -1.691  0.00  0.00    +0.160 C 
ATOM     16  C   LIG    1        3.957  -0.242  -0.761  0.00  0.00    +0.080 A 
ATOM     17  N   LIG    1        3.959  -0.312   0.545  0.00  0.00    -0.290 NA
ATOM     18  N   LIG    1        3.026   0.612   1.034  0.00  0.00    -0.470 N 
ATOM     19  H   LIG    1        2.821   0.776   1.968  0.00  0.00    +0.440 HD
ATOM     20  C   LIG    1        2.461   1.230  -0.023  0.00  0.00    +0.100 A 
ATOM     21  C   LIG    1        3.021   0.723  -1.146  0.00  0.00    -0.100 A 
ENDBRANCH  14  20
ENDBRANCH   1  14
BRANCH   6  22
ATOM     22  C   LIG    1       -0.762   2.516   2.781  0.00  0.00    +0.230 C 
BRANCH  22  23
ATOM     23  C   LIG    1       -1.006   1.932   4.148  0.00  0.00    -0.080 A 
ATOM     24  C   LIG    1       -0.522   2.576   5.271  0.00  0.00    +0.020 A 
ATOM     25  C   LIG    1       -0.750   2.043   6.526  0.00  0.00    +0.000 A 
ATOM     26  C   LIG    1       -1.453   0.860   6.657  0.00  0.00    +0.000 A 
ATOM     27  C   LIG    1       -1.933   0.213   5.534  0.00  0.00    +0.000 A 
ATOM     28  C   LIG    1       -1.710   0.749   4.279  0.00  0.00    +0.000 A 
ENDBRANCH  22  23
ENDBRANCH   6  22
TORSDOF 4
