REMARK  Name = ZINCrH000004mp7l.0
REMARK                            x       y       z     vdW  Elec       q    Type
REMARK                         _______ _______ _______ _____ _____    ______ ____
ROOT
ATOM      1  C   LIG    1        4.516   6.860  -0.003  0.00  0.00    +0.370 C 
ENDROOT
BRANCH   1   2
ATOM      2  N   LIG    1        4.746   7.292   1.382  0.00  0.00    -0.480 N 
ATOM      3  C   LIG    1        5.603   8.483   1.427  0.00  0.00    +0.230 C 
ATOM      4  C   LIG    1        5.277   9.428   0.283  0.00  0.00    +0.010 C 
ATOM      5  C   LIG    1        3.890  10.038   0.386  0.00  0.00    +0.190 C 
ATOM      6  N   LIG    1        2.853   9.010   0.232  0.00  0.00    -0.490 N 
ATOM      7  C   LIG    1        2.593   8.394   1.471  0.00  0.00    +0.070 A 
ATOM      8  C   LIG    1        1.393   8.642   2.121  0.00  0.00    +0.020 A 
ATOM      9  C   LIG    1        1.136   8.039   3.339  0.00  0.00    +0.010 A 
ATOM     10  C   LIG    1        2.071   7.191   3.908  0.00  0.00    +0.090 A 
ATOM     11  C   LIG    1        3.270   6.941   3.260  0.00  0.00    +0.030 A 
ATOM     12  F   LIG    1        1.813   6.606   5.098  0.00  0.00    -0.140 F 
ATOM     13  C   LIG    1        1.626   9.580  -0.340  0.00  0.00    +0.220 C 
ATOM     14  C   LIG    1        3.529   7.546   2.039  0.00  0.00    +0.110 A 
ENDBRANCH   1   2
BRANCH   1  18
ATOM     15  C   LIG    1        2.426   3.936   0.000  0.00  0.00    +0.220 A 
ATOM     16  N   LIG    1        3.632   3.431  -0.008  0.00  0.00    -0.380 NA
ATOM     17  O   LIG    1        4.456   4.321  -0.015  0.00  0.00    +0.090 OA
ATOM     18  C   LIG    1        3.846   5.510  -0.004  0.00  0.00    +0.190 A 
ATOM     19  N   LIG    1        2.557   5.282   0.006  0.00  0.00    -0.460 NA
BRANCH  15  23
ATOM     20  C   LIG    1       -1.225   1.753   0.017  0.00  0.00    +0.150 A 
ATOM     21  C   LIG    1       -0.013   1.076   0.008  0.00  0.00    -0.010 A 
ATOM     22  C   LIG    1        1.172   1.781   0.000  0.00  0.00    +0.100 A 
ATOM     23  C   LIG    1        1.153   3.175   0.008  0.00  0.00    -0.060 A 
ATOM     24  C   LIG    1       -0.066   3.852   0.022  0.00  0.00    +0.110 A 
ATOM     25  C   LIG    1       -1.248   3.142   0.030  0.00  0.00    -0.070 A 
BRANCH  20  27
ATOM     26  C   LIG    1       -3.601   1.816   0.029  0.00  0.00    +0.240 C 
ATOM     27  O   LIG    1       -2.391   1.056   0.019  0.00  0.00    -0.310 OA
ENDBRANCH  20  27
ENDBRANCH  15  23
ENDBRANCH   1  18
TORSDOF 4
