REMARK  Name = ZINCpk00000xI9xL.0
REMARK                            x       y       z     vdW  Elec       q    Type
REMARK                         _______ _______ _______ _____ _____    ______ ____
ROOT
ATOM      1  C   LIG    1        4.332   2.155   1.079  0.00  0.00    -0.230 C 
ATOM      2  C   LIG    1        3.665   1.939  -0.075  0.00  0.00    +0.200 C 
ATOM      3  N   LIG    1        3.928   2.680  -1.191  0.00  0.00    -0.640 N 
ATOM      4  H   LIG    1        3.421   2.492  -1.996  0.00  0.00    +0.430 HD
ATOM      5  C   LIG    1        4.848   3.652  -1.237  0.00  0.00    +0.710 C 
ATOM      6  N   LIG    1        5.598   3.981  -0.166  0.00  0.00    -0.710 N 
ATOM      7  H   LIG    1        6.259   4.689  -0.222  0.00  0.00    +0.440 HD
ATOM      8  O   LIG    1        5.011   4.258  -2.278  0.00  0.00    -0.560 OA
ATOM      9  C   LIG    1        5.391   3.240   1.089  0.00  0.00    +0.290 C 
ATOM     10  C   LIG    1        5.015   4.248   2.176  0.00  0.00    +0.040 C 
ENDROOT
BRANCH   1  11
ATOM     11  C   LIG    1        4.056   1.392   2.238  0.00  0.00    +0.540 C 
ATOM     12  O   LIG    1        4.797   0.481   2.557  0.00  0.00    -0.480 OA
BRANCH  11  13
ATOM     13  O   LIG    1        2.971   1.674   2.989  0.00  0.00    -0.340 OA
BRANCH  13  15
ATOM     14  C   LIG    1        1.486   1.329   4.864  0.00  0.00    +0.070 C 
ATOM     15  C   LIG    1        2.754   0.863   4.145  0.00  0.00    +0.200 C 
ENDBRANCH  13  15
ENDBRANCH  11  13
ENDBRANCH   1  11
BRANCH   2  16
ATOM     16  C   LIG    1        2.608   0.866  -0.130  0.00  0.00    +0.310 C 
BRANCH  16  17
ATOM     17  O   LIG    1        1.311   1.476  -0.361  0.00  0.00    -0.340 OA
BRANCH  17  18
ATOM     18  C   LIG    1        0.250   0.648  -0.438  0.00  0.00    +0.510 C 
ATOM     19  O   LIG    1        0.405  -0.551  -0.314  0.00  0.00    -0.470 OA
BRANCH  18  20
ATOM     20  C   LIG    1       -1.096   1.196  -0.677  0.00  0.00    -0.180 A 
ATOM     21  C   LIG    1       -1.290   2.575  -0.815  0.00  0.00    +0.150 A 
ATOM     22  C   LIG    1       -2.573   3.039  -1.043  0.00  0.00    -0.050 A 
ATOM     23  C   LIG    1       -3.621   2.138  -1.118  0.00  0.00    +0.330 A 
ATOM     24  N   LIG    1       -3.420   0.842  -0.980  0.00  0.00    -0.490 NA
ATOM     25  C   LIG    1       -2.211   0.343  -0.765  0.00  0.00    +0.160 A 
BRANCH  25  26
ATOM     26  S   LIG    1       -2.000  -1.397  -0.588  0.00  0.00    +0.040 S 
ATOM     27  C   LIG    1       -3.714  -1.944  -0.787  0.00  0.00    +0.100 C 
ENDBRANCH  25  26
ENDBRANCH  18  20
ENDBRANCH  17  18
ENDBRANCH  16  17
ENDBRANCH   2  16
TORSDOF 8
