REMARK  Name = ZINCvU00000004yz.0
REMARK                            x       y       z     vdW  Elec       q    Type
REMARK                         _______ _______ _______ _____ _____    ______ ____
ROOT
ATOM      1  C   LIG    1        3.707  -0.673  -0.028  0.00  0.00    +0.510 C 
ATOM      2  O   LIG    1        3.735  -1.888  -0.027  0.00  0.00    -0.480 OA
ENDROOT
BRANCH   1   3
ATOM      3  C   LIG    1        2.414   0.035  -0.013  0.00  0.00    -0.160 A 
ATOM      4  C   LIG    1        2.377   1.432  -0.014  0.00  0.00    +0.130 A 
ATOM      5  C   LIG    1        1.165   2.087  -0.002  0.00  0.00    -0.030 A 
ATOM      6  C   LIG    1       -0.018   1.368   0.013  0.00  0.00    +0.090 A 
ATOM      7  C   LIG    1        0.003  -0.013   0.015  0.00  0.00    -0.090 A 
ATOM      8  C   LIG    1        1.214  -0.690   0.002  0.00  0.00    +0.190 A 
BRANCH   8   9
ATOM      9  O   LIG    1        1.236  -2.046   0.004  0.00  0.00    -0.280 OA
BRANCH   9  10
ATOM     10  C   LIG    1       -0.026  -2.716   0.020  0.00  0.00    +0.220 C 
BRANCH  10  11
ATOM     11  C   LIG    1        0.199  -4.229   0.020  0.00  0.00    +0.230 C 
BRANCH  11  12
ATOM     12  O   LIG    1        0.847  -4.614   1.234  0.00  0.00    -0.310 OA
BRANCH  12  13
ATOM     13  C   LIG    1        1.122  -5.935   1.394  0.00  0.00    +0.130 A 
ATOM     14  C   LIG    1        0.771  -6.843   0.406  0.00  0.00    -0.080 A 
ATOM     15  C   LIG    1        1.056  -8.185   0.569  0.00  0.00    +0.040 A 
ATOM     16  C   LIG    1        1.682  -8.625   1.721  0.00  0.00    -0.040 A 
ATOM     17  C   LIG    1        2.029  -7.723   2.710  0.00  0.00    +0.050 A 
ATOM     18  C   LIG    1        1.750  -6.379   2.549  0.00  0.00    -0.020 A 
ENDBRANCH  12  13
ENDBRANCH  11  12
ENDBRANCH  10  11
ENDBRANCH   9  10
ENDBRANCH   8   9
ENDBRANCH   1   3
BRANCH   1  19
ATOM     19  O   LIG    1        4.858   0.027  -0.042  0.00  0.00    -0.330 OA
BRANCH  19  21
ATOM     20  C   LIG    1        6.545  -1.002   1.381  0.00  0.00    +0.070 C 
ATOM     21  C   LIG    1        6.094  -0.736  -0.056  0.00  0.00    +0.200 C 
BRANCH  21  22
ATOM     22  C   LIG    1        7.159   0.046  -0.780  0.00  0.00    +0.520 C 
ATOM     23  N   LIG    1        8.366  -0.509  -1.006  0.00  0.00    -0.670 N 
ATOM     24  H   LIG    1        8.572  -1.385  -0.645  0.00  0.00    +0.420 HD
ATOM     25  O   LIG    1        6.930   1.175  -1.159  0.00  0.00    -0.490 OA
BRANCH  23  26
ATOM     26  C   LIG    1        9.322   0.179  -1.762  0.00  0.00    +0.160 A 
ATOM     27  C   LIG    1       10.188  -0.520  -2.592  0.00  0.00    +0.000 A 
ATOM     28  C   LIG    1       11.127   0.162  -3.341  0.00  0.00    +0.070 A 
ATOM     29  C   LIG    1       11.213   1.540  -3.256  0.00  0.00    -0.100 A 
ATOM     30  C   LIG    1       10.356   2.239  -2.425  0.00  0.00    +0.070 A 
ATOM     31 BR   LIG    1       12.505   2.470  -4.276  0.00  0.00    -0.050 Br
ATOM     32  C   LIG    1        9.411   1.563  -1.678  0.00  0.00    +0.030 A 
ENDBRANCH  23  26
ENDBRANCH  21  22
ENDBRANCH  19  21
ENDBRANCH   1  19
TORSDOF 10
