REMARK  Name = ZINCrD0000074bDB.0
REMARK                            x       y       z     vdW  Elec       q    Type
REMARK                         _______ _______ _______ _____ _____    ______ ____
ROOT
ATOM      1  C   LIG    1       -0.014   1.204   0.009  0.00  0.00    +0.470 C 
ATOM      2  O   LIG    1        0.002  -0.004   0.002  0.00  0.00    -0.510 OA
ENDROOT
BRANCH   1   3
ATOM      3  O   LIG    1        1.139   1.891   0.001  0.00  0.00    -0.330 OA
BRANCH   3   5
ATOM      4  C   LIG    1        2.785   0.853  -1.462  0.00  0.00    +0.080 C 
ATOM      5  C   LIG    1        2.367   1.117  -0.015  0.00  0.00    +0.160 C 
BRANCH   5   6
ATOM      6  C   LIG    1        3.455   1.886   0.690  0.00  0.00    +0.400 C 
ATOM      7  O   LIG    1        3.312   3.069   0.917  0.00  0.00    -0.420 OA
BRANCH   6   8
ATOM      8  C   LIG    1        4.691   1.203   1.101  0.00  0.00    -0.160 A 
ATOM      9  C   LIG    1        4.857  -0.163   0.846  0.00  0.00    +0.080 A 
ATOM     10  C   LIG    1        6.020  -0.795   1.230  0.00  0.00    +0.020 A 
ATOM     11  C   LIG    1        7.018  -0.085   1.877  0.00  0.00    -0.000 A 
ATOM     12  C   LIG    1        6.858   1.267   2.138  0.00  0.00    +0.020 A 
ATOM     13 CL   LIG    1        8.476  -0.891   2.364  0.00  0.00    -0.050 Cl
ATOM     14  C   LIG    1        5.703   1.914   1.755  0.00  0.00    +0.110 A 
ENDBRANCH   6   8
ENDBRANCH   5   6
ENDBRANCH   3   5
ENDBRANCH   1   3
BRANCH   1  15
ATOM     15  C   LIG    1       -1.329   1.940   0.019  0.00  0.00    +0.140 C 
BRANCH  15  16
ATOM     16  C   LIG    1       -2.479   0.930   0.019  0.00  0.00    +0.150 C 
BRANCH  16  17
ATOM     17  C   LIG    1       -3.794   1.665   0.029  0.00  0.00    +0.450 A 
ATOM     18  N   LIG    1       -3.773   2.969   0.041  0.00  0.00    -0.600 NA
ATOM     19  C   LIG    1       -4.906   3.697   0.045  0.00  0.00    +0.530 A 
ATOM     20  C   LIG    1       -6.192   2.977   0.048  0.00  0.00    -0.210 A 
ATOM     21  C   LIG    1       -7.413   3.645   0.057  0.00  0.00    +0.110 A 
ATOM     22  C   LIG    1       -8.584   2.917   0.058  0.00  0.00    -0.010 A 
ATOM     23  C   LIG    1       -8.550   1.530   0.050  0.00  0.00    +0.080 A 
ATOM     24  C   LIG    1       -7.348   0.855   0.041  0.00  0.00    -0.020 A 
ATOM     25  C   LIG    1       -6.158   1.570   0.040  0.00  0.00    +0.170 A 
ATOM     26  O   LIG    1       -4.869   4.915   0.052  0.00  0.00    -0.480 OA
ATOM     27  N   LIG    1       -4.928   0.943   0.030  0.00  0.00    -0.620 N 
ATOM     28  H   LIG    1       -4.881  -0.026   0.025  0.00  0.00    +0.420 HD
ENDBRANCH  16  17
ENDBRANCH  15  16
ENDBRANCH   1  15
TORSDOF 7
