REMARK  Name = ZINCrD000000CDdG.0
REMARK                            x       y       z     vdW  Elec       q    Type
REMARK                         _______ _______ _______ _____ _____    ______ ____
ROOT
ATOM      1  O   LIG    1        2.034   4.986  -0.048  0.00  0.00    -0.510 OA
ATOM      2  C   LIG    1        2.197   3.788   0.085  0.00  0.00    +0.570 C 
ATOM      3  N   LIG    1        3.441   3.271   0.060  0.00  0.00    -0.590 N 
ENDROOT
BRANCH   2   4
ATOM      4  C   LIG    1        1.030   2.900   0.274  0.00  0.00    -0.130 A 
ATOM      5  C   LIG    1        0.926   1.713  -0.453  0.00  0.00    +0.020 A 
ATOM      6  C   LIG    1       -0.166   0.893  -0.270  0.00  0.00    +0.020 A 
ATOM      7  C   LIG    1       -1.166   1.241   0.627  0.00  0.00    -0.100 A 
ATOM      8  C   LIG    1       -2.350   0.321   0.780  0.00  0.00    +0.280 C 
ATOM      9  O   LIG    1       -3.065   0.630   1.975  0.00  0.00    -0.370 OA
ATOM     10  C   LIG    1       -3.408   2.016   2.084  0.00  0.00    +0.220 C 
ATOM     11  C   LIG    1       -2.122   2.807   2.353  0.00  0.00    +0.060 C 
ATOM     12  C   LIG    1       -1.063   2.410   1.356  0.00  0.00    -0.070 A 
ATOM     13  C   LIG    1        0.027   3.242   1.180  0.00  0.00    +0.070 A 
ENDBRANCH   2   4
BRANCH   3  14
ATOM     14  C   LIG    1        3.631   1.818   0.076  0.00  0.00    +0.280 C 
BRANCH  14  15
ATOM     15  C   LIG    1        3.876   1.321  -1.350  0.00  0.00    +0.200 C 
BRANCH  15  16
ATOM     16  C   LIG    1        3.908  -0.209  -1.358  0.00  0.00    +0.420 C 
ATOM     17  F   LIG    1        4.937  -0.658  -0.524  0.00  0.00    -0.180 F 
ATOM     18  F   LIG    1        4.132  -0.664  -2.662  0.00  0.00    -0.170 F 
ATOM     19  F   LIG    1        2.683  -0.703  -0.896  0.00  0.00    -0.170 F 
ENDBRANCH  15  16
BRANCH  15  20
ATOM     20  O   LIG    1        5.127   1.826  -1.822  0.00  0.00    -0.520 OA
ATOM     21  H   LIG    1        5.887   1.553  -1.290  0.00  0.00    +0.390 HD
ENDBRANCH  15  20
ENDBRANCH  14  15
ENDBRANCH   3  14
BRANCH   3  22
ATOM     22  C   LIG    1        4.604   4.161   0.017  0.00  0.00    +0.350 C 
BRANCH  22  23
ATOM     23  C   LIG    1        5.039   4.486   1.423  0.00  0.00    -0.110 A 
ATOM     24  C   LIG    1        4.516   5.589   2.071  0.00  0.00    +0.030 A 
ATOM     25  C   LIG    1        4.912   5.885   3.362  0.00  0.00    +0.000 A 
ATOM     26  C   LIG    1        5.839   5.083   4.001  0.00  0.00    +0.010 A 
ATOM     27  C   LIG    1        6.366   3.983   3.351  0.00  0.00    +0.000 A 
ATOM     28  C   LIG    1        5.967   3.685   2.062  0.00  0.00    +0.010 A 
ENDBRANCH  22  23
ENDBRANCH   3  22
TORSDOF 7
