REMARK  Name = ZINCrg000000sbIk.0
REMARK                            x       y       z     vdW  Elec       q    Type
REMARK                         _______ _______ _______ _____ _____    ______ ____
ROOT
ATOM      1  N   LIG    1       -2.784   1.328  -0.424  0.00  0.00    -1.000 NA
ATOM      2  C   LIG    1       -1.994   0.656  -1.465  0.00  0.00    +0.290 C 
ATOM      3  C   LIG    1       -0.570   1.220  -1.444  0.00  0.00    +0.060 C 
ATOM      4  C   LIG    1        0.007   1.086  -0.033  0.00  0.00    -0.010 C 
ATOM      5  C   LIG    1       -0.847   1.894   0.947  0.00  0.00    +0.030 C 
ATOM      6  C   LIG    1       -2.274   1.338   0.954  0.00  0.00    +0.300 C 
ENDROOT
BRANCH   4   7
ATOM      7  C   LIG    1        1.420   1.609  -0.017  0.00  0.00    +0.520 C 
ATOM      8  N   LIG    1        2.214   1.372   1.046  0.00  0.00    -0.600 N 
ATOM      9  C   LIG    1        3.553   1.963   1.106  0.00  0.00    +0.290 C 
ATOM     10  O   LIG    1        1.843   2.243  -0.960  0.00  0.00    -0.520 OA
BRANCH   8  11
ATOM     11  C   LIG    1        1.738   0.523   2.141  0.00  0.00    +0.250 C 
ATOM     12  C   LIG    1        1.894   1.259   3.484  0.00  0.00    +0.070 C 
ATOM     13  C   LIG    1        1.715   0.241   4.628  0.00  0.00    -0.300 C 
ATOM     14  S   LIG    1        2.242  -1.363   3.926  0.00  0.00    +2.390 S 
ATOM     15  O   LIG    1        3.451  -1.778   4.547  0.00  0.00    -0.930 OA
ATOM     16  O   LIG    1        1.129  -2.247   3.883  0.00  0.00    -0.930 OA
ATOM     17  C   LIG    1        2.604  -0.759   2.234  0.00  0.00    -0.310 C 
ENDBRANCH   8  11
ENDBRANCH   4   7
BRANCH   1  18
ATOM     18  S   LIG    1       -4.221   2.061  -0.797  0.00  0.00    +2.690 S 
ATOM     19  O   LIG    1       -4.168   2.368  -2.183  0.00  0.00    -0.950 OA
ATOM     20  O   LIG    1       -4.444   3.042   0.208  0.00  0.00    -0.950 OA
BRANCH  18  25
ATOM     21  C   LIG    1       -8.562  -2.076  -0.133  0.00  0.00    +0.090 C 
ATOM     22  C   LIG    1       -7.478  -1.043  -0.299  0.00  0.00    -0.030 A 
ATOM     23  C   LIG    1       -7.114  -0.246   0.770  0.00  0.00    -0.010 A 
ATOM     24  C   LIG    1       -6.119   0.702   0.618  0.00  0.00    +0.120 A 
ATOM     25  C   LIG    1       -5.489   0.853  -0.603  0.00  0.00    -0.690 A 
ATOM     26  C   LIG    1       -5.858   0.060  -1.674  0.00  0.00    +0.120 A 
ATOM     27  C   LIG    1       -6.849  -0.891  -1.520  0.00  0.00    -0.010 A 
ENDBRANCH  18  25
ENDBRANCH   1  18
TORSDOF 4
