REMARK  Name = ZINCpe00000MJLoD.0
REMARK                            x       y       z     vdW  Elec       q    Type
REMARK                         _______ _______ _______ _____ _____    ______ ____
ROOT
ATOM      1  C   LIG    1        1.089  -1.010  -0.134  0.00  0.00    +0.160 C 
ATOM      2  C   LIG    1        0.069  -1.076  -1.285  0.00  0.00    +0.280 C 
ATOM      3  N   LIG    1       -0.742  -1.918  -0.385  0.00  0.00    -0.640 N 
ATOM      4  C   LIG    1       -1.692  -2.856  -0.570  0.00  0.00    +0.550 C 
ATOM      5  O   LIG    1       -2.102  -3.092  -1.686  0.00  0.00    -0.530 OA
ATOM      6  C   LIG    1       -0.095  -1.321   0.800  0.00  0.00    +0.290 C 
ENDROOT
BRANCH   4   7
ATOM      7  C   LIG    1       -2.244  -3.612   0.611  0.00  0.00    +0.010 C 
ATOM      8  C   LIG    1       -3.514  -2.919   1.112  0.00  0.00    +0.040 C 
ATOM      9  C   LIG    1       -3.933  -3.527   2.457  0.00  0.00    +0.110 C 
ATOM     10  C   LIG    1       -3.953  -5.028   2.314  0.00  0.00    -0.240 A 
ATOM     11  C   LIG    1       -3.352  -5.705   1.303  0.00  0.00    +0.090 A 
ATOM     12  N   LIG    1       -3.578  -7.016   1.494  0.00  0.00    -0.370 N 
ATOM     13  N   LIG    1       -4.342  -7.154   2.662  0.00  0.00    -0.300 NA
ATOM     14  C   LIG    1       -3.110  -8.106   0.635  0.00  0.00    +0.360 C 
ATOM     15  C   LIG    1       -4.565  -5.959   3.151  0.00  0.00    +0.240 A 
ATOM     16  C   LIG    1       -2.578  -5.048   0.188  0.00  0.00    +0.140 C 
ENDBRANCH   4   7
BRANCH   1  17
ATOM     17  O   LIG    1        1.651   0.289   0.063  0.00  0.00    -0.360 OA
BRANCH  17  18
ATOM     18  C   LIG    1        3.047   0.369  -0.232  0.00  0.00    +0.360 C 
BRANCH  18  22
ATOM     19  C   LIG    1        4.308   3.542   0.878  0.00  0.00    +0.170 A 
ATOM     20  N   LIG    1        4.005   3.773  -0.364  0.00  0.00    -0.370 NA
ATOM     21  O   LIG    1        3.557   2.772  -0.881  0.00  0.00    +0.090 OA
ATOM     22  C   LIG    1        3.532   1.775   0.009  0.00  0.00    +0.180 A 
ATOM     23  N   LIG    1        4.003   2.257   1.134  0.00  0.00    -0.460 NA
BRANCH  19  25
ATOM     24  C   LIG    1        3.756   5.256   2.582  0.00  0.00    +0.040 C 
ATOM     25  C   LIG    1        4.890   4.532   1.854  0.00  0.00    +0.160 C 
ENDBRANCH  19  25
ENDBRANCH  18  22
ENDBRANCH  17  18
ENDBRANCH   1  17
TORSDOF 5
