REMARK  Name = ZINCrD0000070Yos.0
REMARK                            x       y       z     vdW  Elec       q    Type
REMARK                         _______ _______ _______ _____ _____    ______ ____
ROOT
ATOM      1  O   LIG    1       -5.019   1.167   1.296  0.00  0.00    -0.330 OA
ENDROOT
BRANCH   1   2
ATOM      2  C   LIG    1       -3.674   1.079   1.251  0.00  0.00    +0.540 C 
ATOM      3  O   LIG    1       -3.101   1.070   0.178  0.00  0.00    -0.490 OA
BRANCH   2   8
ATOM      4  C   LIG    1       -1.228   0.845   3.966  0.00  0.00    -0.260 A 
ATOM      5  C   LIG    1       -2.427   0.903   4.660  0.00  0.00    +0.120 A 
ATOM      6  N   LIG    1       -3.427   0.988   3.771  0.00  0.00    -0.510 N 
ATOM      7  H   LIG    1       -4.370   1.043   3.990  0.00  0.00    +0.430 HD
ATOM      8  C   LIG    1       -2.903   0.992   2.495  0.00  0.00    -0.050 A 
ATOM      9  C   LIG    1       -2.580   0.875   6.159  0.00  0.00    +0.160 C 
ATOM     10  C   LIG    1       -1.546   0.899   2.588  0.00  0.00    -0.020 A 
ATOM     11  C   LIG    1       -0.569   0.866   1.441  0.00  0.00    +0.140 C 
BRANCH   4  13
ATOM     12  C   LIG    1        0.908   1.995   4.830  0.00  0.00    +0.080 C 
ATOM     13  C   LIG    1        0.113   0.745   4.549  0.00  0.00    +0.440 C 
ATOM     14  O   LIG    1        0.584  -0.343   4.806  0.00  0.00    -0.450 OA
ENDBRANCH   4  13
ENDBRANCH   2   8
ENDBRANCH   1   2
BRANCH   1  15
ATOM     15  C   LIG    1       -5.717   1.250   0.025  0.00  0.00    +0.190 C 
ATOM     16  C   LIG    1       -5.866   2.717  -0.381  0.00  0.00    +0.080 C 
BRANCH  15  17
ATOM     17  C   LIG    1       -7.082   0.625   0.161  0.00  0.00    +0.530 C 
ATOM     18  N   LIG    1       -7.868   0.482  -0.925  0.00  0.00    -0.550 N 
ATOM     19  C   LIG    1       -9.188   0.022  -0.903  0.00  0.00    +0.140 A 
ATOM     20  C   LIG    1       -9.973  -0.365   0.185  0.00  0.00    +0.010 A 
ATOM     21  C   LIG    1      -11.271  -0.786  -0.009  0.00  0.00    +0.040 A 
ATOM     22  C   LIG    1      -11.808  -0.823  -1.283  0.00  0.00    -0.010 A 
ATOM     23  C   LIG    1      -11.039  -0.435  -2.365  0.00  0.00    +0.050 A 
ATOM     24  C   LIG    1       -9.738  -0.012  -2.175  0.00  0.00    -0.130 A 
ATOM     25  C   LIG    1       -8.694   0.458  -3.163  0.00  0.00    +0.120 C 
ATOM     26  C   LIG    1       -7.462   0.779  -2.301  0.00  0.00    +0.220 C 
ATOM     27  C   LIG    1       -6.283  -0.106  -2.710  0.00  0.00    +0.050 C 
ATOM     28  O   LIG    1       -7.472   0.250   1.246  0.00  0.00    -0.490 OA
ENDBRANCH  15  17
ENDBRANCH   1  15
TORSDOF 5
