REMARK  Name = ZINCqH0000006ZO6.0
REMARK                            x       y       z     vdW  Elec       q    Type
REMARK                         _______ _______ _______ _____ _____    ______ ____
ROOT
ATOM      1  S   LIG    1       -0.022   1.758   0.012  0.00  0.00    +0.150 S 
ENDROOT
BRANCH   1   5
ATOM      2  C   LIG    1       -0.594  -2.080  -0.003  0.00  0.00    +0.220 A 
ATOM      3  N   LIG    1        0.715  -2.003  -0.015  0.00  0.00    -0.270 NA
ATOM      4  N   LIG    1        1.071  -0.766  -0.018  0.00  0.00    -0.290 NA
ATOM      5  C   LIG    1        0.002  -0.004   0.002  0.00  0.00    +0.120 A 
ATOM      6  O   LIG    1       -1.073  -0.816   0.008  0.00  0.00    -0.200 OA
BRANCH   2  10
ATOM      7  C   LIG    1       -2.904  -5.645  -0.000  0.00  0.00    +0.160 A 
ATOM      8  C   LIG    1       -1.517  -5.718  -0.014  0.00  0.00    +0.000 A 
ATOM      9  C   LIG    1       -0.764  -4.564  -0.015  0.00  0.00    +0.130 A 
ATOM     10  C   LIG    1       -1.397  -3.319  -0.002  0.00  0.00    -0.070 A 
ATOM     11  C   LIG    1       -2.792  -3.250   0.017  0.00  0.00    +0.100 A 
ATOM     12  C   LIG    1       -3.538  -4.409   0.013  0.00  0.00    -0.070 A 
BRANCH   7  14
ATOM     13  C   LIG    1       -5.064  -6.637   0.016  0.00  0.00    +0.250 C 
ATOM     14  O   LIG    1       -3.643  -6.785   0.001  0.00  0.00    -0.310 OA
ENDBRANCH   7  14
ENDBRANCH   2  10
ENDBRANCH   1   5
BRANCH   1  15
ATOM     15  C   LIG    1        1.756   2.096  -0.004  0.00  0.00    +0.090 C 
BRANCH  15  16
ATOM     16  C   LIG    1        1.984   3.586   0.002  0.00  0.00    +0.540 C 
ATOM     17  N   LIG    1        3.240   4.076  -0.007  0.00  0.00    -0.710 N 
ATOM     18  H   LIG    1        3.997   3.469  -0.018  0.00  0.00    +0.400 HD
ATOM     19  O   LIG    1        1.037   4.344   0.015  0.00  0.00    -0.520 OA
BRANCH  17  20
ATOM     20  C   LIG    1        3.461   5.524  -0.001  0.00  0.00    +0.240 C 
ATOM     21  C   LIG    1        3.400   6.055  -1.435  0.00  0.00    +0.010 C 
ATOM     22  C   LIG    1        4.483   5.377  -2.276  0.00  0.00    +0.000 C 
ATOM     23  C   LIG    1        5.858   5.680  -1.678  0.00  0.00    +0.000 C 
ATOM     24  C   LIG    1        5.919   5.149  -0.245  0.00  0.00    -0.020 C 
ATOM     25  C   LIG    1        7.294   5.452   0.354  0.00  0.00    +0.030 C 
ATOM     26  C   LIG    1        4.836   5.827   0.597  0.00  0.00    +0.000 C 
ATOM     27  C   LIG    1        4.897   5.296   2.030  0.00  0.00    +0.020 C 
ENDBRANCH  17  20
ENDBRANCH  15  16
ENDBRANCH   1  15
TORSDOF 6
