REMARK  Name = ZINCqH0000008ao8.1
REMARK                            x       y       z     vdW  Elec       q    Type
REMARK                         _______ _______ _______ _____ _____    ______ ____
ROOT
ATOM      1  N   LIG    1       -5.643   2.387   8.013  0.00  0.00    -0.510 NA
ATOM      2  C   LIG    1       -4.894   3.521   8.570  0.00  0.00    +0.180 C 
ATOM      3  C   LIG    1       -4.886   4.670   7.559  0.00  0.00    +0.180 C 
ATOM      4  N   LIG    1       -4.280   4.209   6.302  0.00  0.00    -0.540 NA
ATOM      5  C   LIG    1       -5.029   3.074   5.745  0.00  0.00    +0.180 C 
ATOM      6  C   LIG    1       -5.037   1.925   6.756  0.00  0.00    +0.190 C 
ENDROOT
BRANCH   1   8
ATOM      7  C   LIG    1       -6.330   0.054   8.305  0.00  0.00    +0.070 C 
ATOM      8  C   LIG    1       -5.738   1.290   8.985  0.00  0.00    +0.180 C 
BRANCH   8   9
ATOM      9  C   LIG    1       -4.363   0.964   9.510  0.00  0.00    +0.490 C 
ATOM     10  N   LIG    1       -4.220   0.429  10.739  0.00  0.00    -0.670 N 
ATOM     11  H   LIG    1       -5.003   0.175  11.251  0.00  0.00    +0.410 HD
ATOM     12  O   LIG    1       -3.385   1.182   8.826  0.00  0.00    -0.510 OA
BRANCH  10  13
ATOM     13  C   LIG    1       -2.942   0.240  11.275  0.00  0.00    +0.170 A 
ATOM     14  C   LIG    1       -1.885  -0.114  10.447  0.00  0.00    +0.020 A 
ATOM     15  C   LIG    1       -0.622  -0.294  10.977  0.00  0.00    +0.070 A 
ATOM     16  C   LIG    1       -0.411  -0.133  12.333  0.00  0.00    -0.030 A 
ATOM     17  C   LIG    1       -1.463   0.214  13.165  0.00  0.00    +0.120 A 
ATOM     18  F   LIG    1       -1.254   0.371  14.490  0.00  0.00    -0.140 F 
ATOM     19  C   LIG    1       -2.728   0.402  12.638  0.00  0.00    -0.040 A 
ENDBRANCH  10  13
ENDBRANCH   8   9
ENDBRANCH   1   8
BRANCH   4  20
ATOM     20  C   LIG    1       -4.186   5.306   5.329  0.00  0.00    +0.160 C 
BRANCH  20  21
ATOM     21  C   LIG    1       -3.333   4.860   4.139  0.00  0.00    +0.020 C 
BRANCH  21  22
ATOM     22  C   LIG    1       -3.235   6.002   3.126  0.00  0.00    +0.010 C 
BRANCH  22  23
ATOM     23  C   LIG    1       -2.382   5.557   1.936  0.00  0.00    -0.020 C 
ATOM     24  C   LIG    1       -0.894   5.420   2.356  0.00  0.00    +0.020 C 
ATOM     25  C   LIG    1       -0.148   5.579   1.008  0.00  0.00    -0.010 C 
ATOM     26  C   LIG    1       -0.949   6.659   0.253  0.00  0.00    -0.010 C 
ATOM     27  C   LIG    1       -2.370   6.645   0.843  0.00  0.00    +0.000 C 
ENDBRANCH  22  23
ENDBRANCH  21  22
ENDBRANCH  20  21
ENDBRANCH   4  20
TORSDOF 7
