REMARK  Name = ZINCah0000001hHK.0
REMARK                            x       y       z     vdW  Elec       q    Type
REMARK                         _______ _______ _______ _____ _____    ______ ____
ROOT
ATOM      1  C   LIG    1       -0.442   1.377  -2.463  0.00  0.00    +0.530 C 
ATOM      2  N   LIG    1       -0.744   1.583  -1.166  0.00  0.00    -0.630 N 
ATOM      3  C   LIG    1       -0.013   1.086   0.008  0.00  0.00    +0.280 C 
ATOM      4  C   LIG    1       -0.739   1.582   1.230  0.00  0.00    -0.010 C 
ATOM      5  C   LIG    1       -1.781   2.287   0.874  0.00  0.00    -0.020 C 
ATOM      6  C   LIG    1       -1.875   2.352  -0.628  0.00  0.00    +0.280 C 
ATOM      7  O   LIG    1        0.530   0.715  -2.761  0.00  0.00    -0.530 OA
ENDROOT
BRANCH   1   8
ATOM      8  C   LIG    1       -1.311   1.968  -3.543  0.00  0.00    +0.050 C 
BRANCH   8  10
ATOM      9  C   LIG    1       -1.633   2.186  -6.011  0.00  0.00    +0.020 C 
ATOM     10  C   LIG    1       -0.751   1.586  -4.915  0.00  0.00    +0.030 C 
ENDBRANCH   8  10
ENDBRANCH   1   8
TORSDOF 2
