REMARK  Name = ZINCvU0000000AmH.0
REMARK                            x       y       z     vdW  Elec       q    Type
REMARK                         _______ _______ _______ _____ _____    ______ ____
ROOT
ATOM      1  N   LIG    1       -1.647   1.737  -0.020  0.00  0.00    -0.480 N 
ATOM      2  C   LIG    1       -0.492   1.215  -0.568  0.00  0.00    +0.050 A 
ATOM      3  C   LIG    1        0.665   1.772  -1.096  0.00  0.00    +0.010 A 
ATOM      4  C   LIG    1        1.665   0.949  -1.569  0.00  0.00    +0.030 A 
ATOM      5  C   LIG    1        1.522  -0.430  -1.521  0.00  0.00    +0.000 A 
ATOM      6  C   LIG    1        0.390  -0.996  -1.004  0.00  0.00    +0.070 A 
ATOM      7  C   LIG    1       -0.636  -0.182  -0.519  0.00  0.00    +0.050 A 
ATOM      8  N   LIG    1       -1.848  -0.435   0.038  0.00  0.00    -0.480 NA
ATOM      9  C   LIG    1       -2.440   0.688   0.327  0.00  0.00    +0.290 A 
ENDROOT
BRANCH   9  10
ATOM     10  C   LIG    1       -3.803   0.807   0.959  0.00  0.00    +0.080 C 
ATOM     11  C   LIG    1       -4.880   0.125   0.085  0.00  0.00    +0.090 C 
ATOM     12  C   LIG    1       -5.826  -0.502   1.085  0.00  0.00    +0.520 C 
ATOM     13  N   LIG    1       -5.245  -0.566   2.295  0.00  0.00    -0.560 N 
ATOM     14  O   LIG    1       -6.947  -0.890   0.831  0.00  0.00    -0.500 OA
ATOM     15  C   LIG    1       -3.882  -0.019   2.262  0.00  0.00    +0.300 C 
BRANCH  13  16
ATOM     16  C   LIG    1       -5.859  -1.086   3.440  0.00  0.00    +0.170 A 
ATOM     17  C   LIG    1       -5.217  -1.010   4.669  0.00  0.00    -0.040 A 
ATOM     18  C   LIG    1       -5.826  -1.524   5.797  0.00  0.00    -0.060 A 
ATOM     19  C   LIG    1       -7.073  -2.114   5.703  0.00  0.00    -0.020 A 
ATOM     20  C   LIG    1       -7.715  -2.191   4.481  0.00  0.00    +0.040 A 
ATOM     21  C   LIG    1       -5.130  -1.443   7.131  0.00  0.00    +0.090 C 
ATOM     22  C   LIG    1       -7.114  -1.674   3.350  0.00  0.00    -0.010 A 
ENDBRANCH  13  16
ENDBRANCH   9  10
BRANCH   1  23
ATOM     23  C   LIG    1       -1.964   3.157   0.148  0.00  0.00    +0.360 C 
BRANCH  23  29
ATOM     24  C   LIG    1       -4.064   3.810   4.643  0.00  0.00    +0.090 C 
ATOM     25  C   LIG    1       -2.848   3.842   3.753  0.00  0.00    -0.090 A 
ATOM     26  C   LIG    1       -1.622   4.214   4.273  0.00  0.00    +0.030 A 
ATOM     27  C   LIG    1       -0.506   4.243   3.457  0.00  0.00    +0.020 A 
ATOM     28  C   LIG    1       -0.616   3.897   2.123  0.00  0.00    -0.060 A 
ATOM     29  C   LIG    1       -1.843   3.530   1.603  0.00  0.00    -0.120 A 
ATOM     30  C   LIG    1        0.601   3.924   1.235  0.00  0.00    +0.080 C 
ATOM     31  C   LIG    1       -2.959   3.500   2.418  0.00  0.00    +0.010 A 
ENDBRANCH  23  29
ENDBRANCH   1  23
TORSDOF 4
