REMARK  Name = ZINCrD00000eG18h.0
REMARK                            x       y       z     vdW  Elec       q    Type
REMARK                         _______ _______ _______ _____ _____    ______ ____
ROOT
ATOM      1  C   LIG    1       -5.408   0.343  -1.564  0.00  0.00    +0.530 C 
ATOM      2  N   LIG    1       -4.083   0.419  -1.331  0.00  0.00    -0.730 N 
ATOM      3  H   LIG    1       -3.458   0.386  -2.072  0.00  0.00    +0.400 HD
ATOM      4  O   LIG    1       -6.190   0.385  -0.638  0.00  0.00    -0.520 OA
ENDROOT
BRANCH   1   6
ATOM      5  C   LIG    1       -5.360  -1.075  -3.598  0.00  0.00    +0.060 C 
ATOM      6  C   LIG    1       -5.919   0.206  -2.975  0.00  0.00    +0.060 C 
BRANCH   6   7
ATOM      7  C   LIG    1       -7.425   0.143  -2.961  0.00  0.00    -0.160 A 
ATOM      8  C   LIG    1       -8.147   1.081  -3.623  0.00  0.00    +0.140 A 
ATOM      9  C   LIG    1       -9.608   0.990  -3.589  0.00  0.00    -0.130 A 
ATOM     10  C   LIG    1      -10.406   1.928  -4.253  0.00  0.00    +0.090 A 
ATOM     11  C   LIG    1      -11.767   1.815  -4.202  0.00  0.00    -0.020 A 
ATOM     12  C   LIG    1      -12.364   0.779  -3.498  0.00  0.00    +0.070 A 
ATOM     13  C   LIG    1      -11.597  -0.156  -2.836  0.00  0.00    -0.040 A 
ATOM     14  C   LIG    1      -10.210  -0.062  -2.874  0.00  0.00    +0.190 A 
ATOM     15  N   LIG    1       -9.419  -0.984  -2.222  0.00  0.00    -0.630 N 
ATOM     16  H   LIG    1       -9.835  -1.708  -1.730  0.00  0.00    +0.420 HD
ATOM     17  C   LIG    1       -8.078  -0.896  -2.263  0.00  0.00    +0.550 A 
ATOM     18  O   LIG    1       -7.409  -1.731  -1.679  0.00  0.00    -0.520 OA
ENDBRANCH   6   7
ENDBRANCH   1   6
BRANCH   2  19
ATOM     19  C   LIG    1       -3.587   0.552   0.041  0.00  0.00    +0.400 C 
BRANCH  19  20
ATOM     20  C   LIG    1       -2.081   0.616   0.026  0.00  0.00    +0.270 A 
ATOM     21  N   LIG    1       -1.292  -0.418   0.013  0.00  0.00    -0.460 NA
ATOM     22  C   LIG    1        0.002  -0.004   0.002  0.00  0.00    +0.010 A 
ATOM     23  C   LIG    1        1.229  -0.676  -0.013  0.00  0.00    +0.160 A 
ATOM     24  C   LIG    1        2.404   0.046  -0.021  0.00  0.00    -0.010 A 
ATOM     25  C   LIG    1        2.377   1.433  -0.013  0.00  0.00    +0.070 A 
ATOM     26  C   LIG    1        1.176   2.110   0.002  0.00  0.00    +0.010 A 
ATOM     27  F   LIG    1        1.263  -2.026  -0.021  0.00  0.00    -0.130 F 
ATOM     28  C   LIG    1       -0.017   1.400   0.010  0.00  0.00    +0.080 A 
ATOM     29  N   LIG    1       -1.349   1.763   0.030  0.00  0.00    -0.590 N 
ATOM     30  H   LIG    1       -1.698   2.668   0.040  0.00  0.00    +0.430 HD
ENDBRANCH  19  20
ENDBRANCH   2  19
TORSDOF 4
