REMARK  Name = ZINCrH00000No52E.0
REMARK                            x       y       z     vdW  Elec       q    Type
REMARK                         _______ _______ _______ _____ _____    ______ ____
ROOT
ATOM      1  C   LIG    1       -1.401   3.896   0.091  0.00  0.00    +0.570 C 
ATOM      2  N   LIG    1       -0.307   3.415  -0.532  0.00  0.00    -0.600 N 
ATOM      3  O   LIG    1       -2.487   3.386  -0.107  0.00  0.00    -0.510 OA
ENDROOT
BRANCH   1   8
ATOM      4  C   LIG    1       -1.928   6.164   3.043  0.00  0.00    +0.150 A 
ATOM      5  C   LIG    1       -1.049   7.196   2.749  0.00  0.00    -0.030 A 
ATOM      6  C   LIG    1       -0.287   7.154   1.595  0.00  0.00    +0.000 A 
ATOM      7  C   LIG    1       -0.393   6.082   0.731  0.00  0.00    +0.010 A 
ATOM      8  C   LIG    1       -1.280   5.043   1.017  0.00  0.00    -0.080 A 
ATOM      9 CL   LIG    1        0.811   8.450   1.235  0.00  0.00    -0.050 Cl
ATOM     10  C   LIG    1       -2.047   5.087   2.181  0.00  0.00    +0.060 A 
BRANCH   4  12
ATOM     11  C   LIG    1       -2.502   7.350   5.022  0.00  0.00    +0.250 C 
ATOM     12  O   LIG    1       -2.674   6.210   4.178  0.00  0.00    -0.310 OA
ENDBRANCH   4  12
ENDBRANCH   1   8
BRANCH   2  13
ATOM     13  C   LIG    1       -0.439   2.334  -1.512  0.00  0.00    +0.320 C 
BRANCH  13  14
ATOM     14  C   LIG    1       -0.313   0.984  -0.803  0.00  0.00    -0.050 C 
ATOM     15  C   LIG    1        0.871   0.092  -1.183  0.00  0.00    +0.030 C 
ATOM     16  C   LIG    1       -0.540  -0.275  -1.637  0.00  0.00    -0.120 C 
ATOM     17  C   LIG    1       -0.885  -0.099  -3.119  0.00  0.00    +0.030 C 
ATOM     18  C   LIG    1       -2.411  -0.127  -3.270  0.00  0.00    +0.200 C 
ATOM     19  O   LIG    1       -2.923  -1.319  -2.670  0.00  0.00    -0.380 OA
ATOM     20  C   LIG    1       -2.724  -1.404  -1.257  0.00  0.00    +0.200 C 
ATOM     21  C   LIG    1       -1.222  -1.469  -0.959  0.00  0.00    +0.030 C 
ENDBRANCH  13  14
ENDBRANCH   2  13
BRANCH   2  22
ATOM     22  C   LIG    1        1.013   3.973  -0.231  0.00  0.00    +0.370 C 
BRANCH  22  23
ATOM     23  C   LIG    1        1.735   4.280  -1.518  0.00  0.00    -0.000 A 
ATOM     24  N   LIG    1        2.441   3.453  -2.232  0.00  0.00    -0.350 NA
ATOM     25  O   LIG    1        2.898   3.990  -3.214  0.00  0.00    +0.110 OA
ATOM     26  C   LIG    1        2.544   5.282  -3.279  0.00  0.00    +0.170 A 
ATOM     27  C   LIG    1        1.774   5.523  -2.191  0.00  0.00    -0.060 A 
ENDBRANCH  22  23
ENDBRANCH   2  22
TORSDOF 6
