REMARK  Name = ZINCqH0000007vn1.0
REMARK                            x       y       z     vdW  Elec       q    Type
REMARK                         _______ _______ _______ _____ _____    ______ ____
ROOT
ATOM      1  C   LIG    1        1.733   3.799  -1.435  0.00  0.00    +0.510 C 
ATOM      2  N   LIG    1        2.269   5.016  -1.655  0.00  0.00    -0.680 N 
ATOM      3  H   LIG    1        2.428   5.618  -0.911  0.00  0.00    +0.410 HD
ATOM      4  O   LIG    1        1.445   3.086  -2.373  0.00  0.00    -0.500 OA
ENDROOT
BRANCH   2   5
ATOM      5  C   LIG    1        2.595   5.413  -2.957  0.00  0.00    +0.150 A 
ATOM      6  C   LIG    1        2.478   6.747  -3.327  0.00  0.00    -0.010 A 
ATOM      7  C   LIG    1        2.799   7.144  -4.612  0.00  0.00    +0.040 A 
ATOM      8  C   LIG    1        3.237   6.217  -5.535  0.00  0.00    -0.010 A 
ATOM      9  C   LIG    1        3.358   4.874  -5.174  0.00  0.00    +0.010 A 
ATOM     10  C   LIG    1        3.039   4.475  -3.877  0.00  0.00    +0.070 A 
BRANCH   9  11
ATOM     11  C   LIG    1        3.828   3.879  -6.162  0.00  0.00    +0.240 A 
ATOM     12  N   LIG    1        3.988   2.593  -5.942  0.00  0.00    -0.470 NA
ATOM     13  C   LIG    1        4.423   2.005  -7.062  0.00  0.00    +0.150 A 
ATOM     14  C   LIG    1        4.550   2.949  -8.017  0.00  0.00    +0.140 A 
ATOM     15  N   LIG    1        4.175   4.140  -7.455  0.00  0.00    -0.560 N 
ATOM     16  H   LIG    1        4.159   5.005  -7.893  0.00  0.00    +0.420 HD
ENDBRANCH   9  11
ENDBRANCH   2   5
BRANCH   1  17
ATOM     17  C   LIG    1        1.492   3.325  -0.025  0.00  0.00    +0.150 C 
BRANCH  17  25
ATOM     18  C   LIG    1        3.347  -0.984  -0.313  0.00  0.00    +0.100 A 
ATOM     19  C   LIG    1        2.379  -1.984  -0.309  0.00  0.00    -0.050 A 
ATOM     20  C   LIG    1        1.042  -1.667  -0.225  0.00  0.00    +0.030 A 
ATOM     21  C   LIG    1        0.647  -0.336  -0.145  0.00  0.00    +0.070 A 
ATOM     22  N   LIG    1       -0.582   0.284  -0.054  0.00  0.00    -0.590 N 
ATOM     23  H   LIG    1       -1.437  -0.174  -0.031  0.00  0.00    +0.420 HD
ATOM     24  C   LIG    1       -0.415   1.641  -0.002  0.00  0.00    +0.250 A 
ATOM     25  C   LIG    1        0.891   1.944  -0.055  0.00  0.00    -0.170 A 
ATOM     26  C   LIG    1        1.622   0.678  -0.150  0.00  0.00    -0.050 A 
ATOM     27  C   LIG    1        2.975   0.344  -0.235  0.00  0.00    +0.020 A 
BRANCH  18  29
ATOM     28  C   LIG    1        4.978  -2.706  -0.475  0.00  0.00    +0.230 C 
ATOM     29  O   LIG    1        4.663  -1.315  -0.396  0.00  0.00    -0.320 OA
ENDBRANCH  18  29
ENDBRANCH  17  25
ENDBRANCH   1  17
TORSDOF 5
