REMARK  Name = ZINCpe00000VVH2Y.0
REMARK                            x       y       z     vdW  Elec       q    Type
REMARK                         _______ _______ _______ _____ _____    ______ ____
ROOT
ATOM      1  C   LIG    1       -2.573   1.457   0.020  0.00  0.00    +0.100 C 
ATOM      2  C   LIG    1       -3.017   1.177   1.458  0.00  0.00    +0.030 C 
ATOM      3  C   LIG    1       -4.460   0.662   1.448  0.00  0.00    +0.050 C 
ATOM      4  C   LIG    1       -4.542  -0.593   0.577  0.00  0.00    +0.200 C 
ATOM      5  N   LIG    1       -4.107  -0.273  -0.789  0.00  0.00    -0.470 N 
ATOM      6  C   LIG    1       -2.710   0.178  -0.809  0.00  0.00    +0.220 C 
ENDROOT
BRANCH   1   9
ATOM      7  C   LIG    1        1.077   1.930   0.002  0.00  0.00    -0.040 A 
ATOM      8  C   LIG    1       -0.013   1.076   0.008  0.00  0.00    +0.020 A 
ATOM      9  C   LIG    1       -1.135   1.907   0.017  0.00  0.00    +0.040 A 
ATOM     10  N   LIG    1       -0.716   3.147   0.025  0.00  0.00    -0.250 NA
ATOM     11  N   LIG    1        0.568   3.197   0.013  0.00  0.00    -0.380 N 
ATOM     12  H   LIG    1        1.095   4.011   0.012  0.00  0.00    +0.440 HD
BRANCH   7  16
ATOM     13  N   LIG    1        3.451   2.501  -0.017  0.00  0.00    -0.850 N 
ATOM     14  H   LIG    1        4.388   2.250  -0.027  0.00  0.00    +0.410 HD
ATOM     15  H   LIG    1        3.200   3.438  -0.010  0.00  0.00    +0.400 HD
ATOM     16  C   LIG    1        2.498   1.548  -0.013  0.00  0.00    +0.600 C 
ATOM     17  O   LIG    1        2.812   0.374  -0.022  0.00  0.00    -0.520 OA
ENDBRANCH   7  16
ENDBRANCH   1   9
BRANCH   5  18
ATOM     18  C   LIG    1       -4.292  -1.352  -1.635  0.00  0.00    +0.520 A 
ATOM     19  N   LIG    1       -5.023  -1.198  -2.729  0.00  0.00    -0.500 NA
ATOM     20  C   LIG    1       -5.222  -2.208  -3.562  0.00  0.00    +0.360 A 
ATOM     21  C   LIG    1       -4.657  -3.438  -3.280  0.00  0.00    -0.070 A 
ATOM     22  C   LIG    1       -3.893  -3.569  -2.121  0.00  0.00    +0.430 A 
ATOM     23  N   LIG    1       -3.730  -2.513  -1.333  0.00  0.00    -0.570 NA
BRANCH  22  24
ATOM     24  N   LIG    1       -3.303  -4.791  -1.797  0.00  0.00    -0.330 N 
ATOM     25  C   LIG    1       -2.535  -5.045  -0.705  0.00  0.00    +0.260 A 
ATOM     26  C   LIG    1       -2.163  -6.345  -0.760  0.00  0.00    -0.100 A 
ATOM     27  C   LIG    1       -2.710  -6.902  -1.922  0.00  0.00    +0.270 A 
ATOM     28  N   LIG    1       -3.392  -5.974  -2.542  0.00  0.00    -0.280 NA
ENDBRANCH  22  24
ENDBRANCH   5  18
TORSDOF 4
