REMARK  Name = ZINCrD00000F5Ljm.0
REMARK                            x       y       z     vdW  Elec       q    Type
REMARK                         _______ _______ _______ _____ _____    ______ ____
ROOT
ATOM      1  C   LIG    1       -1.220  -0.873   0.010  0.00  0.00    +0.340 C 
ENDROOT
BRANCH   1   2
ATOM      2  C   LIG    1        0.054  -0.083  -0.148  0.00  0.00    -0.180 A 
ATOM      3  C   LIG    1        1.241  -0.608  -0.391  0.00  0.00    +0.070 A 
ATOM      4  C   LIG    1        2.306   0.310  -0.505  0.00  0.00    -0.170 A 
ATOM      5  C   LIG    1        1.916   1.610  -0.340  0.00  0.00    -0.180 A 
ATOM      6  C   LIG    1        2.981   2.529  -0.455  0.00  0.00    +0.050 A 
ATOM      7  C   LIG    1        4.168   2.004  -0.698  0.00  0.00    -0.020 A 
ATOM      8  S   LIG    1        4.052   0.258  -0.808  0.00  0.00    +0.140 S 
ATOM      9  S   LIG    1        0.170   1.663  -0.037  0.00  0.00    +0.230 S 
ENDBRANCH   1   2
BRANCH   1  14
ATOM     10  N   LIG    1       -1.496  -1.949   2.305  0.00  0.00    -0.300 N 
ATOM     11  N   LIG    1       -1.942  -1.564   3.453  0.00  0.00    -0.080 NA
ATOM     12  N   LIG    1       -2.333  -0.342   3.358  0.00  0.00    -0.070 NA
ATOM     13  N   LIG    1       -2.141   0.076   2.154  0.00  0.00    -0.270 NA
ATOM     14  C   LIG    1       -1.613  -0.905   1.464  0.00  0.00    +0.170 A 
BRANCH  10  15
ATOM     15  C   LIG    1       -0.960  -3.273   1.980  0.00  0.00    +0.250 C 
ATOM     16  C   LIG    1       -2.035  -4.333   2.226  0.00  0.00    +0.070 C 
BRANCH  15  18
ATOM     17  C   LIG    1        0.889  -4.889   2.439  0.00  0.00    +0.050 C 
ATOM     18  C   LIG    1        0.255  -3.563   2.864  0.00  0.00    +0.030 C 
ENDBRANCH  15  18
ENDBRANCH  10  15
ENDBRANCH   1  14
BRANCH   1  19
ATOM     19  N   LIG    1       -2.289  -0.239  -0.773  0.00  0.00    -0.510 NA
ATOM     20  C   LIG    1       -1.914  -0.135  -2.189  0.00  0.00    +0.210 C 
BRANCH  19  21
ATOM     21  C   LIG    1       -3.557  -0.964  -0.615  0.00  0.00    +0.220 C 
BRANCH  21  22
ATOM     22  C   LIG    1       -4.692  -0.145  -1.234  0.00  0.00    -0.320 C 
BRANCH  22  23
ATOM     23  S   LIG    1       -6.258  -1.040  -1.039  0.00  0.00    +2.410 S 
ATOM     24  O   LIG    1       -6.565  -1.121   0.346  0.00  0.00    -0.930 OA
ATOM     25  O   LIG    1       -6.195  -2.235  -1.807  0.00  0.00    -0.940 OA
BRANCH  23  26
ATOM     26  C   LIG    1       -7.437   0.091  -1.827  0.00  0.00    -0.340 C 
ATOM     27  C   LIG    1       -8.843  -0.508  -1.758  0.00  0.00    +0.070 C 
ENDBRANCH  23  26
ENDBRANCH  22  23
ENDBRANCH  21  22
ENDBRANCH  19  21
ENDBRANCH   1  19
TORSDOF 9
