REMARK  Name = ZINCrD000000fzUN.0
REMARK                            x       y       z     vdW  Elec       q    Type
REMARK                         _______ _______ _______ _____ _____    ______ ____
ROOT
ATOM      1  C   LIG    1       -1.110  -0.486   1.297  0.00  0.00    +0.130 C 
ATOM      2  C   LIG    1        0.067   0.099   0.558  0.00  0.00    +0.510 C 
ATOM      3  N   LIG    1       -0.003   1.350   0.062  0.00  0.00    -0.490 N 
ATOM      4  O   LIG    1        1.076  -0.557   0.410  0.00  0.00    -0.460 OA
ENDROOT
BRANCH   3   5
ATOM      5  C   LIG    1       -1.195   2.078   0.164  0.00  0.00    +0.100 A 
ATOM      6  C   LIG    1       -1.373   2.980   1.204  0.00  0.00    +0.070 A 
ATOM      7  C   LIG    1       -2.550   3.697   1.300  0.00  0.00    +0.050 A 
ATOM      8  C   LIG    1       -3.550   3.517   0.363  0.00  0.00    +0.100 A 
ATOM      9  C   LIG    1       -3.376   2.619  -0.674  0.00  0.00    -0.170 A 
ATOM     10  C   LIG    1       -2.199   1.903  -0.780  0.00  0.00    +0.090 A 
BRANCH   9  11
ATOM     11  C   LIG    1       -4.468   2.425  -1.694  0.00  0.00    +0.510 C 
ATOM     12  F   LIG    1       -4.888   1.091  -1.681  0.00  0.00    -0.170 F 
ATOM     13  F   LIG    1       -3.983   2.749  -2.965  0.00  0.00    -0.170 F 
ATOM     14  F   LIG    1       -5.550   3.257  -1.382  0.00  0.00    -0.170 F 
ENDBRANCH   9  11
ENDBRANCH   3   5
BRANCH   3  15
ATOM     15  C   LIG    1        1.108   1.916  -0.555  0.00  0.00    +0.270 A 
ATOM     16  N   LIG    1        2.219   1.294  -0.800  0.00  0.00    -0.460 NA
ATOM     17  C   LIG    1        3.172   1.986  -1.395  0.00  0.00    +0.070 A 
ATOM     18  C   LIG    1        2.852   3.253  -1.665  0.00  0.00    -0.060 A 
ATOM     19  S   LIG    1        1.204   3.531  -1.107  0.00  0.00    +0.160 S 
BRANCH  17  20
ATOM     20  C   LIG    1        4.514   1.394  -1.741  0.00  0.00    +0.460 C 
BRANCH  20  21
ATOM     21  N   LIG    1        5.122   0.825  -0.535  0.00  0.00    -0.360 N 
ATOM     22  C   LIG    1        5.558  -0.439  -0.373  0.00  0.00    +0.520 A 
ATOM     23  N   LIG    1        6.036  -0.556   0.836  0.00  0.00    -0.510 NA
ATOM     24  C   LIG    1        5.917   0.611   1.487  0.00  0.00    +0.300 A 
ATOM     25  N   LIG    1        5.359   1.489   0.679  0.00  0.00    -0.250 NA
BRANCH  24  26
ATOM     26  C   LIG    1        6.329   0.861   2.836  0.00  0.00    +0.310 C 
ATOM     27  N   LIG    1        6.655   1.059   3.905  0.00  0.00    -0.360 NA
ENDBRANCH  24  26
ENDBRANCH  20  21
ENDBRANCH  17  20
ENDBRANCH   3  15
TORSDOF 6
