REMARK  Name = ZINCrH000004ulss.0
REMARK                            x       y       z     vdW  Elec       q    Type
REMARK                         _______ _______ _______ _____ _____    ______ ____
ROOT
ATOM      1  C   LIG    1       -2.480   0.858  -0.095  0.00  0.00    -0.040 C 
ATOM      2  C   LIG    1       -2.506   0.018  -1.384  0.00  0.00    +0.040 C 
ATOM      3  C   LIG    1       -3.697   0.532  -2.221  0.00  0.00    +0.020 C 
ATOM      4  C   LIG    1       -3.922   1.978  -1.713  0.00  0.00    +0.010 C 
ATOM      5  C   LIG    1       -3.656   1.851  -0.192  0.00  0.00    +0.060 C 
ENDROOT
BRANCH   1   6
ATOM      6  C   LIG    1       -2.656  -0.035   1.106  0.00  0.00    -0.070 A 
ATOM      7  C   LIG    1       -3.729  -0.905   1.168  0.00  0.00    +0.040 A 
ATOM      8  C   LIG    1       -3.891  -1.728   2.266  0.00  0.00    +0.030 A 
ATOM      9  C   LIG    1       -2.984  -1.676   3.314  0.00  0.00    +0.050 A 
ATOM     10  O   LIG    1       -3.162  -2.487   4.393  0.00  0.00    -0.310 OA
ATOM     11  C   LIG    1       -2.031  -2.675   5.250  0.00  0.00    +0.220 C 
ATOM     12  C   LIG    1       -1.401  -1.302   5.521  0.00  0.00    +0.220 C 
ATOM     13  O   LIG    1       -1.003  -0.735   4.268  0.00  0.00    -0.310 OA
ATOM     14  C   LIG    1       -1.908  -0.799   3.253  0.00  0.00    +0.060 A 
ATOM     15  C   LIG    1       -1.748   0.021   2.147  0.00  0.00    +0.020 A 
ENDBRANCH   1   6
BRANCH   1  17
ATOM     16  O   LIG    1       -1.180   2.815   0.124  0.00  0.00    -0.530 OA
ATOM     17  C   LIG    1       -1.177   1.608   0.006  0.00  0.00    +0.530 C 
ATOM     18  N   LIG    1       -0.009   0.938  -0.034  0.00  0.00    -0.730 N 
ATOM     19  H   LIG    1       -0.006  -0.032  -0.062  0.00  0.00    +0.400 HD
BRANCH  18  20
ATOM     20  C   LIG    1        1.258   1.674  -0.042  0.00  0.00    +0.260 C 
BRANCH  20  21
ATOM     21  C   LIG    1        2.423   0.684  -0.097  0.00  0.00    +0.070 C 
BRANCH  21  22
ATOM     22  C   LIG    1        3.726   1.441  -0.104  0.00  0.00    -0.090 A 
ATOM     23  C   LIG    1        4.299   1.818  -1.305  0.00  0.00    +0.050 A 
ATOM     24  C   LIG    1        5.491   2.517  -1.313  0.00  0.00    -0.010 A 
ATOM     25  C   LIG    1        6.117   2.830  -0.118  0.00  0.00    +0.100 A 
ATOM     26  C   LIG    1        5.545   2.447   1.083  0.00  0.00    -0.010 A 
ATOM     27  F   LIG    1        7.286   3.508  -0.125  0.00  0.00    -0.140 F 
ATOM     28  C   LIG    1        4.350   1.753   1.089  0.00  0.00    +0.050 A 
ENDBRANCH  21  22
ENDBRANCH  20  21
ENDBRANCH  18  20
ENDBRANCH   1  17
TORSDOF 5
