REMARK  Name = ZINCrD0000075T97.0
REMARK                            x       y       z     vdW  Elec       q    Type
REMARK                         _______ _______ _______ _____ _____    ______ ____
ROOT
ATOM      1  O   LIG    1       -0.922   1.667   0.754  0.00  0.00    -0.520 OA
ATOM      2  C   LIG    1       -0.016   1.344   0.009  0.00  0.00    +0.600 C 
ATOM      3  N   LIG    1       -0.142   0.252  -0.771  0.00  0.00    -0.610 N 
ATOM      4  C   LIG    1       -1.310  -0.634  -0.647  0.00  0.00    +0.300 C 
ATOM      5  C   LIG    1       -1.911  -0.837  -2.047  0.00  0.00    +0.190 C 
ATOM      6  N   LIG    1       -0.864  -1.314  -2.960  0.00  0.00    -0.490 N 
ATOM      7  C   LIG    1        0.202  -0.316  -3.117  0.00  0.00    +0.180 C 
ATOM      8  C   LIG    1        0.887  -0.088  -1.766  0.00  0.00    +0.290 C 
ENDROOT
BRANCH   6   9
ATOM      9  C   LIG    1       -1.404  -1.670  -4.200  0.00  0.00    +0.100 A 
ATOM     10  C   LIG    1       -0.920  -1.085  -5.363  0.00  0.00    +0.000 A 
ATOM     11  C   LIG    1       -1.452  -1.441  -6.587  0.00  0.00    +0.010 A 
ATOM     12  C   LIG    1       -2.473  -2.374  -6.654  0.00  0.00    +0.070 A 
ATOM     13  C   LIG    1       -2.960  -2.955  -5.495  0.00  0.00    +0.010 A 
ATOM     14  F   LIG    1       -2.995  -2.718  -7.851  0.00  0.00    -0.140 F 
ATOM     15  C   LIG    1       -2.428  -2.605  -4.269  0.00  0.00    +0.030 A 
ENDBRANCH   6   9
BRANCH   2  16
ATOM     16  C   LIG    1        1.221   2.142  -0.035  0.00  0.00    -0.280 A 
ATOM     17  C   LIG    1        2.511   1.662  -0.129  0.00  0.00    +0.300 A 
ATOM     18  N   LIG    1        3.342   2.715  -0.142  0.00  0.00    -0.460 N 
ATOM     19  H   LIG    1        4.309   2.663  -0.204  0.00  0.00    +0.450 HD
ATOM     20  N   LIG    1        2.604   3.898  -0.047  0.00  0.00    -0.270 NA
ATOM     21  C   LIG    1        1.326   3.603   0.020  0.00  0.00    +0.170 A 
BRANCH  21  22
ATOM     22  C   LIG    1        0.203   4.565   0.130  0.00  0.00    -0.030 A 
ATOM     23  C   LIG    1       -1.010   4.299  -0.503  0.00  0.00    +0.090 A 
ATOM     24  C   LIG    1       -2.054   5.194  -0.394  0.00  0.00    -0.010 A 
ATOM     25  C   LIG    1       -1.895   6.362   0.335  0.00  0.00    +0.110 A 
ATOM     26  C   LIG    1       -0.689   6.632   0.963  0.00  0.00    -0.020 A 
ATOM     27  F   LIG    1       -2.918   7.238   0.436  0.00  0.00    -0.140 F 
ATOM     28  C   LIG    1        0.358   5.740   0.863  0.00  0.00    +0.080 A 
ENDBRANCH  21  22
ENDBRANCH   2  16
TORSDOF 3
