REMARK  Name = ZINCrH000004p1QD.0
REMARK                            x       y       z     vdW  Elec       q    Type
REMARK                         _______ _______ _______ _____ _____    ______ ____
ROOT
ATOM      1  C   LIG    1       -2.034   8.643  -0.169  0.00  0.00    +0.080 A 
ATOM      2  C   LIG    1       -2.607   8.395   1.072  0.00  0.00    +0.060 A 
ATOM      3  C   LIG    1       -2.875   7.099   1.462  0.00  0.00    -0.050 A 
ATOM      4  C   LIG    1       -2.571   6.041   0.614  0.00  0.00    +0.210 A 
ATOM      5  C   LIG    1       -1.992   6.288  -0.624  0.00  0.00    -0.050 A 
ATOM      6  C   LIG    1       -1.730   7.586  -1.016  0.00  0.00    +0.040 A 
ENDROOT
BRANCH   1   8
ATOM      7  C   LIG    1       -1.402  10.878   0.354  0.00  0.00    +0.500 C 
ATOM      8  N   LIG    1       -1.761   9.959  -0.564  0.00  0.00    -0.660 N 
ATOM      9  H   LIG    1       -1.831  10.209  -1.499  0.00  0.00    +0.410 HD
ATOM     10  O   LIG    1       -1.222  10.546   1.506  0.00  0.00    -0.500 OA
BRANCH   7  12
ATOM     11  C   LIG    1       -2.542  12.855  -0.617  0.00  0.00    +0.100 C 
ATOM     12  C   LIG    1       -1.225  12.319  -0.052  0.00  0.00    +0.270 C 
BRANCH  12  13
ATOM     13  N   LIG    1       -0.837  13.111   1.118  0.00  0.00    -0.370 N 
ATOM     14  C   LIG    1       -1.659  13.662   2.027  0.00  0.00    +0.490 A 
ATOM     15  N   LIG    1       -0.926  14.285   2.913  0.00  0.00    -0.540 NA
ATOM     16  C   LIG    1        0.364  14.162   2.600  0.00  0.00    +0.420 A 
ATOM     17  N   LIG    1        0.469  13.451   1.508  0.00  0.00    -0.310 NA
ENDBRANCH  12  13
ENDBRANCH   7  12
ENDBRANCH   1   8
BRANCH   4  18
ATOM     18  N   LIG    1       -2.843   4.727   1.009  0.00  0.00    -0.740 N 
ATOM     19  H   LIG    1       -3.244   4.554   1.876  0.00  0.00    +0.400 HD
BRANCH  18  20
ATOM     20  C   LIG    1       -2.522   3.612   0.115  0.00  0.00    +0.290 C 
ATOM     21  C   LIG    1       -3.373   2.376   0.475  0.00  0.00    +0.050 C 
ATOM     22  C   LIG    1       -2.404   1.210   0.183  0.00  0.00    +0.090 C 
ATOM     23  C   LIG    1       -1.018   1.796   0.346  0.00  0.00    -0.060 A 
ATOM     24  C   LIG    1        0.204   1.170   0.526  0.00  0.00    -0.020 A 
ATOM     25  C   LIG    1        1.357   1.922   0.661  0.00  0.00    +0.110 A 
ATOM     26  C   LIG    1        1.288   3.304   0.622  0.00  0.00    -0.020 A 
ATOM     27  C   LIG    1        0.069   3.928   0.448  0.00  0.00    +0.070 A 
ATOM     28  F   LIG    1        2.549   1.309   0.830  0.00  0.00    -0.140 F 
ATOM     29  C   LIG    1       -1.087   3.176   0.313  0.00  0.00    -0.130 A 
ENDBRANCH  18  20
ENDBRANCH   4  18
TORSDOF 5
