REMARK  Name = ZINCkj000005jYE0.0
REMARK                            x       y       z     vdW  Elec       q    Type
REMARK                         _______ _______ _______ _____ _____    ______ ____
ROOT
ATOM      1  N   LIG    1       -2.152  -0.296   3.817  0.00  0.00    -0.740 N 
ATOM      2  H   LIG    1       -1.409  -0.826   3.487  0.00  0.00    +0.390 HD
ATOM      3  C   LIG    1       -3.222  -0.903   4.367  0.00  0.00    +0.590 C 
ATOM      4  O   LIG    1       -4.152  -0.238   4.781  0.00  0.00    -0.510 OA
ENDROOT
BRANCH   1   8
ATOM      5  C   LIG    1        1.469   1.540   2.349  0.00  0.00    +0.100 C 
ATOM      6  C   LIG    1        0.013   1.076   2.405  0.00  0.00    +0.150 C 
ATOM      7  C   LIG    1       -0.652   1.633   3.665  0.00  0.00    +0.080 C 
ATOM      8  C   LIG    1       -2.109   1.165   3.717  0.00  0.00    +0.250 C 
ATOM      9  C   LIG    1       -2.824   1.612   2.438  0.00  0.00    +0.060 C 
ATOM     10  C   LIG    1       -2.078   1.054   1.224  0.00  0.00    +0.240 C 
ATOM     11  N   LIG    1       -0.700   1.560   1.217  0.00  0.00    -0.380 N 
ATOM     12  C   LIG    1       -0.013   1.086   0.008  0.00  0.00    +0.330 C 
ATOM     13  H   LIG    1       -0.713   2.568   1.221  0.00  0.00    +0.430 HD
ENDBRANCH   1   8
BRANCH   3  14
ATOM     14  C   LIG    1       -3.264  -2.371   4.468  0.00  0.00    -0.180 A 
ATOM     15  C   LIG    1       -2.267  -3.182   4.024  0.00  0.00    -0.030 A 
ATOM     16  S   LIG    1       -2.649  -4.819   4.303  0.00  0.00    +0.340 S 
ATOM     17  C   LIG    1       -4.195  -4.413   5.028  0.00  0.00    -0.800 A 
ATOM     18  C   LIG    1       -4.372  -3.098   5.043  0.00  0.00    +0.220 A 
BRANCH  17  19
ATOM     19  S   LIG    1       -5.351  -5.589   5.650  0.00  0.00    +2.520 S 
ATOM     20  O   LIG    1       -6.082  -4.873   6.636  0.00  0.00    -0.920 OA
ATOM     21  O   LIG    1       -4.555  -6.713   5.999  0.00  0.00    -0.920 OA
ATOM     22  C   LIG    1       -6.411  -5.976   4.229  0.00  0.00    -0.250 C 
ENDBRANCH  17  19
ENDBRANCH   3  14
TORSDOF 3
