REMARK  Name = ZINCkj000005jYE0.1
REMARK                            x       y       z     vdW  Elec       q    Type
REMARK                         _______ _______ _______ _____ _____    ______ ____
ROOT
ATOM      1  N   LIG    1       -1.193   3.581   0.027  0.00  0.00    -0.730 N 
ATOM      2  H   LIG    1       -0.331   4.026   0.025  0.00  0.00    +0.400 HD
ATOM      3  C   LIG    1       -1.256   2.235   0.020  0.00  0.00    +0.590 C 
ATOM      4  O   LIG    1       -2.337   1.677   0.022  0.00  0.00    -0.520 OA
ENDROOT
BRANCH   1   8
ATOM      5  C   LIG    1       -4.534   5.904   1.371  0.00  0.00    +0.100 C 
ATOM      6  C   LIG    1       -3.419   6.596   0.585  0.00  0.00    +0.170 C 
ATOM      7  C   LIG    1       -2.147   5.748   0.650  0.00  0.00    +0.070 C 
ATOM      8  C   LIG    1       -2.426   4.372   0.038  0.00  0.00    +0.250 C 
ATOM      9  C   LIG    1       -2.930   4.554  -1.397  0.00  0.00    +0.050 C 
ATOM     10  C   LIG    1       -4.172   5.449  -1.386  0.00  0.00    +0.270 C 
ATOM     11  N   LIG    1       -3.833   6.757  -0.814  0.00  0.00    -0.380 N 
ATOM     12  C   LIG    1       -5.010   7.635  -0.877  0.00  0.00    +0.320 C 
ATOM     13  H   LIG    1       -3.079   7.169  -1.342  0.00  0.00    +0.420 HD
ENDBRANCH   1   8
BRANCH   3  14
ATOM     14  C   LIG    1       -0.018   1.440   0.010  0.00  0.00    -0.190 A 
ATOM     15  C   LIG    1        1.226   1.990   0.001  0.00  0.00    -0.010 A 
ATOM     16  S   LIG    1        2.425   0.778  -0.017  0.00  0.00    +0.340 S 
ATOM     17  C   LIG    1        1.230  -0.508  -0.012  0.00  0.00    -0.800 A 
ATOM     18  C   LIG    1        0.002  -0.004   0.002  0.00  0.00    +0.220 A 
BRANCH  17  19
ATOM     19  S   LIG    1        1.609  -2.229  -0.026  0.00  0.00    +2.520 S 
ATOM     20  O   LIG    1        0.482  -2.840   0.586  0.00  0.00    -0.920 OA
ATOM     21  O   LIG    1        2.898  -2.309   0.567  0.00  0.00    -0.920 OA
ATOM     22  C   LIG    1        1.690  -2.660  -1.786  0.00  0.00    -0.250 C 
ENDBRANCH  17  19
ENDBRANCH   3  14
TORSDOF 3
