REMARK  Name = ZINCpe00000MxFFz.0
REMARK                            x       y       z     vdW  Elec       q    Type
REMARK                         _______ _______ _______ _____ _____    ______ ____
ROOT
ATOM      1  N   LIG    1       -0.964   2.638   4.659  0.00  0.00    -0.450 N 
ATOM      2  C   LIG    1       -0.309   1.565   5.421  0.00  0.00    +0.200 C 
ATOM      3  C   LIG    1        0.034   2.076   6.824  0.00  0.00    +0.290 C 
ATOM      4  N   LIG    1       -1.188   2.617   7.437  0.00  0.00    -0.610 N 
ATOM      5  C   LIG    1       -1.974   3.598   6.673  0.00  0.00    +0.290 C 
ATOM      6  C   LIG    1       -1.578   2.225   8.666  0.00  0.00    +0.530 C 
ATOM      7  O   LIG    1       -2.589   2.682   9.156  0.00  0.00    -0.540 OA
ATOM      8  C   LIG    1       -2.239   3.027   5.276  0.00  0.00    +0.200 C 
ENDROOT
BRANCH   1  12
ATOM      9  C   LIG    1       -0.013   1.086   0.008  0.00  0.00    +0.140 C 
ATOM     10  C   LIG    1       -0.718   1.572   1.248  0.00  0.00    +0.100 A 
ATOM     11  C   LIG    1       -0.139   1.839   2.441  0.00  0.00    -0.120 A 
ATOM     12  C   LIG    1       -1.145   2.265   3.322  0.00  0.00    +0.260 A 
ATOM     13  N   LIG    1       -2.286   2.252   2.674  0.00  0.00    -0.320 NA
ATOM     14  N   LIG    1       -2.039   1.824   1.363  0.00  0.00    -0.470 N 
ATOM     15  H   LIG    1       -2.701   1.724   0.662  0.00  0.00    +0.440 HD
ENDBRANCH   1  12
BRANCH   6  16
ATOM     16  C   LIG    1       -0.758   1.219   9.431  0.00  0.00    -0.020 C 
ATOM     17  C   LIG    1       -0.729  -0.137   8.685  0.00  0.00    +0.040 C 
ATOM     18  C   LIG    1       -1.837  -0.935   9.426  0.00  0.00    +0.210 C 
ATOM     19  O   LIG    1       -1.692  -0.517  10.800  0.00  0.00    -0.350 OA
ATOM     20  C   LIG    1       -1.424   0.895  10.783  0.00  0.00    +0.290 C 
BRANCH  20  21
ATOM     21  C   LIG    1       -0.494   1.258  11.912  0.00  0.00    +0.190 A 
ATOM     22  N   LIG    1        0.560   0.581  12.276  0.00  0.00    -0.460 NA
ATOM     23  C   LIG    1        1.147   1.199  13.313  0.00  0.00    +0.140 A 
ATOM     24  C   LIG    1        0.423   2.296  13.607  0.00  0.00    +0.130 A 
ATOM     25  N   LIG    1       -0.617   2.334  12.718  0.00  0.00    -0.450 N 
ATOM     26  C   LIG    1       -1.669   3.353  12.654  0.00  0.00    +0.320 C 
ENDBRANCH  20  21
ENDBRANCH   6  16
TORSDOF 3
