REMARK  Name = ZINCvU0000000BVF.0
REMARK                            x       y       z     vdW  Elec       q    Type
REMARK                         _______ _______ _______ _____ _____    ______ ____
ROOT
ATOM      1  C   LIG    1       -0.799  -1.717  -1.592  0.00  0.00    +0.540 C 
ATOM      2  N   LIG    1       -0.926  -0.549  -0.932  0.00  0.00    -0.720 N 
ATOM      3  H   LIG    1       -1.756  -0.050  -0.985  0.00  0.00    +0.400 HD
ATOM      4  O   LIG    1        0.238  -2.341  -1.526  0.00  0.00    -0.520 OA
ENDROOT
BRANCH   1   5
ATOM      5  C   LIG    1       -1.947  -2.248  -2.412  0.00  0.00    +0.110 C 
BRANCH   5   6
ATOM      6  S   LIG    1       -1.471  -3.822  -3.168  0.00  0.00    +0.090 S 
BRANCH   6   9
ATOM      7  C   LIG    1       -2.240  -6.399  -5.091  0.00  0.00    +0.350 C 
ATOM      8  N   LIG    1       -3.176  -5.305  -4.817  0.00  0.00    -0.460 N 
ATOM      9  C   LIG    1       -2.953  -4.203  -4.041  0.00  0.00    +0.140 A 
ATOM     10  N   LIG    1       -4.049  -3.478  -4.071  0.00  0.00    -0.290 NA
ATOM     11  N   LIG    1       -4.937  -4.050  -4.803  0.00  0.00    -0.260 NA
ATOM     12  C   LIG    1       -4.463  -5.175  -5.286  0.00  0.00    +0.220 A 
BRANCH  12  13
ATOM     13  C   LIG    1       -5.176  -6.120  -6.171  0.00  0.00    -0.010 A 
ATOM     14  C   LIG    1       -6.313  -5.707  -6.867  0.00  0.00    +0.090 A 
ATOM     15  C   LIG    1       -6.971  -6.593  -7.695  0.00  0.00    +0.030 A 
ATOM     16  C   LIG    1       -6.512  -7.892  -7.828  0.00  0.00    -0.020 A 
ATOM     17  C   LIG    1       -5.387  -8.309  -7.136  0.00  0.00    +0.030 A 
ATOM     18 CL   LIG    1       -7.349  -9.003  -8.867  0.00  0.00    -0.060 Cl
ATOM     19  C   LIG    1       -4.718  -7.431  -6.309  0.00  0.00    +0.040 A 
ENDBRANCH  12  13
ENDBRANCH   6   9
ENDBRANCH   5   6
ENDBRANCH   1   5
BRANCH   2  20
ATOM     20  C   LIG    1        0.189  -0.033  -0.136  0.00  0.00    +0.340 C 
BRANCH  20  21
ATOM     21  C   LIG    1        0.151  -0.647   1.240  0.00  0.00    -0.090 A 
ATOM     22  C   LIG    1       -1.059  -0.820   1.886  0.00  0.00    +0.020 A 
ATOM     23  C   LIG    1       -1.094  -1.389   3.146  0.00  0.00    +0.000 A 
ATOM     24  C   LIG    1        0.081  -1.774   3.763  0.00  0.00    +0.000 A 
ATOM     25  C   LIG    1        1.291  -1.596   3.119  0.00  0.00    +0.000 A 
ATOM     26  C   LIG    1        1.326  -1.033   1.857  0.00  0.00    +0.020 A 
ENDBRANCH  20  21
BRANCH  20  27
ATOM     27  C   LIG    1        0.073   1.466  -0.020  0.00  0.00    -0.090 A 
ATOM     28  C   LIG    1       -1.166   2.050   0.163  0.00  0.00    +0.010 A 
ATOM     29  C   LIG    1       -1.272   3.424   0.275  0.00  0.00    +0.020 A 
ATOM     30  C   LIG    1       -0.141   4.214   0.192  0.00  0.00    +0.010 A 
ATOM     31  C   LIG    1        1.098   3.629   0.003  0.00  0.00    +0.020 A 
ATOM     32  C   LIG    1        1.205   2.255  -0.103  0.00  0.00    +0.030 A 
ENDBRANCH  20  27
ENDBRANCH   2  20
TORSDOF 7
