REMARK  Name = ZINCvU0000000H1i.0
REMARK                            x       y       z     vdW  Elec       q    Type
REMARK                         _______ _______ _______ _____ _____    ______ ____
ROOT
ATOM      1  N   LIG    1        3.928  -5.110  -5.979  0.00  0.00    -0.620 N 
ATOM      2  H   LIG    1        3.626  -5.657  -5.237  0.00  0.00    +0.430 HD
ATOM      3  C   LIG    1        4.368  -5.694  -7.111  0.00  0.00    +0.520 C 
ATOM      4  O   LIG    1        4.746  -5.010  -8.039  0.00  0.00    -0.500 OA
ENDROOT
BRANCH   1   8
ATOM      5  C   LIG    1        3.558  -1.735  -4.916  0.00  0.00    +0.140 A 
ATOM      6  C   LIG    1        4.026  -1.244  -6.077  0.00  0.00    -0.120 A 
ATOM      7  S   LIG    1        4.422  -2.601  -7.129  0.00  0.00    +0.200 S 
ATOM      8  C   LIG    1        3.907  -3.724  -5.875  0.00  0.00    +0.280 A 
ATOM      9  N   LIG    1        3.511  -3.057  -4.836  0.00  0.00    -0.500 NA
BRANCH   5  13
ATOM     10  C   LIG    1        2.329   0.782  -1.715  0.00  0.00    +0.140 A 
ATOM     11  C   LIG    1        2.800   1.342  -2.894  0.00  0.00    -0.080 A 
ATOM     12  C   LIG    1        3.204   0.529  -3.932  0.00  0.00    +0.070 A 
ATOM     13  C   LIG    1        3.130  -0.857  -3.799  0.00  0.00    -0.060 A 
ATOM     14  C   LIG    1        2.652  -1.416  -2.615  0.00  0.00    +0.090 A 
ATOM     15  C   LIG    1        2.254  -0.597  -1.579  0.00  0.00    -0.020 A 
BRANCH  10  16
ATOM     16  O   LIG    1        1.936   1.587  -0.692  0.00  0.00    -0.310 OA
BRANCH  16  17
ATOM     17  C   LIG    1        2.039   2.997  -0.899  0.00  0.00    +0.180 C 
BRANCH  17  19
ATOM     18  C   LIG    1        1.666   5.242   0.131  0.00  0.00    +0.040 C 
ATOM     19  C   LIG    1        1.555   3.732   0.352  0.00  0.00    +0.020 C 
ENDBRANCH  17  19
ENDBRANCH  16  17
ENDBRANCH  10  16
ENDBRANCH   5  13
ENDBRANCH   1   8
BRANCH   3  20
ATOM     20  C   LIG    1        4.391  -7.196  -7.225  0.00  0.00    +0.090 C 
BRANCH  20  21
ATOM     21  C   LIG    1        4.929  -7.596  -8.600  0.00  0.00    +0.320 C 
BRANCH  21  22
ATOM     22  C   LIG    1        5.068  -9.095  -8.669  0.00  0.00    -0.090 A 
ATOM     23  C   LIG    1        4.450  -9.890  -7.723  0.00  0.00    +0.070 A 
ATOM     24  C   LIG    1        4.572 -11.266  -7.789  0.00  0.00    +0.010 A 
ATOM     25  C   LIG    1        5.322 -11.846  -8.795  0.00  0.00    +0.030 A 
ATOM     26  C   LIG    1        5.945 -11.051  -9.739  0.00  0.00    +0.010 A 
ATOM     27  C   LIG    1        5.818  -9.675  -9.677  0.00  0.00    -0.020 A 
ATOM     28 CL   LIG    1        6.600  -8.676 -10.862  0.00  0.00    -0.070 Cl
ENDBRANCH  21  22
BRANCH  21  29
ATOM     29  N   LIG    1        4.002  -7.142  -9.639  0.00  0.00    -0.710 N 
ATOM     30  H   LIG    1        4.281  -6.470 -10.279  0.00  0.00    +0.410 HD
ATOM     31  C   LIG    1        2.759  -7.660  -9.705  0.00  0.00    +0.510 C 
ATOM     32  O   LIG    1        2.377  -8.431  -8.850  0.00  0.00    -0.540 OA
ATOM     33  C   LIG    1        1.844  -7.281 -10.841  0.00  0.00    +0.100 C 
ENDBRANCH  21  29
ENDBRANCH  20  21
ENDBRANCH   3  20
TORSDOF 9
