REMARK  Name = ZINCqH0000002CDL.0
REMARK                            x       y       z     vdW  Elec       q    Type
REMARK                         _______ _______ _______ _____ _____    ______ ____
ROOT
ATOM      1  N   LIG    1        0.019  -0.024  -0.083  0.00  0.00    -0.620 N 
ATOM      2  C   LIG    1       -0.075   1.319  -0.000  0.00  0.00    +0.580 C 
ATOM      3  C   LIG    1        1.153   2.119   0.154  0.00  0.00    -0.200 A 
ATOM      4  C   LIG    1        1.157   3.499  -0.031  0.00  0.00    +0.140 A 
ATOM      5  C   LIG    1        2.331   4.204   0.131  0.00  0.00    -0.020 A 
ATOM      6  C   LIG    1        3.504   3.548   0.476  0.00  0.00    +0.030 A 
ATOM      7  C   LIG    1        3.514   2.177   0.662  0.00  0.00    -0.030 A 
ATOM      8 CL   LIG    1        4.971   4.455   0.677  0.00  0.00    -0.060 Cl
ATOM      9  C   LIG    1        2.345   1.456   0.501  0.00  0.00    +0.240 A 
ATOM     10  N   LIG    1        2.301   0.077   0.671  0.00  0.00    -0.740 N 
ATOM     11  H   LIG    1        2.905  -0.366   1.286  0.00  0.00    +0.420 HD
ATOM     12  O   LIG    1       -1.161   1.864  -0.058  0.00  0.00    -0.520 OA
ATOM     13  C   LIG    1        1.320  -0.694  -0.103  0.00  0.00    +0.570 C 
ENDROOT
BRANCH  13  14
ATOM     14  C   LIG    1        1.795  -0.818  -1.528  0.00  0.00    -0.270 A 
ATOM     15  C   LIG    1        0.890  -0.817  -2.579  0.00  0.00    +0.370 A 
ATOM     16  N   LIG    1        1.341  -0.924  -3.818  0.00  0.00    -0.550 NA
ATOM     17  C   LIG    1        2.639  -1.040  -4.059  0.00  0.00    +0.490 A 
ATOM     18  N   LIG    1        3.528  -1.050  -3.077  0.00  0.00    -0.520 NA
ATOM     19  C   LIG    1        3.145  -0.942  -1.816  0.00  0.00    +0.370 A 
BRANCH  17  20
ATOM     20  N   LIG    1        3.075  -1.155  -5.367  0.00  0.00    -0.450 N 
ATOM     21  C   LIG    1        3.750  -2.459  -5.591  0.00  0.00    +0.200 C 
ATOM     22  C   LIG    1        3.684  -2.633  -7.129  0.00  0.00    +0.030 C 
ATOM     23  C   LIG    1        2.295  -2.054  -7.483  0.00  0.00    +0.020 C 
ATOM     24  C   LIG    1        1.936  -1.123  -6.310  0.00  0.00    +0.220 C 
ENDBRANCH  17  20
ENDBRANCH  13  14
BRANCH   1  25
ATOM     25  C   LIG    1       -1.204  -0.828  -0.155  0.00  0.00    +0.290 C 
BRANCH  25  27
ATOM     26  C   LIG    1       -2.802  -2.224   1.165  0.00  0.00    +0.030 C 
ATOM     27  C   LIG    1       -1.597  -1.285   1.252  0.00  0.00    -0.010 C 
ENDBRANCH  25  27
ENDBRANCH   1  25
TORSDOF 4
