REMARK  Name = ZINCtV000002Mn4z.0
REMARK                            x       y       z     vdW  Elec       q    Type
REMARK                         _______ _______ _______ _____ _____    ______ ____
ROOT
ATOM      1  S   LIG    1       -0.058  -2.660  -2.988  0.00  0.00    +0.160 S 
ENDROOT
BRANCH   1   2
ATOM      2  C   LIG    1        1.094  -1.339  -2.811  0.00  0.00    +0.120 A 
ATOM      3  N   LIG    1        1.701  -0.980  -1.704  0.00  0.00    -0.280 NA
ATOM      4  N   LIG    1        2.470   0.023  -1.943  0.00  0.00    -0.260 NA
ATOM      5  C   LIG    1        2.386   0.345  -3.211  0.00  0.00    +0.220 A 
ATOM      6  O   LIG    1        1.513  -0.510  -3.788  0.00  0.00    -0.200 OA
BRANCH   5   7
ATOM      7  C   LIG    1        3.112   1.440  -3.885  0.00  0.00    -0.050 A 
ATOM      8  C   LIG    1        2.928   1.665  -5.252  0.00  0.00    +0.100 A 
ATOM      9  C   LIG    1        3.604   2.691  -5.876  0.00  0.00    -0.050 A 
ATOM     10  C   LIG    1        4.475   3.494  -5.151  0.00  0.00    +0.140 A 
ATOM     11  C   LIG    1        4.664   3.271  -3.794  0.00  0.00    +0.020 A 
ATOM     12  C   LIG    1        3.988   2.250  -3.160  0.00  0.00    +0.120 A 
BRANCH  10  13
ATOM     13  O   LIG    1        5.143   4.502  -5.772  0.00  0.00    -0.320 OA
BRANCH  13  14
ATOM     14  C   LIG    1        4.902   4.676  -7.169  0.00  0.00    +0.600 C 
ATOM     15  F   LIG    1        3.544   4.940  -7.379  0.00  0.00    -0.200 F 
ATOM     16  F   LIG    1        5.260   3.509  -7.854  0.00  0.00    -0.200 F 
ENDBRANCH  13  14
ENDBRANCH  10  13
ENDBRANCH   5   7
ENDBRANCH   1   2
BRANCH   1  17
ATOM     17  C   LIG    1       -0.096  -3.274  -1.285  0.00  0.00    +0.110 C 
BRANCH  17  19
ATOM     18  O   LIG    1       -1.636  -4.821  -2.181  0.00  0.00    -0.500 OA
ATOM     19  C   LIG    1       -1.044  -4.441  -1.193  0.00  0.00    +0.550 C 
ATOM     20  N   LIG    1       -1.234  -5.064  -0.013  0.00  0.00    -0.680 N 
ATOM     21  H   LIG    1       -0.707  -4.808   0.761  0.00  0.00    +0.420 HD
BRANCH  20  22
ATOM     22  C   LIG    1       -2.192  -6.080   0.098  0.00  0.00    +0.150 A 
ATOM     23  C   LIG    1       -3.504  -5.766   0.430  0.00  0.00    -0.010 A 
ATOM     24  C   LIG    1       -4.448  -6.770   0.533  0.00  0.00    +0.070 A 
ATOM     25  C   LIG    1       -4.086  -8.088   0.316  0.00  0.00    -0.010 A 
ATOM     26  C   LIG    1       -2.779  -8.404  -0.011  0.00  0.00    +0.070 A 
ATOM     27 CL   LIG    1       -5.273  -9.347   0.452  0.00  0.00    -0.030 Cl
ATOM     28 CL   LIG    1       -3.958  -4.114   0.710  0.00  0.00    -0.030 Cl
ATOM     29  C   LIG    1       -1.831  -7.403  -0.120  0.00  0.00    -0.010 A 
ATOM     30 CL   LIG    1       -0.192  -7.801  -0.531  0.00  0.00    -0.030 Cl
ENDBRANCH  20  22
ENDBRANCH  17  19
ENDBRANCH   1  17
TORSDOF 7
