REMARK  Name = ZINC9p0000002o1h.0
REMARK                            x       y       z     vdW  Elec       q    Type
REMARK                         _______ _______ _______ _____ _____    ______ ____
ROOT
ATOM      1  C   LIG    1       -0.013   1.086   0.008  0.00  0.00    +0.010 C 
ATOM      2  C   LIG    1       -0.729   1.579   1.267  0.00  0.00    +0.020 C 
ATOM      3  C   LIG    1       -0.750   3.109   1.275  0.00  0.00    +0.040 C 
ATOM      4  C   LIG    1        0.686   3.639   1.264  0.00  0.00    +0.040 C 
ATOM      5  C   LIG    1        1.402   3.145   0.006  0.00  0.00    +0.160 C 
ATOM      6  C   LIG    1        1.423   1.615  -0.003  0.00  0.00    +0.040 C 
ENDROOT
BRANCH   5   7
ATOM      7  N   LIG    1        2.780   3.654  -0.005  0.00  0.00    -0.640 N 
ATOM      8  H   LIG    1        3.268   3.320   0.813  0.00  0.00    +0.430 HD
ATOM      9  H   LIG    1        2.766   4.663   0.001  0.00  0.00    +0.440 HD
ATOM     10  H   LIG    1        3.252   3.328  -0.835  0.00  0.00    +0.440 HD
ENDBRANCH   5   7
BRANCH   1  12
ATOM     11  C   LIG    1       -2.147   0.964  -1.286  0.00  0.00    +0.020 C 
ATOM     12  C   LIG    1       -0.753   1.593  -1.232  0.00  0.00    +0.000 C 
ENDBRANCH   1  12
TORSDOF 2
