REMARK  Name = ZINCtV000002Mn91.0
REMARK                            x       y       z     vdW  Elec       q    Type
REMARK                         _______ _______ _______ _____ _____    ______ ____
ROOT
ATOM      1  C   LIG    1        8.299   1.249  -0.069  0.00  0.00    +0.130 A 
ATOM      2  N   LIG    1        7.951   2.515  -0.058  0.00  0.00    -0.280 NA
ATOM      3  N   LIG    1        6.668   2.607  -0.052  0.00  0.00    -0.230 NA
ATOM      4  C   LIG    1        6.144   1.402  -0.048  0.00  0.00    +0.230 A 
ATOM      5  O   LIG    1        7.167   0.518  -0.062  0.00  0.00    -0.200 OA
ENDROOT
BRANCH   4   6
ATOM      6  C   LIG    1        4.711   1.075  -0.037  0.00  0.00    -0.120 A 
ATOM      7  C   LIG    1        3.730   1.983  -0.023  0.00  0.00    +0.030 A 
ATOM      8  C   LIG    1        2.391   1.425  -0.013  0.00  0.00    -0.080 A 
ATOM      9  C   LIG    1        1.145   2.092   0.002  0.00  0.00    +0.080 A 
ATOM     10  C   LIG    1       -0.017   1.384   0.010  0.00  0.00    +0.030 A 
ATOM     11  C   LIG    1        0.002  -0.004   0.002  0.00  0.00    +0.060 A 
ATOM     12  C   LIG    1        1.200  -0.680  -0.013  0.00  0.00    +0.060 A 
ATOM     13  C   LIG    1        2.406   0.026  -0.021  0.00  0.00    -0.130 A 
ATOM     14 CL   LIG    1        4.033   3.692  -0.017  0.00  0.00    +0.000 Cl
ATOM     15  S   LIG    1        4.067  -0.555  -0.040  0.00  0.00    +0.190 S 
ENDBRANCH   4   6
BRANCH   1  16
ATOM     16  S   LIG    1        9.945   0.621  -0.086  0.00  0.00    +0.140 S 
BRANCH  16  17
ATOM     17  C   LIG    1       10.874   2.174  -0.086  0.00  0.00    +0.090 C 
BRANCH  17  19
ATOM     18  O   LIG    1       12.738   0.726  -0.110  0.00  0.00    -0.430 OA
ATOM     19  C   LIG    1       12.351   1.876  -0.101  0.00  0.00    +0.430 C 
BRANCH  19  20
ATOM     20  C   LIG    1       13.323   2.977  -0.104  0.00  0.00    -0.190 A 
ATOM     21  C   LIG    1       12.879   4.305  -0.099  0.00  0.00    +0.110 A 
ATOM     22  C   LIG    1       13.790   5.330  -0.096  0.00  0.00    -0.060 A 
ATOM     23  C   LIG    1       15.153   5.052  -0.109  0.00  0.00    +0.150 A 
ATOM     24  C   LIG    1       15.599   3.735  -0.120  0.00  0.00    +0.000 A 
ATOM     25  C   LIG    1       14.696   2.703  -0.117  0.00  0.00    +0.130 A 
BRANCH  23  26
ATOM     26  O   LIG    1       16.050   6.069  -0.113  0.00  0.00    -0.320 OA
BRANCH  26  27
ATOM     27  C   LIG    1       15.525   7.398  -0.101  0.00  0.00    +0.600 C 
ATOM     28  F   LIG    1       14.751   7.584   1.049  0.00  0.00    -0.190 F 
ATOM     29  F   LIG    1       14.729   7.595  -1.235  0.00  0.00    -0.190 F 
ENDBRANCH  26  27
ENDBRANCH  23  26
ENDBRANCH  19  20
ENDBRANCH  17  19
ENDBRANCH  16  17
ENDBRANCH   1  16
TORSDOF 7
