REMARK  Name = ZINCvU0000000JA1.0
REMARK                            x       y       z     vdW  Elec       q    Type
REMARK                         _______ _______ _______ _____ _____    ______ ____
ROOT
ATOM      1  C   LIG    1        1.346   1.432  -6.527  0.00  0.00    -0.100 A 
ATOM      2  C   LIG    1        2.540   1.672  -7.133  0.00  0.00    +0.070 A 
ATOM      3  N   LIG    1        2.429   2.832  -7.841  0.00  0.00    -0.240 N 
ATOM      4  C   LIG    1        1.167   3.326  -7.685  0.00  0.00    +0.030 A 
ATOM      5  C   LIG    1        0.636   4.593  -8.305  0.00  0.00    +0.130 C 
ATOM      6  C   LIG    1        3.770   0.807  -7.038  0.00  0.00    +0.150 C 
ATOM      7  C   LIG    1        0.475   2.489  -6.890  0.00  0.00    -0.010 A 
ENDROOT
BRANCH   1  10
ATOM      8  C   LIG    1        1.495  -1.637  -4.602  0.00  0.00    +0.100 A 
ATOM      9  N   LIG    1        1.895  -0.668  -5.372  0.00  0.00    -0.450 NA
ATOM     10  C   LIG    1        1.016   0.275  -5.656  0.00  0.00    +0.150 A 
ATOM     11  C   LIG    1       -0.200   0.120  -5.097  0.00  0.00    -0.080 A 
ATOM     12  S   LIG    1       -0.184  -1.363  -4.146  0.00  0.00    +0.150 S 
BRANCH   8  17
ATOM     13  C   LIG    1        2.567  -4.837  -2.931  0.00  0.00    +0.120 A 
ATOM     14  C   LIG    1        3.879  -4.936  -3.366  0.00  0.00    -0.040 A 
ATOM     15  C   LIG    1        4.414  -3.965  -4.196  0.00  0.00    +0.060 A 
ATOM     16  C   LIG    1        3.646  -2.894  -4.599  0.00  0.00    +0.040 A 
ATOM     17  C   LIG    1        2.321  -2.784  -4.172  0.00  0.00    -0.000 A 
ATOM     18  C   LIG    1        1.780  -3.765  -3.334  0.00  0.00    +0.080 A 
BRANCH  13  20
ATOM     19  C   LIG    1        2.915  -6.864  -1.737  0.00  0.00    +0.240 C 
ATOM     20  O   LIG    1        2.049  -5.791  -2.112  0.00  0.00    -0.300 OA
ENDBRANCH  13  20
BRANCH  18  21
ATOM     21  O   LIG    1        0.492  -3.667  -2.912  0.00  0.00    -0.320 OA
ATOM     22  C   LIG    1       -0.507  -4.279  -3.730  0.00  0.00    +0.230 C 
ENDBRANCH  18  21
ENDBRANCH   8  17
ENDBRANCH   1  10
BRANCH   3  23
ATOM     23  N   LIG    1        3.445   3.420  -8.604  0.00  0.00    -0.530 N 
ATOM     24  H   LIG    1        4.056   4.052  -8.195  0.00  0.00    +0.420 HD
ATOM     25  C   LIG    1        3.575   3.106  -9.909  0.00  0.00    +0.560 C 
ATOM     26  O   LIG    1        2.757   2.385 -10.445  0.00  0.00    -0.500 OA
BRANCH  25  27
ATOM     27  C   LIG    1        4.713   3.639 -10.688  0.00  0.00    -0.130 A 
ATOM     28  C   LIG    1        5.652   4.472 -10.076  0.00  0.00    +0.040 A 
ATOM     29  C   LIG    1        6.713   4.963 -10.808  0.00  0.00    +0.010 A 
ATOM     30  C   LIG    1        6.844   4.639 -12.146  0.00  0.00    +0.040 A 
ATOM     31  C   LIG    1        5.915   3.818 -12.760  0.00  0.00    +0.020 A 
ATOM     32  C   LIG    1        4.851   3.317 -12.039  0.00  0.00    +0.090 A 
ENDBRANCH  25  27
ENDBRANCH   3  23
TORSDOF 6
