REMARK  Name = ZINCnE000001TCgu.0
REMARK                            x       y       z     vdW  Elec       q    Type
REMARK                         _______ _______ _______ _____ _____    ______ ____
ROOT
ATOM      1  C   LIG    1        2.528   7.513  -1.011  0.00  0.00    -0.030 A 
ATOM      2  C   LIG    1        3.292   7.580  -2.174  0.00  0.00    +0.040 A 
ATOM      3  C   LIG    1        3.908   6.445  -2.659  0.00  0.00    +0.010 A 
ATOM      4  C   LIG    1        3.773   5.242  -1.990  0.00  0.00    +0.030 A 
ATOM      5  C   LIG    1        3.012   5.168  -0.837  0.00  0.00    -0.100 A 
ATOM      6  C   LIG    1        2.391   6.297  -0.343  0.00  0.00    +0.070 A 
ENDROOT
BRANCH   1   9
ATOM      7  C   LIG    1        1.372  11.076  -0.652  0.00  0.00    -0.090 A 
ATOM      8  C   LIG    1        2.006   9.939  -1.161  0.00  0.00    +0.040 A 
ATOM      9  C   LIG    1        1.862   8.730  -0.485  0.00  0.00    +0.130 A 
ATOM     10  N   LIG    1        1.133   8.653   0.619  0.00  0.00    -0.470 NA
ATOM     11  C   LIG    1        0.526   9.704   1.129  0.00  0.00    +0.250 A 
ATOM     12  C   LIG    1        0.617  10.944   0.521  0.00  0.00    -0.060 A 
ATOM     13 CL   LIG    1       -0.195  12.319   1.203  0.00  0.00    -0.030 Cl
BRANCH   7  15
ATOM     14  O   LIG    1        2.159  12.479  -2.356  0.00  0.00    -0.680 OA
ATOM     15  C   LIG    1        1.495  12.383  -1.333  0.00  0.00    +0.520 C 
ATOM     16  O   LIG    1        0.934  13.367  -0.874  0.00  0.00    -0.650 OA
ENDBRANCH   7  15
ENDBRANCH   1   9
BRANCH   5  17
ATOM     17  C   LIG    1        2.865   3.853  -0.116  0.00  0.00    +0.230 C 
BRANCH  17  18
ATOM     18  O   LIG    1        1.724   3.156  -0.622  0.00  0.00    -0.360 OA
BRANCH  18  19
ATOM     19  C   LIG    1        1.494   1.890  -0.002  0.00  0.00    +0.130 C 
ATOM     20  C   LIG    1       -0.019   1.540   0.011  0.00  0.00    +0.020 C 
ATOM     21  C   LIG    1        0.002  -0.004   0.002  0.00  0.00    +0.190 C 
ATOM     22  O   LIG    1        1.275  -0.417  -0.510  0.00  0.00    -0.380 OA
ATOM     23  C   LIG    1        2.056   0.734  -0.867  0.00  0.00    +0.190 C 
ENDBRANCH  18  19
ENDBRANCH  17  18
ENDBRANCH   5  17
TORSDOF 5
