REMARK  Name = ZINCrH000004rvSr.0
REMARK                            x       y       z     vdW  Elec       q    Type
REMARK                         _______ _______ _______ _____ _____    ______ ____
ROOT
ATOM      1  C   LIG    1        2.366   5.209  -2.210  0.00  0.00    +0.130 A 
ATOM      2  C   LIG    1        0.991   5.170  -2.015  0.00  0.00    +0.050 A 
ATOM      3  C   LIG    1        0.163   6.016  -2.730  0.00  0.00    +0.040 A 
ATOM      4  C   LIG    1        0.696   6.897  -3.648  0.00  0.00    +0.070 A 
ATOM      5  C   LIG    1        2.076   6.940  -3.855  0.00  0.00    -0.010 A 
ATOM      6  C   LIG    1        2.911   6.091  -3.131  0.00  0.00    +0.020 A 
ENDROOT
BRANCH   5   7
ATOM      7  C   LIG    1        2.650   7.883  -4.840  0.00  0.00    +0.210 A 
ATOM      8  N   LIG    1        2.007   8.482  -5.820  0.00  0.00    -0.270 NA
ATOM      9  N   LIG    1        2.818   9.238  -6.473  0.00  0.00    -0.290 NA
ATOM     10  C   LIG    1        4.010   9.169  -5.950  0.00  0.00    +0.190 A 
ATOM     11  C   LIG    1        5.245   9.909  -6.396  0.00  0.00    +0.160 C 
ATOM     12  C   LIG    1        6.417   8.926  -6.472  0.00  0.00    +0.020 C 
ATOM     13  C   LIG    1        7.107   8.846  -5.114  0.00  0.00    +0.020 C 
ATOM     14  C   LIG    1        6.093   9.020  -3.985  0.00  0.00    +0.030 C 
ATOM     15  C   LIG    1        5.056   7.894  -4.044  0.00  0.00    +0.290 C 
ATOM     16  N   LIG    1        3.946   8.305  -4.902  0.00  0.00    -0.470 N 
ENDBRANCH   5   7
BRANCH   1  17
ATOM     17  N   LIG    1        3.199   4.356  -1.482  0.00  0.00    -1.060 N 
ATOM     18  H   LIG    1        3.741   4.708  -0.758  0.00  0.00    +0.430 HD
BRANCH  17  19
ATOM     19  S   LIG    1        3.263   2.744  -1.854  0.00  0.00    +2.690 S 
ATOM     20  O   LIG    1        4.239   2.171  -0.995  0.00  0.00    -0.950 OA
ATOM     21  O   LIG    1        1.916   2.292  -1.910  0.00  0.00    -0.940 OA
BRANCH  19  26
ATOM     22  C   LIG    1        5.446   2.302  -7.461  0.00  0.00    +0.090 C 
ATOM     23  C   LIG    1        4.901   2.409  -6.061  0.00  0.00    -0.020 A 
ATOM     24  C   LIG    1        5.767   2.507  -4.987  0.00  0.00    -0.010 A 
ATOM     25  C   LIG    1        5.266   2.611  -3.703  0.00  0.00    +0.120 A 
ATOM     26  C   LIG    1        3.900   2.611  -3.491  0.00  0.00    -0.680 A 
ATOM     27  C   LIG    1        3.034   2.507  -4.564  0.00  0.00    +0.130 A 
ATOM     28  C   LIG    1        3.535   2.403  -5.848  0.00  0.00    -0.010 A 
ENDBRANCH  19  26
ENDBRANCH  17  19
ENDBRANCH   1  17
TORSDOF 4
