REMARK  Name = ZINCrH00000No4Pa.0
REMARK                            x       y       z     vdW  Elec       q    Type
REMARK                         _______ _______ _______ _____ _____    ______ ____
ROOT
ATOM      1  C   LIG    1        5.785   0.694   6.030  0.00  0.00    +0.210 A 
ATOM      2  N   LIG    1        7.101   0.573   6.156  0.00  0.00    -0.510 NA
ATOM      3  C   LIG    1        7.905   1.596   5.891  0.00  0.00    +0.440 A 
ATOM      4  N   LIG    1        7.436   2.776   5.492  0.00  0.00    -0.510 NA
ATOM      5  C   LIG    1        6.142   2.979   5.336  0.00  0.00    +0.250 A 
ATOM      6  C   LIG    1        5.629   4.319   4.877  0.00  0.00    +0.160 C 
ATOM      7  C   LIG    1        5.251   1.933   5.608  0.00  0.00    -0.210 A 
ENDROOT
BRANCH   3   8
ATOM      8  C   LIG    1        9.360   1.420   6.043  0.00  0.00    +0.010 A 
ATOM      9  C   LIG    1        9.989   0.281   6.446  0.00  0.00    +0.040 A 
ATOM     10  C   LIG    1       11.368   0.559   6.446  0.00  0.00    -0.070 A 
ATOM     11  C   LIG    1       11.513   1.843   6.056  0.00  0.00    +0.210 A 
ATOM     12  O   LIG    1       10.299   2.358   5.813  0.00  0.00    -0.150 OA
ENDBRANCH   3   8
BRANCH   1  14
ATOM     13  C   LIG    1        5.949  -1.911   6.854  0.00  0.00    +0.170 C 
ATOM     14  S   LIG    1        4.721  -0.666   6.384  0.00  0.00    -0.010 S 
ENDBRANCH   1  14
BRANCH   7  15
ATOM     15  C   LIG    1        3.801   2.118   5.453  0.00  0.00    +0.530 C 
ATOM     16  O   LIG    1        3.134   2.506   6.392  0.00  0.00    -0.480 OA
BRANCH  15  17
ATOM     17  O   LIG    1        3.211   1.855   4.269  0.00  0.00    -0.320 OA
BRANCH  17  18
ATOM     18  C   LIG    1        1.776   2.060   4.189  0.00  0.00    +0.240 C 
BRANCH  18  19
ATOM     19  C   LIG    1        1.297   1.718   2.801  0.00  0.00    +0.430 C 
ATOM     20  O   LIG    1        2.088   1.340   1.962  0.00  0.00    -0.450 OA
BRANCH  19  21
ATOM     21  C   LIG    1       -0.123   1.843   2.466  0.00  0.00    -0.270 A 
ATOM     22  C   LIG    1       -0.718   1.572   1.248  0.00  0.00    +0.120 A 
ATOM     23  N   LIG    1       -2.035   1.822   1.360  0.00  0.00    -0.540 N 
ATOM     24  H   LIG    1       -2.681   1.715   0.644  0.00  0.00    +0.420 HD
ATOM     25  C   LIG    1       -2.334   2.244   2.623  0.00  0.00    +0.010 A 
ATOM     26  C   LIG    1       -3.709   2.612   3.118  0.00  0.00    +0.130 C 
ATOM     27  C   LIG    1       -0.013   1.086   0.008  0.00  0.00    +0.150 C 
ATOM     28  C   LIG    1       -1.207   2.284   3.353  0.00  0.00    +0.000 A 
ENDBRANCH  19  21
ENDBRANCH  18  19
ENDBRANCH  17  18
ENDBRANCH  15  17
ENDBRANCH   7  15
TORSDOF 7
