REMARK  Name = ZINCrD000000CHYx.0
REMARK                            x       y       z     vdW  Elec       q    Type
REMARK                         _______ _______ _______ _____ _____    ______ ____
ROOT
ATOM      1  O   LIG    1       -2.821   2.609  -2.558  0.00  0.00    -0.520 OA
ATOM      2  C   LIG    1       -2.825   2.617  -1.342  0.00  0.00    +0.600 C 
ATOM      3  N   LIG    1       -1.963   1.836  -0.660  0.00  0.00    -0.610 N 
ATOM      4  C   LIG    1       -1.929   1.668   0.804  0.00  0.00    +0.240 C 
ATOM      5  C   LIG    1       -1.253   0.291   1.033  0.00  0.00    +0.040 C 
ATOM      6  C   LIG    1       -0.190   0.277  -0.098  0.00  0.00    +0.040 C 
ATOM      7  C   LIG    1       -0.900   1.012  -1.254  0.00  0.00    +0.230 C 
ENDROOT
BRANCH   2   8
ATOM      8  C   LIG    1       -3.772   3.480  -0.613  0.00  0.00    -0.270 A 
ATOM      9  C   LIG    1       -4.791   4.229  -1.167  0.00  0.00    +0.320 A 
ATOM     10  N   LIG    1       -5.415   4.865  -0.159  0.00  0.00    -0.310 N 
ATOM     11  N   LIG    1       -4.782   4.523   1.041  0.00  0.00    -0.290 NA
ATOM     12  C   LIG    1       -3.804   3.700   0.783  0.00  0.00    +0.280 A 
BRANCH  10  13
ATOM     13  C   LIG    1       -6.512   5.729  -0.290  0.00  0.00    +0.100 A 
ATOM     14  C   LIG    1       -7.071   6.335   0.832  0.00  0.00    +0.080 A 
ATOM     15  C   LIG    1       -8.154   7.180   0.652  0.00  0.00    +0.000 A 
ATOM     16  C   LIG    1       -8.640   7.393  -0.625  0.00  0.00    +0.260 A 
ATOM     17  N   LIG    1       -8.088   6.803  -1.667  0.00  0.00    -0.460 NA
ATOM     18  C   LIG    1       -7.053   5.996  -1.540  0.00  0.00    +0.250 A 
ENDBRANCH  10  13
ENDBRANCH   2   8
BRANCH   7  19
ATOM     19  C   LIG    1        0.098   1.904  -1.994  0.00  0.00    +0.080 C 
BRANCH  19  20
ATOM     20  C   LIG    1       -0.550   2.461  -3.236  0.00  0.00    -0.060 A 
ATOM     21  C   LIG    1       -0.709   1.660  -4.351  0.00  0.00    +0.020 A 
ATOM     22  C   LIG    1       -1.308   2.170  -5.490  0.00  0.00    +0.090 A 
ATOM     23  C   LIG    1       -1.740   3.485  -5.515  0.00  0.00    +0.010 A 
ATOM     24  C   LIG    1       -1.576   4.288  -4.402  0.00  0.00    +0.010 A 
ATOM     25  F   LIG    1       -1.468   1.386  -6.578  0.00  0.00    -0.140 F 
ATOM     26  C   LIG    1       -0.981   3.776  -3.262  0.00  0.00    +0.130 A 
ATOM     27  F   LIG    1       -0.821   4.561  -2.173  0.00  0.00    -0.140 F 
ENDBRANCH  19  20
ENDBRANCH   7  19
TORSDOF 4
