REMARK  Name = ZINCvU0000000GCI.0
REMARK                            x       y       z     vdW  Elec       q    Type
REMARK                         _______ _______ _______ _____ _____    ______ ____
ROOT
ATOM      1  C   LIG    1        4.955  -2.675   0.140  0.00  0.00    -0.140 A 
ATOM      2  C   LIG    1        6.158  -1.968   0.139  0.00  0.00    +0.050 A 
ATOM      3  C   LIG    1        7.354  -2.648   0.236  0.00  0.00    +0.010 A 
ATOM      4  C   LIG    1        7.363  -4.029   0.322  0.00  0.00    -0.050 A 
ATOM      5  C   LIG    1        6.174  -4.737   0.318  0.00  0.00    +0.030 A 
ATOM      6  C   LIG    1        4.971  -4.068   0.228  0.00  0.00    +0.090 A 
ENDROOT
BRANCH   1   9
ATOM      7  N   LIG    1        3.657  -0.607  -0.041  0.00  0.00    -0.670 N 
ATOM      8  H   LIG    1        4.491  -0.118  -0.113  0.00  0.00    +0.410 HD
ATOM      9  C   LIG    1        3.669  -1.952   0.043  0.00  0.00    +0.560 C 
ATOM     10  O   LIG    1        2.623  -2.571   0.039  0.00  0.00    -0.510 OA
BRANCH   7  14
ATOM     11  C   LIG    1       -0.982  -0.242   1.546  0.00  0.00    +0.110 C 
ATOM     12  C   LIG    1        0.175   0.283   0.735  0.00  0.00    -0.050 A 
ATOM     13  C   LIG    1        1.374  -0.401   0.721  0.00  0.00    +0.030 A 
ATOM     14  C   LIG    1        2.440   0.083  -0.026  0.00  0.00    +0.160 A 
ATOM     15  C   LIG    1        2.296   1.255  -0.757  0.00  0.00    +0.000 A 
ATOM     16  C   LIG    1        1.095   1.935  -0.740  0.00  0.00    +0.060 A 
ATOM     17  C   LIG    1        0.034   1.451   0.006  0.00  0.00    -0.050 A 
ATOM     18 CL   LIG    1       -1.472   2.312   0.031  0.00  0.00    -0.070 Cl
ENDBRANCH   7  14
ENDBRANCH   1   9
BRANCH   4  19
ATOM     19  C   LIG    1        8.674  -4.766   0.422  0.00  0.00    +0.230 C 
BRANCH  19  20
ATOM     20  N   LIG    1        9.156  -5.092  -0.927  0.00  0.00    -0.520 NA
ATOM     21  C   LIG    1        9.497  -3.873  -1.673  0.00  0.00    +0.200 C 
BRANCH  20  22
ATOM     22  C   LIG    1       10.302  -6.011  -0.869  0.00  0.00    +0.220 C 
BRANCH  22  23
ATOM     23  C   LIG    1       10.613  -6.514  -2.255  0.00  0.00    +0.510 C 
ATOM     24  N   LIG    1       11.631  -7.375  -2.446  0.00  0.00    -0.680 N 
ATOM     25  H   LIG    1       12.122  -7.723  -1.685  0.00  0.00    +0.410 HD
ATOM     26  O   LIG    1        9.946  -6.144  -3.198  0.00  0.00    -0.500 OA
BRANCH  24  27
ATOM     27  C   LIG    1       11.982  -7.768  -3.744  0.00  0.00    +0.130 A 
ATOM     28  C   LIG    1       10.998  -7.938  -4.708  0.00  0.00    +0.060 A 
ATOM     29  C   LIG    1       11.346  -8.321  -5.989  0.00  0.00    +0.010 A 
ATOM     30  C   LIG    1       12.675  -8.544  -6.308  0.00  0.00    +0.080 A 
ATOM     31  C   LIG    1       13.657  -8.380  -5.346  0.00  0.00    +0.000 A 
ATOM     32  F   LIG    1       13.013  -8.924  -7.560  0.00  0.00    -0.140 F 
ATOM     33  C   LIG    1       13.314  -7.992  -4.066  0.00  0.00    +0.020 A 
ENDBRANCH  24  27
ENDBRANCH  22  23
ENDBRANCH  20  22
ENDBRANCH  19  20
ENDBRANCH   4  19
TORSDOF 7
