REMARK  Name = ZINC9p0000002mt2.0
REMARK                            x       y       z     vdW  Elec       q    Type
REMARK                         _______ _______ _______ _____ _____    ______ ____
ROOT
ATOM      1  C   LIG    1        0.002  -0.004   0.002  0.00  0.00    +0.170 C 
ATOM      2  C   LIG    1       -0.019   1.545   0.011  0.00  0.00    +0.080 C 
ATOM      3  C   LIG    1        1.496   1.879  -0.002  0.00  0.00    +0.070 C 
ATOM      4  C   LIG    1        2.107   0.756   0.862  0.00  0.00    +0.250 C 
ATOM      5  N   LIG    1        1.156  -0.371   0.851  0.00  0.00    -0.510 N 
ATOM      6  H   LIG    1        1.608  -1.190   0.474  0.00  0.00    +0.430 HD
ATOM      7  H   LIG    1        0.840  -0.558   1.790  0.00  0.00    +0.430 HD
ENDROOT
BRANCH   1   8
ATOM      8  C   LIG    1       -1.295  -0.558   0.595  0.00  0.00    +0.060 C 
BRANCH   8   9
ATOM      9  C   LIG    1       -1.307  -2.082   0.463  0.00  0.00    +0.010 C 
BRANCH   9  11
ATOM     10  C   LIG    1       -2.615  -4.160   0.923  0.00  0.00    +0.010 C 
ATOM     11  C   LIG    1       -2.604  -2.635   1.055  0.00  0.00    +0.010 C 
ENDBRANCH   9  11
ENDBRANCH   8   9
ENDBRANCH   1   8
TORSDOF 3
