REMARK  Name = ZINCrH000004lCoi.0
REMARK                            x       y       z     vdW  Elec       q    Type
REMARK                         _______ _______ _______ _____ _____    ______ ____
ROOT
ATOM      1  C   LIG    1       -3.785   5.895   0.286  0.00  0.00    +0.270 C 
ATOM      2  C   LIG    1       -4.514   5.412   1.542  0.00  0.00    +0.080 C 
ENDROOT
BRANCH   1   3
ATOM      3  N   LIG    1       -3.536   7.335   0.390  0.00  0.00    -0.560 N 
ATOM      4  C   LIG    1       -2.814   7.914   1.366  0.00  0.00    +0.590 C 
ATOM      5  C   LIG    1       -2.785   9.373   1.128  0.00  0.00    -0.120 A 
ATOM      6  C   LIG    1       -2.209  10.448   1.784  0.00  0.00    +0.140 A 
ATOM      7  C   LIG    1       -2.385  11.732   1.287  0.00  0.00    -0.010 A 
ATOM      8  C   LIG    1       -3.131  11.943   0.140  0.00  0.00    -0.020 A 
ATOM      9  C   LIG    1       -3.713  10.874  -0.527  0.00  0.00    +0.140 A 
ATOM     10 CL   LIG    1       -3.339  13.556  -0.468  0.00  0.00    -0.020 Cl
ATOM     11 CL   LIG    1       -1.665  13.081   2.108  0.00  0.00    -0.020 Cl
ATOM     12  C   LIG    1       -3.545   9.588  -0.040  0.00  0.00    -0.120 A 
ATOM     13  O   LIG    1       -2.274   7.335   2.287  0.00  0.00    -0.430 OA
ATOM     14  C   LIG    1       -4.005   8.253  -0.475  0.00  0.00    +0.580 C 
ATOM     15  O   LIG    1       -4.690   8.022  -1.451  0.00  0.00    -0.450 OA
ENDBRANCH   1   3
BRANCH   1  18
ATOM     16  N   LIG    1       -2.456   3.823   0.046  0.00  0.00    -0.660 N 
ATOM     17  H   LIG    1       -3.289   3.332  -0.030  0.00  0.00    +0.410 HD
ATOM     18  C   LIG    1       -2.473   5.166   0.156  0.00  0.00    +0.510 C 
ATOM     19  O   LIG    1       -1.432   5.789   0.150  0.00  0.00    -0.490 OA
BRANCH  16  25
ATOM     20  C   LIG    1       -1.141   1.893  -0.568  0.00  0.00    -0.120 A 
ATOM     21  C   LIG    1        0.063   1.215  -0.566  0.00  0.00    +0.060 A 
ATOM     22  C   LIG    1        1.175   1.780   0.033  0.00  0.00    +0.000 A 
ATOM     23  C   LIG    1        1.083   3.020   0.636  0.00  0.00    +0.030 A 
ATOM     24  C   LIG    1       -0.119   3.701   0.642  0.00  0.00    +0.020 A 
ATOM     25  C   LIG    1       -1.236   3.137   0.041  0.00  0.00    +0.150 A 
BRANCH  20  26
ATOM     26  C   LIG    1       -2.350   1.280  -1.226  0.00  0.00    +0.220 C 
BRANCH  26  28
ATOM     27  C   LIG    1       -3.083  -0.664  -2.422  0.00  0.00    +0.200 C 
ATOM     28  O   LIG    1       -2.001   0.006  -1.772  0.00  0.00    -0.380 OA
ENDBRANCH  26  28
ENDBRANCH  20  26
ENDBRANCH  16  25
ENDBRANCH   1  18
TORSDOF 5
