REMARK  Name = ZINCvU000000073i.0
REMARK                            x       y       z     vdW  Elec       q    Type
REMARK                         _______ _______ _______ _____ _____    ______ ____
ROOT
ATOM      1  C   LIG    1       -4.807   1.188   5.230  0.00  0.00    -0.690 A 
ATOM      2  C   LIG    1       -6.008   0.546   5.473  0.00  0.00    +0.180 A 
ATOM      3  C   LIG    1       -6.650  -0.143   4.460  0.00  0.00    +0.010 A 
ATOM      4  C   LIG    1       -6.094  -0.194   3.196  0.00  0.00    +0.060 A 
ATOM      5  C   LIG    1       -4.881   0.453   2.944  0.00  0.00    -0.150 A 
ATOM      6 CL   LIG    1       -6.899  -1.060   1.925  0.00  0.00    -0.010 Cl
ATOM      7  C   LIG    1       -4.238   1.141   3.974  0.00  0.00    +0.170 A 
ENDROOT
BRANCH   5   8
ATOM      8  C   LIG    1       -4.279   0.403   1.596  0.00  0.00    +0.560 C 
ATOM      9  N   LIG    1       -3.110   1.028   1.356  0.00  0.00    -0.720 N 
ATOM     10  H   LIG    1       -2.663   1.510   2.069  0.00  0.00    +0.400 HD
ATOM     11  O   LIG    1       -4.840  -0.202   0.702  0.00  0.00    -0.500 OA
BRANCH   9  12
ATOM     12  C   LIG    1       -2.513   0.979   0.019  0.00  0.00    +0.340 C 
BRANCH  12  13
ATOM     13  C   LIG    1       -1.219   1.750   0.017  0.00  0.00    -0.100 A 
ATOM     14  C   LIG    1       -0.013   1.076   0.008  0.00  0.00    +0.080 A 
ATOM     15  C   LIG    1        1.175   1.783   0.000  0.00  0.00    +0.030 A 
ATOM     16  C   LIG    1        1.157   3.166   0.008  0.00  0.00    -0.020 A 
ATOM     17  C   LIG    1       -0.050   3.842   0.023  0.00  0.00    +0.050 A 
ATOM     18 CL   LIG    1        2.649   4.054  -0.001  0.00  0.00    -0.050 Cl
ATOM     19  C   LIG    1       -1.238   3.134   0.031  0.00  0.00    -0.010 A 
ATOM     20 CL   LIG    1       -2.753   3.981   0.050  0.00  0.00    -0.040 Cl
ENDBRANCH  12  13
ENDBRANCH   9  12
ENDBRANCH   5   8
BRANCH   1  21
ATOM     21  S   LIG    1       -3.999   2.062   6.529  0.00  0.00    +2.690 S 
ATOM     22  O   LIG    1       -5.007   2.401   7.471  0.00  0.00    -0.950 OA
ATOM     23  O   LIG    1       -3.163   3.026   5.904  0.00  0.00    -0.940 OA
BRANCH  21  25
ATOM     24  C   LIG    1       -3.481   0.199   8.419  0.00  0.00    +0.310 C 
ATOM     25  N   LIG    1       -2.991   0.990   7.288  0.00  0.00    -0.990 NA
BRANCH  25  26
ATOM     26  C   LIG    1       -1.609   0.833   6.828  0.00  0.00    +0.340 C 
BRANCH  26  27
ATOM     27  C   LIG    1       -0.703   1.713   7.650  0.00  0.00    -0.120 A 
ATOM     28  C   LIG    1       -0.441   3.008   7.242  0.00  0.00    +0.040 A 
ATOM     29  C   LIG    1        0.386   3.817   7.998  0.00  0.00    +0.000 A 
ATOM     30  C   LIG    1        0.960   3.328   9.157  0.00  0.00    +0.010 A 
ATOM     31  C   LIG    1        0.703   2.031   9.562  0.00  0.00    -0.010 A 
ATOM     32  C   LIG    1       -0.129   1.224   8.808  0.00  0.00    +0.020 A 
ENDBRANCH  26  27
ENDBRANCH  25  26
ENDBRANCH  21  25
ENDBRANCH   1  21
TORSDOF 7
