REMARK  Name = ZINCpk00000xI4Hd.0
REMARK                            x       y       z     vdW  Elec       q    Type
REMARK                         _______ _______ _______ _____ _____    ______ ____
ROOT
ATOM      1  C   LIG    1       -5.277   0.226   2.112  0.00  0.00    +0.600 C 
ATOM      2  N   LIG    1       -4.419   0.066   1.086  0.00  0.00    -0.610 N 
ATOM      3  C   LIG    1       -4.800  -0.707  -0.107  0.00  0.00    +0.250 C 
ATOM      4  C   LIG    1       -3.696  -1.732  -0.391  0.00  0.00    +0.220 C 
ATOM      5  O   LIG    1       -2.433  -1.064  -0.444  0.00  0.00    -0.360 OA
ATOM      6  C   LIG    1       -2.053  -0.432   0.781  0.00  0.00    +0.220 C 
ATOM      7  C   LIG    1       -3.073   0.659   1.125  0.00  0.00    +0.280 C 
ATOM      8  O   LIG    1       -4.911   0.780   3.131  0.00  0.00    -0.530 OA
ENDROOT
BRANCH   1  14
ATOM      9  C   LIG    1       -7.415  -0.890   3.021  0.00  0.00    +0.140 A 
ATOM     10  N   LIG    1       -8.590  -1.182   2.535  0.00  0.00    -0.290 NA
ATOM     11  N   LIG    1       -8.640  -0.777   1.196  0.00  0.00    -0.460 N 
ATOM     12  H   LIG    1       -9.399  -0.880   0.601  0.00  0.00    +0.450 HD
ATOM     13  C   LIG    1       -7.460  -0.221   0.876  0.00  0.00    +0.290 A 
ATOM     14  C   LIG    1       -6.661  -0.270   2.000  0.00  0.00    -0.280 A 
BRANCH   9  15
ATOM     15  C   LIG    1       -6.946  -1.163   4.427  0.00  0.00    +0.130 C 
BRANCH  15  17
ATOM     16  C   LIG    1       -6.807  -0.244   6.746  0.00  0.00    +0.020 C 
ATOM     17  C   LIG    1       -7.283   0.034   5.319  0.00  0.00    +0.020 C 
ENDBRANCH  15  17
ENDBRANCH   9  15
ENDBRANCH   1  14
BRANCH   6  18
ATOM     18  C   LIG    1       -0.687   0.185   0.626  0.00  0.00    +0.220 A 
ATOM     19  C   LIG    1        0.384  -0.287   1.368  0.00  0.00    -0.120 A 
ATOM     20  C   LIG    1        1.625   0.305   1.191  0.00  0.00    +0.370 A 
ATOM     21  N   LIG    1        1.748   1.300   0.328  0.00  0.00    -0.560 NA
ATOM     22  C   LIG    1        0.702   1.731  -0.362  0.00  0.00    +0.560 A 
ATOM     23  N   LIG    1       -0.497   1.188  -0.216  0.00  0.00    -0.550 NA
BRANCH  22  24
ATOM     24  N   LIG    1        0.866   2.775  -1.256  0.00  0.00    -0.590 N 
ATOM     25  C   LIG    1       -0.278   3.266  -2.027  0.00  0.00    +0.300 C 
ATOM     26  C   LIG    1        2.185   3.389  -1.430  0.00  0.00    +0.310 C 
ENDBRANCH  22  24
ENDBRANCH   6  18
TORSDOF 5
