REMARK  Name = ZINCpk00000xWzEN.0
REMARK                            x       y       z     vdW  Elec       q    Type
REMARK                         _______ _______ _______ _____ _____    ______ ____
ROOT
ATOM      1  C   LIG    1        3.574   2.226  -2.861  0.00  0.00    +0.200 A 
ATOM      2  C   LIG    1        2.759   1.875  -3.929  0.00  0.00    +0.000 A 
ATOM      3  C   LIG    1        3.278   1.838  -5.208  0.00  0.00    +0.140 A 
ATOM      4  C   LIG    1        4.610   2.141  -5.425  0.00  0.00    -0.690 A 
ATOM      5  C   LIG    1        5.425   2.486  -4.362  0.00  0.00    +0.150 A 
ATOM      6  C   LIG    1        4.911   2.529  -3.081  0.00  0.00    -0.030 A 
ENDROOT
BRANCH   1   8
ATOM      7  C   LIG    1        1.769   2.640  -1.366  0.00  0.00    +0.500 C 
ATOM      8  N   LIG    1        3.050   2.269  -1.564  0.00  0.00    -0.670 N 
ATOM      9  H   LIG    1        3.608   2.031  -0.807  0.00  0.00    +0.420 HD
ATOM     10  O   LIG    1        1.100   3.029  -2.300  0.00  0.00    -0.490 OA
BRANCH   7  15
ATOM     11  O   LIG    1       -1.965   4.098   0.221  0.00  0.00    -0.520 OA
ATOM     12  C   LIG    1       -0.788   3.805   0.225  0.00  0.00    +0.530 C 
ATOM     13  C   LIG    1        0.340   4.755   0.563  0.00  0.00    +0.060 C 
ATOM     14  C   LIG    1        1.551   3.830   0.827  0.00  0.00    +0.080 C 
ATOM     15  C   LIG    1        1.170   2.573   0.015  0.00  0.00    +0.240 C 
ATOM     16  N   LIG    1       -0.296   2.589  -0.067  0.00  0.00    -0.710 N 
ATOM     17  H   LIG    1       -0.839   1.821  -0.305  0.00  0.00    +0.420 HD
ENDBRANCH   7  15
ENDBRANCH   1   8
BRANCH   4  18
ATOM     18  S   LIG    1        5.270   2.087  -7.058  0.00  0.00    +2.690 S 
ATOM     19  O   LIG    1        6.409   2.936  -7.058  0.00  0.00    -0.950 OA
ATOM     20  O   LIG    1        4.170   2.261  -7.941  0.00  0.00    -0.950 OA
BRANCH  18  21
ATOM     21  N   LIG    1        5.832   0.550  -7.308  0.00  0.00    -0.990 NA
ATOM     22  C   LIG    1        7.206   0.251  -6.971  0.00  0.00    +0.280 C 
ATOM     23  C   LIG    1        8.118   0.531  -8.183  0.00  0.00    +0.010 C 
ATOM     24  C   LIG    1        7.899  -0.478  -9.231  0.00  0.00    +0.000 C 
ATOM     25  C   LIG    1        6.488  -0.486  -9.811  0.00  0.00    +0.010 C 
ATOM     26  C   LIG    1        5.594  -1.333  -8.940  0.00  0.00    +0.020 C 
ATOM     27  C   LIG    1        4.912  -0.457  -7.873  0.00  0.00    +0.270 C 
ENDBRANCH  18  21
ENDBRANCH   4  18
TORSDOF 4
