REMARK  Name = ZINCAx00000008oU.0
REMARK                            x       y       z     vdW  Elec       q    Type
REMARK                         _______ _______ _______ _____ _____    ______ ____
ROOT
ATOM      1  C   LIG    1        4.232   0.025  -1.011  0.00  0.00    +0.310 C 
ENDROOT
BRANCH   1   2
ATOM      2  C   LIG    1        2.775   0.402  -0.927  0.00  0.00    +0.520 C 
ATOM      3  N   LIG    1        2.265   0.865   0.232  0.00  0.00    -0.500 N 
ATOM      4  H   LIG    1        2.836   0.956   1.011  0.00  0.00    +0.430 HD
ATOM      5  O   LIG    1        2.062   0.288  -1.901  0.00  0.00    -0.480 OA
BRANCH   3   6
ATOM      6  N   LIG    1        0.911   1.216   0.310  0.00  0.00    -0.370 N 
ATOM      7  C   LIG    1       -0.092   0.332   0.371  0.00  0.00    +0.710 C 
ATOM      8  N   LIG    1       -1.297   0.927   0.435  0.00  0.00    -0.710 N 
ATOM      9  H   LIG    1       -2.159   0.485   0.482  0.00  0.00    +0.450 HD
ATOM     10  C   LIG    1       -1.052   2.379   0.423  0.00  0.00    +0.180 C 
ATOM     11  C   LIG    1       -1.562   3.030   1.710  0.00  0.00    +0.110 C 
ATOM     12  O   LIG    1        0.068  -0.872   0.365  0.00  0.00    -0.520 OA
ATOM     13  C   LIG    1        0.458   2.485   0.334  0.00  0.00    +0.540 C 
ATOM     14  O   LIG    1        1.120   3.500   0.293  0.00  0.00    -0.440 OA
BRANCH  10  15
ATOM     15  C   LIG    1       -1.700   3.011  -0.781  0.00  0.00    -0.100 A 
ATOM     16  C   LIG    1       -1.084   4.071  -1.421  0.00  0.00    +0.030 A 
ATOM     17  C   LIG    1       -1.677   4.648  -2.529  0.00  0.00    +0.020 A 
ATOM     18  C   LIG    1       -2.889   4.172  -2.991  0.00  0.00    +0.020 A 
ATOM     19  C   LIG    1       -3.507   3.115  -2.349  0.00  0.00    +0.010 A 
ATOM     20  C   LIG    1       -2.913   2.535  -1.244  0.00  0.00    +0.030 A 
ENDBRANCH  10  15
ENDBRANCH   3   6
ENDBRANCH   1   2
BRANCH   1  21
ATOM     21  O   LIG    1        4.534  -0.443  -2.352  0.00  0.00    -0.330 OA
BRANCH  21  22
ATOM     22  C   LIG    1        5.805  -0.822  -2.597  0.00  0.00    +0.530 C 
ATOM     23  O   LIG    1        6.638  -0.764  -1.712  0.00  0.00    -0.510 OA
BRANCH  22  25
ATOM     24  C   LIG    1        7.485  -1.694  -4.181  0.00  0.00    +0.310 C 
ATOM     25  C   LIG    1        6.183  -1.305  -3.930  0.00  0.00    -0.160 C 
BRANCH  24  29
ATOM     26  C   LIG    1        7.131  -4.021  -8.650  0.00  0.00    +0.140 C 
ATOM     27  C   LIG    1        7.649  -3.334  -7.413  0.00  0.00    +0.020 A 
ATOM     28  C   LIG    1        6.894  -2.890  -6.395  0.00  0.00    -0.010 A 
ATOM     29  C   LIG    1        7.819  -2.296  -5.420  0.00  0.00    -0.220 A 
ATOM     30  C   LIG    1        9.085  -2.439  -5.965  0.00  0.00    +0.120 A 
ATOM     31  C   LIG    1       10.376  -1.978  -5.338  0.00  0.00    +0.160 C 
ATOM     32  N   LIG    1        8.962  -3.066  -7.149  0.00  0.00    -0.420 N 
BRANCH  32  33
ATOM     33  C   LIG    1       10.079  -3.406  -8.034  0.00  0.00    +0.290 C 
BRANCH  33  34
ATOM     34  C   LIG    1       10.338  -2.247  -8.998  0.00  0.00    -0.030 C 
ATOM     35  C   LIG    1        9.130  -2.070  -9.920  0.00  0.00    +0.020 C 
ATOM     36  C   LIG    1       11.581  -2.549  -9.837  0.00  0.00    +0.030 C 
ENDBRANCH  33  34
ENDBRANCH  32  33
ENDBRANCH  24  29
BRANCH  25  37
ATOM     37  C   LIG    1        5.202  -1.374  -4.971  0.00  0.00    +0.270 C 
ATOM     38  N   LIG    1        4.424  -1.429  -5.797  0.00  0.00    -0.420 NA
ENDBRANCH  25  37
ENDBRANCH  22  25
ENDBRANCH  21  22
ENDBRANCH   1  21
TORSDOF 10
