REMARK  Name = ZINCrD0000075vtg.0
REMARK                            x       y       z     vdW  Elec       q    Type
REMARK                         _______ _______ _______ _____ _____    ______ ____
ROOT
ATOM      1  O   LIG    1       -1.419   7.545   2.355  0.00  0.00    -0.490 OA
ATOM      2  C   LIG    1       -2.388   7.413   3.065  0.00  0.00    +0.460 C 
ENDROOT
BRANCH   2   3
ATOM      3  O   LIG    1       -2.386   7.927   4.305  0.00  0.00    -0.340 OA
BRANCH   3   4
ATOM      4  C   LIG    1       -1.187   8.628   4.727  0.00  0.00    +0.240 C 
BRANCH   4   5
ATOM      5  C   LIG    1       -1.368   9.131   6.136  0.00  0.00    +0.400 C 
ATOM      6  O   LIG    1       -2.406   8.919   6.727  0.00  0.00    -0.410 OA
BRANCH   5   7
ATOM      7  C   LIG    1       -0.290   9.876   6.792  0.00  0.00    -0.210 A 
ATOM      8  C   LIG    1        0.912  10.118   6.114  0.00  0.00    +0.100 A 
ATOM      9  C   LIG    1        1.913  10.816   6.726  0.00  0.00    -0.030 A 
ATOM     10  C   LIG    1        1.752  11.284   8.027  0.00  0.00    +0.160 A 
ATOM     11  C   LIG    1        0.570  11.049   8.715  0.00  0.00    -0.040 A 
ATOM     12  C   LIG    1       -0.456  10.348   8.107  0.00  0.00    +0.190 A 
BRANCH  10  13
ATOM     13  O   LIG    1        2.756  11.972   8.625  0.00  0.00    -0.490 OA
ATOM     14  H   LIG    1        3.380  11.415   9.112  0.00  0.00    +0.400 HD
ENDBRANCH  10  13
BRANCH  12  15
ATOM     15  O   LIG    1       -1.613  10.115   8.774  0.00  0.00    -0.480 OA
ATOM     16  H   LIG    1       -1.616   9.291   9.281  0.00  0.00    +0.400 HD
ENDBRANCH  12  15
ENDBRANCH   5   7
ENDBRANCH   4   5
ENDBRANCH   3   4
ENDBRANCH   2   3
BRANCH   2  17
ATOM     17  C   LIG    1       -3.598   6.671   2.558  0.00  0.00    +0.200 C 
BRANCH  17  18
ATOM     18  C   LIG    1       -3.345   6.200   1.150  0.00  0.00    -0.180 A 
ATOM     19  C   LIG    1       -3.697   6.824   0.017  0.00  0.00    +0.250 A 
ATOM     20  O   LIG    1       -3.305   6.104  -1.049  0.00  0.00    -0.190 OA
ATOM     21  C   LIG    1       -2.677   4.975  -0.663  0.00  0.00    +0.060 A 
ATOM     22  C   LIG    1       -2.096   3.921  -1.353  0.00  0.00    +0.030 A 
ATOM     23  C   LIG    1       -1.512   2.875  -0.665  0.00  0.00    -0.070 A 
ATOM     24  C   LIG    1       -1.501   2.866   0.723  0.00  0.00    -0.110 A 
ATOM     25  C   LIG    1       -0.802   1.617   1.223  0.00  0.00    +0.080 C 
ATOM     26  C   LIG    1       -0.013   1.086   0.008  0.00  0.00    +0.030 C 
ATOM     27  C   LIG    1       -2.074   3.906   1.427  0.00  0.00    +0.060 A 
ATOM     28  C   LIG    1       -0.825   1.630  -1.186  0.00  0.00    +0.090 C 
ATOM     29  C   LIG    1       -2.664   4.965   0.742  0.00  0.00    -0.110 A 
ENDBRANCH  17  18
ENDBRANCH   2  17
TORSDOF 8
