REMARK  Name = ZINCvU0000000Hml.0
REMARK                            x       y       z     vdW  Elec       q    Type
REMARK                         _______ _______ _______ _____ _____    ______ ____
ROOT
ATOM      1  C   LIG    1        1.770  -1.972  -0.515  0.00  0.00    +0.370 C 
ATOM      2  C   LIG    1        1.333  -0.572  -0.237  0.00  0.00    -0.240 A 
ATOM      3  C   LIG    1        2.447   0.219  -0.232  0.00  0.00    +0.100 A 
ATOM      4  C   LIG    1        3.618  -0.631  -0.506  0.00  0.00    +0.570 C 
ATOM      5  O   LIG    1        4.765  -0.235  -0.573  0.00  0.00    -0.420 OA
ATOM      6  O   LIG    1        2.396   1.545   0.001  0.00  0.00    -0.170 OA
ATOM      7  C   LIG    1        1.201   2.179   0.002  0.00  0.00    +0.150 A 
ATOM      8  C   LIG    1        1.175   3.573   0.001  0.00  0.00    +0.040 A 
ATOM      9  C   LIG    1       -0.028   4.244   0.012  0.00  0.00    +0.120 A 
ATOM     10  C   LIG    1       -1.230   3.548   0.025  0.00  0.00    -0.060 A 
ATOM     11  C   LIG    1       -1.230   2.170   0.020  0.00  0.00    +0.140 A 
ATOM     12 CL   LIG    1       -2.734   4.416   0.043  0.00  0.00    -0.040 Cl
ATOM     13  C   LIG    1       -0.018   1.481   0.010  0.00  0.00    -0.200 A 
ATOM     14  C   LIG    1        0.002  -0.004   0.002  0.00  0.00    +0.460 A 
ATOM     15  O   LIG    1       -0.993  -0.686   0.177  0.00  0.00    -0.420 OA
ATOM     16  N   LIG    1        3.232  -1.912  -0.673  0.00  0.00    -0.510 N 
ENDROOT
BRANCH   1  21
ATOM     17  C   LIG    1       -0.567  -3.757  -2.889  0.00  0.00    +0.140 A 
ATOM     18  C   LIG    1       -0.040  -3.393  -4.119  0.00  0.00    -0.060 A 
ATOM     19  C   LIG    1        1.070  -2.571  -4.178  0.00  0.00    +0.060 A 
ATOM     20  C   LIG    1        1.654  -2.113  -3.012  0.00  0.00    -0.010 A 
ATOM     21  C   LIG    1        1.130  -2.474  -1.784  0.00  0.00    -0.080 A 
ATOM     22  C   LIG    1        0.024  -3.300  -1.720  0.00  0.00    +0.030 A 
BRANCH  17  23
ATOM     23  O   LIG    1       -1.658  -4.565  -2.829  0.00  0.00    -0.310 OA
BRANCH  23  24
ATOM     24  C   LIG    1       -2.211  -5.002  -4.072  0.00  0.00    +0.230 C 
BRANCH  24  26
ATOM     25  C   LIG    1       -4.507  -5.715  -4.497  0.00  0.00    +0.040 C 
ATOM     26  C   LIG    1       -3.406  -5.882  -3.808  0.00  0.00    -0.040 C 
ENDBRANCH  24  26
ENDBRANCH  23  24
ENDBRANCH  17  23
ENDBRANCH   1  21
BRANCH  16  27
ATOM     27  C   LIG    1        4.068  -2.987  -0.946  0.00  0.00    +0.280 A 
ATOM     28  N   LIG    1        5.355  -2.910  -1.081  0.00  0.00    -0.480 NA
ATOM     29  C   LIG    1        5.996  -4.035  -1.339  0.00  0.00    +0.260 A 
ATOM     30  C   LIG    1        5.213  -5.112  -1.427  0.00  0.00    -0.080 A 
ATOM     31  S   LIG    1        3.550  -4.604  -1.145  0.00  0.00    +0.170 S 
ENDBRANCH  16  27
TORSDOF 5
