REMARK  Name = ZINCkj00000dDPSy.1
REMARK                            x       y       z     vdW  Elec       q    Type
REMARK                         _______ _______ _______ _____ _____    ______ ____
ROOT
ATOM      1  C   LIG    1        1.147   1.655   0.000  0.00  0.00    +0.500 C 
ATOM      2  N   LIG    1       -0.011   0.966   0.007  0.00  0.00    -0.730 N 
ATOM      3  H   LIG    1        0.002  -0.004   0.002  0.00  0.00    +0.410 HD
ATOM      4  O   LIG    1        1.130   2.868   0.007  0.00  0.00    -0.500 OA
ENDROOT
BRANCH   1   5
ATOM      5  C   LIG    1        2.462   0.920  -0.017  0.00  0.00    +0.380 C 
BRANCH   5  12
ATOM      6  C   LIG    1        3.836   2.093   2.503  0.00  0.00    +0.140 C 
ATOM      7  C   LIG    1        4.169   2.405   1.067  0.00  0.00    +0.090 A 
ATOM      8  C   LIG    1        5.130   3.255   0.637  0.00  0.00    -0.110 A 
ATOM      9  C   LIG    1        5.111   3.256  -0.761  0.00  0.00    +0.090 A 
ATOM     10  N   LIG    1        4.175   2.432  -1.158  0.00  0.00    -0.290 NA
ATOM     11  C   LIG    1        6.015   4.063  -1.657  0.00  0.00    +0.150 C 
ATOM     12  N   LIG    1        3.562   1.887  -0.022  0.00  0.00    -0.370 N 
ENDBRANCH   5  12
ENDBRANCH   1   5
BRANCH   2  13
ATOM     13  C   LIG    1       -1.290   1.681   0.017  0.00  0.00    +0.280 C 
BRANCH  13  14
ATOM     14  C   LIG    1       -2.439   0.671   0.017  0.00  0.00    +0.260 C 
BRANCH  14  15
ATOM     15  N   LIG    1       -3.721   1.388   0.027  0.00  0.00    -0.380 N 
ATOM     16  C   LIG    1       -3.853   2.133   1.285  0.00  0.00    +0.250 C 
ATOM     17  C   LIG    1       -5.149   2.947   1.266  0.00  0.00    +0.050 C 
ATOM     18  C   LIG    1       -6.339   1.997   1.107  0.00  0.00    +0.050 C 
ATOM     19  C   LIG    1       -6.154   1.171  -0.169  0.00  0.00    +0.010 C 
ATOM     20  C   LIG    1       -6.154   2.101  -1.384  0.00  0.00    +0.040 C 
ATOM     21  C   LIG    1       -4.820   0.424  -0.097  0.00  0.00    +0.260 C 
ATOM     22  H   LIG    1       -3.751   2.033  -0.749  0.00  0.00    +0.420 HD
ENDBRANCH  14  15
ENDBRANCH  13  14
ENDBRANCH   2  13
TORSDOF 5
