REMARK  Name = ZINCkj00000dDPSy.0
REMARK                            x       y       z     vdW  Elec       q    Type
REMARK                         _______ _______ _______ _____ _____    ______ ____
ROOT
ATOM      1  C   LIG    1       -2.977   1.649   1.445  0.00  0.00    +0.500 C 
ATOM      2  N   LIG    1       -4.232   1.224   1.695  0.00  0.00    -0.730 N 
ATOM      3  H   LIG    1       -4.832   1.027   0.959  0.00  0.00    +0.410 HD
ATOM      4  O   LIG    1       -2.226   1.895   2.365  0.00  0.00    -0.500 OA
ENDROOT
BRANCH   1   5
ATOM      5  C   LIG    1       -2.507   1.816   0.023  0.00  0.00    +0.380 C 
BRANCH   5  12
ATOM      6  C   LIG    1        0.002  -0.004   0.002  0.00  0.00    +0.150 C 
ATOM      7  C   LIG    1       -0.018   1.503   0.010  0.00  0.00    +0.090 A 
ATOM      8  C   LIG    1        1.064   2.315   0.004  0.00  0.00    -0.110 A 
ATOM      9  C   LIG    1        0.609   3.638   0.015  0.00  0.00    +0.090 A 
ATOM     10  N   LIG    1       -0.700   3.620   0.027  0.00  0.00    -0.290 NA
ATOM     11  C   LIG    1        1.476   4.871   0.014  0.00  0.00    +0.150 C 
ATOM     12  N   LIG    1       -1.119   2.284   0.019  0.00  0.00    -0.370 N 
ENDBRANCH   5  12
ENDBRANCH   1   5
BRANCH   2  13
ATOM     13  C   LIG    1       -4.688   1.062   3.077  0.00  0.00    +0.280 C 
BRANCH  13  14
ATOM     14  C   LIG    1       -6.138   0.573   3.082  0.00  0.00    +0.260 C 
BRANCH  14  15
ATOM     15  N   LIG    1       -6.596   0.410   4.468  0.00  0.00    -0.380 N 
ATOM     16  C   LIG    1       -6.625   1.720   5.129  0.00  0.00    +0.250 C 
ATOM     17  C   LIG    1       -7.023   1.546   6.596  0.00  0.00    +0.050 C 
ATOM     18  C   LIG    1       -8.412   0.905   6.670  0.00  0.00    +0.040 C 
ATOM     19  C   LIG    1       -8.389  -0.426   5.913  0.00  0.00    -0.020 C 
ATOM     20  C   LIG    1       -9.791  -1.039   5.914  0.00  0.00    +0.070 C 
ATOM     21  C   LIG    1       -7.940  -0.179   4.471  0.00  0.00    +0.260 C 
ATOM     22  H   LIG    1       -5.962  -0.201   4.961  0.00  0.00    +0.430 HD
ENDBRANCH  14  15
ENDBRANCH  13  14
ENDBRANCH   2  13
TORSDOF 5
