REMARK  Name = ZINCpe000000YTQx.0
REMARK                            x       y       z     vdW  Elec       q    Type
REMARK                         _______ _______ _______ _____ _____    ______ ____
ROOT
ATOM      1  O   UNK A  0       -1.031   5.522   3.943  0.00  0.00    -0.530 OA
ATOM      2  C   UNK A  0       -1.411   4.923   4.928  0.00  0.00    +0.510 C 
ATOM      3  N   PHE A  1       -1.863   5.605   5.998  0.00  0.00    -0.690 N 
ATOM      4  H   PHE A  1       -2.167   5.126   6.785  0.00  0.00    +0.390 HD
ENDROOT
BRANCH   3   5
ATOM      5  CA  PHE A  1       -1.897   7.069   5.973  0.00  0.00    +0.170 C 
BRANCH   5   6
ATOM      6  C   PHE A  1       -3.175   7.531   5.320  0.00  0.00    +0.490 C 
ATOM      7  OXT PHE A  1       -3.200   8.586   4.709  0.00  0.00    -0.690 OA
ATOM      8  O   PHE A  1       -4.182   6.850   5.403  0.00  0.00    -0.690 OA
ENDBRANCH   5   6
BRANCH   5   9
ATOM      9  CB  PHE A  1       -1.834   7.606   7.405  0.00  0.00    +0.090 C 
BRANCH   9  10
ATOM     10  CG  PHE A  1       -0.504   7.248   8.017  0.00  0.00    -0.060 A 
ATOM     11  CD2 PHE A  1       -0.358   6.059   8.707  0.00  0.00    +0.000 A 
ATOM     12  CE2 PHE A  1        0.863   5.729   9.264  0.00  0.00    +0.000 A 
ATOM     13  CZ  PHE A  1        1.936   6.592   9.140  0.00  0.00    -0.010 A 
ATOM     14  CE1 PHE A  1        1.789   7.783   8.454  0.00  0.00    +0.000 A 
ATOM     15  CD1 PHE A  1        0.569   8.111   7.892  0.00  0.00    +0.000 A 
ENDBRANCH   9  10
ENDBRANCH   5   9
ENDBRANCH   3   5
BRANCH   2  16
ATOM     16  C   UNK A  0       -1.376   3.417   4.953  0.00  0.00    +0.230 C 
BRANCH  16  17
ATOM     17  N   UNK A  0       -0.708   2.922   3.742  0.00  0.00    -0.520 NA
ATOM     18  C   UNK A  0        0.713   3.298   3.732  0.00  0.00    +0.210 C 
ATOM     19  C   UNK A  0        1.356   2.816   2.430  0.00  0.00    +0.270 C 
ATOM     20  N   UNK A  0        1.217   1.358   2.325  0.00  0.00    -0.380 N 
ATOM     21  C   UNK A  0       -0.208   1.000   2.311  0.00  0.00    +0.270 C 
ATOM     22  H   UNK A  0        1.665   0.920   3.115  0.00  0.00    +0.420 HD
ATOM     23  C   UNK A  0       -0.864   1.466   3.612  0.00  0.00    +0.210 C 
BRANCH  20  24
ATOM     24  C   UNK A  0        1.850   0.894   1.083  0.00  0.00    +0.290 C 
BRANCH  24  25
ATOM     25  C   UNK A  0        1.817  -0.635   1.034  0.00  0.00    -0.080 C 
ATOM     26  C   UNK A  0        3.157  -1.372   1.042  0.00  0.00    +0.050 C 
ATOM     27  C   UNK A  0        2.325  -1.312  -0.240  0.00  0.00    +0.070 C 
ENDBRANCH  24  25
ENDBRANCH  20  24
ENDBRANCH  16  17
ENDBRANCH   2  16
TORSDOF 8
