REMARK  Name = ZINCkj00000GeNXS.0
REMARK                            x       y       z     vdW  Elec       q    Type
REMARK                         _______ _______ _______ _____ _____    ______ ____
ROOT
ATOM      1  O   LIG    1        1.650  -3.923  -2.350  0.00  0.00    -0.370 OA
ENDROOT
BRANCH   1   2
ATOM      2  C   LIG    1        1.533  -2.500  -2.407  0.00  0.00    +0.160 C 
BRANCH   2   3
ATOM      3  C   LIG    1        0.710  -2.008  -1.215  0.00  0.00    +0.220 C 
BRANCH   3   4
ATOM      4  O   LIG    1       -0.626  -2.502  -1.322  0.00  0.00    -0.540 OA
ATOM      5  H   LIG    1       -1.087  -2.218  -2.124  0.00  0.00    +0.390 HD
ENDBRANCH   3   4
BRANCH   3   6
ATOM      6  C   LIG    1        0.690  -0.478  -1.207  0.00  0.00    +0.240 C 
BRANCH   6   7
ATOM      7  N   LIG    1        0.002  -0.004   0.002  0.00  0.00    -0.500 N 
ATOM      8  H   LIG    1       -0.945  -0.353   0.009  0.00  0.00    +0.430 HD
ATOM      9  H   LIG    1        0.490  -0.338   0.820  0.00  0.00    +0.430 HD
BRANCH   7  10
ATOM     10  C   LIG    1       -0.018   1.465   0.010  0.00  0.00    +0.300 C 
BRANCH  10  12
ATOM     11  C   LIG    1       -0.122   2.786   2.060  0.00  0.00    +0.130 C 
ATOM     12  C   LIG    1       -0.723   1.951   1.250  0.00  0.00    -0.100 C 
ENDBRANCH  10  12
ENDBRANCH   7  10
ENDBRANCH   6   7
ENDBRANCH   3   6
ENDBRANCH   2   3
ENDBRANCH   1   2
BRANCH   1  13
ATOM     13  C   LIG    1        2.405  -4.488  -3.424  0.00  0.00    +0.230 C 
BRANCH  13  14
ATOM     14  C   LIG    1        2.464  -5.985  -3.264  0.00  0.00    -0.100 A 
ATOM     15  C   LIG    1        3.496  -6.562  -2.549  0.00  0.00    +0.040 A 
ATOM     16  C   LIG    1        3.551  -7.935  -2.395  0.00  0.00    -0.040 A 
ATOM     17  C   LIG    1        2.577  -8.736  -2.967  0.00  0.00    +0.120 A 
ATOM     18  C   LIG    1        1.540  -8.156  -3.692  0.00  0.00    +0.100 A 
ATOM     19  C   LIG    1        1.488  -6.779  -3.838  0.00  0.00    -0.010 A 
BRANCH  18  20
ATOM     20  O   LIG    1        0.581  -8.938  -4.256  0.00  0.00    -0.300 OA
ATOM     21  C   LIG    1       -0.452  -8.273  -4.985  0.00  0.00    +0.240 C 
ENDBRANCH  18  20
BRANCH  17  22
ATOM     22  O   LIG    1        2.633 -10.087  -2.821  0.00  0.00    -0.300 OA
ATOM     23  C   LIG    1        3.725 -10.613  -2.065  0.00  0.00    +0.250 C 
ENDBRANCH  17  22
ENDBRANCH  13  14
ENDBRANCH   1  13
TORSDOF 11
