REMARK  Name = ZINCrH000004ls6k.0
REMARK                            x       y       z     vdW  Elec       q    Type
REMARK                         _______ _______ _______ _____ _____    ______ ____
ROOT
ATOM      1  S   LIG    1       -1.478  -1.266   2.668  0.00  0.00    +0.030 S 
ENDROOT
BRANCH   1  10
ATOM      2  N   LIG    1       -0.020   1.094   2.454  0.00  0.00    -0.470 N 
ATOM      3  C   LIG    1        1.009   1.741   3.118  0.00  0.00    +0.060 A 
ATOM      4  C   LIG    1        1.669   2.945   2.927  0.00  0.00    +0.010 A 
ATOM      5  C   LIG    1        2.681   3.317   3.788  0.00  0.00    +0.030 A 
ATOM      6  C   LIG    1        3.042   2.495   4.845  0.00  0.00    +0.010 A 
ATOM      7  C   LIG    1        2.398   1.296   5.050  0.00  0.00    +0.070 A 
ATOM      8  C   LIG    1        1.371   0.904   4.187  0.00  0.00    +0.060 A 
ATOM      9  N   LIG    1        0.567  -0.190   4.129  0.00  0.00    -0.490 NA
ATOM     10  C   LIG    1       -0.255  -0.079   3.115  0.00  0.00    +0.260 A 
BRANCH   2  11
ATOM     11  C   LIG    1       -0.729   1.579   1.267  0.00  0.00    +0.330 C 
BRANCH  11  12
ATOM     12  C   LIG    1       -0.013   1.086   0.008  0.00  0.00    +0.170 C 
BRANCH  12  14
ATOM     13  C   LIG    1       -0.114   1.152  -2.386  0.00  0.00    +0.210 C 
ATOM     14  O   LIG    1       -0.704   1.559  -1.150  0.00  0.00    -0.390 OA
ENDBRANCH  12  14
ENDBRANCH  11  12
ENDBRANCH   2  11
ENDBRANCH   1  10
BRANCH   1  15
ATOM     15  C   LIG    1       -1.202  -2.503   3.960  0.00  0.00    +0.190 C 
BRANCH  15  16
ATOM     16  C   LIG    1       -2.165  -3.647   3.773  0.00  0.00    +0.220 A 
ATOM     17  C   LIG    1       -1.718  -4.849   3.259  0.00  0.00    -0.130 A 
ATOM     18  C   LIG    1       -2.631  -5.896   3.095  0.00  0.00    +0.510 A 
ATOM     19  N   LIG    1       -3.920  -5.701   3.445  0.00  0.00    -0.430 N 
ATOM     20  C   LIG    1       -4.821  -6.711   3.291  0.00  0.00    +0.330 A 
ATOM     21  C   LIG    1       -6.118  -6.539   3.634  0.00  0.00    -0.150 A 
ATOM     22  C   LIG    1       -6.551  -5.311   4.156  0.00  0.00    +0.150 A 
ATOM     23  C   LIG    1       -5.657  -4.295   4.314  0.00  0.00    +0.060 A 
ATOM     24 BR   LIG    1       -7.349  -7.956   3.410  0.00  0.00    +0.010 Br
ATOM     25  C   LIG    1       -4.313  -4.493   3.950  0.00  0.00    +0.400 A 
ATOM     26  O   LIG    1       -2.267  -6.971   2.643  0.00  0.00    -0.520 OA
ATOM     27  N   LIG    1       -3.437  -3.502   4.108  0.00  0.00    -0.530 NA
ENDBRANCH  15  16
ENDBRANCH   1  15
TORSDOF 6
