REMARK  Name = ZINCrD000000AEs3.0
REMARK                            x       y       z     vdW  Elec       q    Type
REMARK                         _______ _______ _______ _____ _____    ______ ____
ROOT
ATOM      1  O   LIG    1       -4.789   1.875   2.048  0.00  0.00    -0.500 OA
ATOM      2  C   LIG    1       -5.655   1.623   1.237  0.00  0.00    +0.500 C 
ATOM      3  N   LIG    1       -6.888   1.272   1.655  0.00  0.00    -0.510 N 
ATOM      4  H   LIG    1       -7.580   1.070   1.006  0.00  0.00    +0.420 HD
ENDROOT
BRANCH   3   5
ATOM      5  N   LIG    1       -7.169   1.199   3.025  0.00  0.00    -0.370 N 
BRANCH   5   6
ATOM      6  C   LIG    1       -7.281  -0.046   3.650  0.00  0.00    +0.200 A 
ATOM      7  C   LIG    1       -7.726  -0.128   4.963  0.00  0.00    -0.040 A 
ATOM      8  C   LIG    1       -7.841  -1.360   5.576  0.00  0.00    +0.050 A 
ATOM      9  C   LIG    1       -7.504  -2.511   4.887  0.00  0.00    -0.040 A 
ATOM     10  C   LIG    1       -7.056  -2.433   3.581  0.00  0.00    +0.050 A 
ATOM     11  C   LIG    1       -6.943  -1.204   2.961  0.00  0.00    -0.050 A 
ENDBRANCH   5   6
BRANCH   5  12
ATOM     12  C   LIG    1       -7.336   2.370   3.768  0.00  0.00    +0.170 A 
ATOM     13  C   LIG    1       -8.199   3.362   3.318  0.00  0.00    -0.010 A 
ATOM     14  C   LIG    1       -8.366   4.517   4.057  0.00  0.00    +0.030 A 
ATOM     15  C   LIG    1       -7.667   4.691   5.237  0.00  0.00    +0.000 A 
ATOM     16  C   LIG    1       -6.803   3.709   5.685  0.00  0.00    +0.030 A 
ATOM     17  C   LIG    1       -6.636   2.549   4.954  0.00  0.00    +0.010 A 
ENDBRANCH   5  12
ENDBRANCH   3   5
BRANCH   2  18
ATOM     18  C   LIG    1       -5.353   1.701  -0.237  0.00  0.00    +0.360 C 
BRANCH  18  19
ATOM     19  N   LIG    1       -3.956   2.100  -0.428  0.00  0.00    -0.520 N 
ATOM     20  C   LIG    1       -3.637   3.417  -0.523  0.00  0.00    +0.600 A 
ATOM     21  N   LIG    1       -2.410   3.815  -0.683  0.00  0.00    -0.500 NA
ATOM     22  C   LIG    1       -1.387   2.940  -0.781  0.00  0.00    +0.070 A 
ATOM     23  C   LIG    1       -1.641   1.574  -0.697  0.00  0.00    -0.230 A 
ATOM     24  C   LIG    1       -0.431   0.785  -0.817  0.00  0.00    +0.080 A 
ATOM     25  C   LIG    1        0.673   1.487  -0.991  0.00  0.00    -0.050 A 
ATOM     26  S   LIG    1        0.336   3.207  -1.018  0.00  0.00    +0.210 S 
ATOM     27  C   LIG    1       -2.996   1.159  -0.510  0.00  0.00    +0.570 A 
ATOM     28  O   LIG    1       -3.276  -0.025  -0.426  0.00  0.00    -0.520 OA
ENDBRANCH  18  19
ENDBRANCH   2  18
TORSDOF 5
