REMARK  Name = ZINCvU0000000Gh9.0
REMARK                            x       y       z     vdW  Elec       q    Type
REMARK                         _______ _______ _______ _____ _____    ______ ____
ROOT
ATOM      1  C   LIG    1       -7.260   3.999   1.104  0.00  0.00    +0.070 C 
ATOM      2  C   LIG    1       -6.011   3.201   0.833  0.00  0.00    -0.130 C 
ATOM      3  C   LIG    1       -4.926   3.541   1.454  0.00  0.00    -0.040 C 
ATOM      4  C   LIG    1       -3.611   2.836   1.296  0.00  0.00    +0.040 C 
ATOM      5  C   LIG    1       -3.622   1.976   0.030  0.00  0.00    -0.040 C 
ATOM      6  C   LIG    1       -4.900   1.127   0.031  0.00  0.00    +0.010 C 
ATOM      7  C   LIG    1       -4.856   0.130  -1.128  0.00  0.00    +0.030 C 
ATOM      8  C   LIG    1       -3.365   1.943   2.513  0.00  0.00    +0.030 C 
ATOM      9  C   LIG    1       -6.101   2.060  -0.138  0.00  0.00    +0.080 C 
ENDROOT
BRANCH   5  10
ATOM     10  C   LIG    1       -3.603   2.875  -1.208  0.00  0.00    +0.250 C 
BRANCH  10  11
ATOM     11  O   LIG    1       -2.398   3.684  -1.200  0.00  0.00    -0.350 OA
BRANCH  11  12
ATOM     12  C   LIG    1       -2.227   4.536  -2.229  0.00  0.00    +0.650 C 
ATOM     13  N   LIG    1       -1.129   5.316  -2.283  0.00  0.00    -0.710 N 
ATOM     14  H   LIG    1       -0.462   5.264  -1.580  0.00  0.00    +0.400 HD
ATOM     15  O   LIG    1       -3.062   4.602  -3.109  0.00  0.00    -0.580 OA
BRANCH  13  16
ATOM     16  C   LIG    1       -0.943   6.243  -3.402  0.00  0.00    +0.250 C 
ATOM     17  C   LIG    1       -0.296   5.504  -4.574  0.00  0.00    +0.000 C 
ATOM     18  C   LIG    1       -0.102   6.472  -5.743  0.00  0.00    +0.020 C 
ATOM     19  C   LIG    1        0.803   7.625  -5.305  0.00  0.00    +0.010 C 
ATOM     20  C   LIG    1        0.156   8.364  -4.132  0.00  0.00    +0.020 C 
ATOM     21  C   LIG    1       -0.038   7.396  -2.964  0.00  0.00    +0.010 C 
ENDBRANCH  13  16
ENDBRANCH  11  12
ENDBRANCH  10  11
ENDBRANCH   5  10
BRANCH   5  22
ATOM     22  C   LIG    1       -2.396   1.061   0.019  0.00  0.00    +0.240 C 
BRANCH  22  23
ATOM     23  O   LIG    1       -1.189   1.868   0.018  0.00  0.00    -0.350 OA
BRANCH  23  24
ATOM     24  C   LIG    1       -0.014   1.211   0.009  0.00  0.00    +0.640 C 
ATOM     25  N   LIG    1        1.143   1.901   0.001  0.00  0.00    -0.710 N 
ATOM     26  H   LIG    1        1.130   2.870   0.007  0.00  0.00    +0.400 HD
ATOM     27  O   LIG    1        0.002  -0.004   0.002  0.00  0.00    -0.580 OA
BRANCH  25  28
ATOM     28  C   LIG    1        2.422   1.185  -0.015  0.00  0.00    +0.250 C 
ATOM     29  C   LIG    1        2.819   0.819   1.417  0.00  0.00    +0.010 C 
ATOM     30  C   LIG    1        4.155   0.072   1.400  0.00  0.00    +0.020 C 
ATOM     31  C   LIG    1        5.232   0.968   0.785  0.00  0.00    +0.010 C 
ATOM     32  C   LIG    1        4.835   1.334  -0.647  0.00  0.00    +0.020 C 
ATOM     33  C   LIG    1        3.499   2.081  -0.630  0.00  0.00    +0.010 C 
ENDBRANCH  25  28
ENDBRANCH  23  24
ENDBRANCH  22  23
ENDBRANCH   5  22
TORSDOF 8
