REMARK  Name = ZINCrH000004o39y.0
REMARK                            x       y       z     vdW  Elec       q    Type
REMARK                         _______ _______ _______ _____ _____    ______ ____
ROOT
ATOM      1  C   LIG    1       -1.854   1.696   2.318  0.00  0.00    +0.520 C 
ATOM      2  N   LIG    1       -1.753   1.857   0.984  0.00  0.00    -0.730 N 
ATOM      3  H   LIG    1       -2.425   2.368   0.505  0.00  0.00    +0.400 HD
ATOM      4  O   LIG    1       -1.015   1.057   2.917  0.00  0.00    -0.540 OA
ENDROOT
BRANCH   1   5
ATOM      5  C   LIG    1       -3.010   2.308   3.067  0.00  0.00    +0.060 C 
BRANCH   5   7
ATOM      6  C   LIG    1       -4.123   2.492   5.296  0.00  0.00    +0.040 C 
ATOM      7  C   LIG    1       -2.887   1.977   4.555  0.00  0.00    +0.250 C 
BRANCH   7   8
ATOM      8  N   LIG    1       -1.689   2.619   5.101  0.00  0.00    -0.580 N 
ATOM      9  C   LIG    1       -0.664   1.765   5.689  0.00  0.00    +0.260 C 
ATOM     10  C   LIG    1        0.672   2.509   5.764  0.00  0.00    +0.020 C 
ATOM     11  C   LIG    1        0.437   3.865   6.441  0.00  0.00    +0.020 C 
ATOM     12  C   LIG    1       -0.415   4.730   5.509  0.00  0.00    +0.060 C 
ATOM     13  C   LIG    1       -1.606   3.948   5.033  0.00  0.00    +0.520 C 
ATOM     14  O   LIG    1       -2.542   4.559   4.562  0.00  0.00    -0.560 OA
ENDBRANCH   7   8
ENDBRANCH   5   7
ENDBRANCH   1   5
BRANCH   2  15
ATOM     15  C   LIG    1       -0.630   1.262   0.257  0.00  0.00    +0.270 C 
BRANCH  15  16
ATOM     16  C   LIG    1       -0.753   1.593  -1.232  0.00  0.00    +0.070 C 
BRANCH  16  17
ATOM     17  C   LIG    1        0.333   0.879  -1.996  0.00  0.00    -0.070 A 
ATOM     18  C   LIG    1        1.652   1.005  -1.603  0.00  0.00    +0.010 A 
ATOM     19  C   LIG    1        2.647   0.347  -2.301  0.00  0.00    +0.000 A 
ATOM     20  C   LIG    1        2.324  -0.428  -3.399  0.00  0.00    +0.000 A 
ATOM     21  C   LIG    1        1.005  -0.550  -3.796  0.00  0.00    +0.000 A 
ATOM     22  C   LIG    1        0.009   0.104  -3.094  0.00  0.00    +0.010 A 
ENDBRANCH  16  17
BRANCH  16  23
ATOM     23  C   LIG    1       -0.612   3.080  -1.429  0.00  0.00    -0.080 A 
ATOM     24  C   LIG    1       -1.566   3.776  -2.148  0.00  0.00    +0.000 A 
ATOM     25  C   LIG    1       -1.439   5.141  -2.324  0.00  0.00    +0.000 A 
ATOM     26  C   LIG    1       -0.352   5.809  -1.791  0.00  0.00    +0.000 A 
ATOM     27  C   LIG    1        0.605   5.112  -1.077  0.00  0.00    +0.000 A 
ATOM     28  C   LIG    1        0.475   3.748  -0.896  0.00  0.00    +0.010 A 
ENDBRANCH  16  23
ENDBRANCH  15  16
ENDBRANCH   2  15
TORSDOF 7
