REMARK  Name = ZINCrH000004q5p3.0
REMARK                            x       y       z     vdW  Elec       q    Type
REMARK                         _______ _______ _______ _____ _____    ______ ____
ROOT
ATOM      1  C   LIG    1        4.462   2.429  -2.252  0.00  0.00    +0.130 C 
ATOM      2  C   LIG    1        3.236   2.703  -1.419  0.00  0.00    -0.270 A 
ATOM      3  C   LIG    1        2.916   3.978  -1.069  0.00  0.00    +0.200 A 
ATOM      4  O   LIG    1        1.836   4.273  -0.330  0.00  0.00    -0.200 OA
ATOM      5  C   LIG    1        0.991   3.327   0.121  0.00  0.00    +0.190 A 
ATOM      6  C   LIG    1       -0.129   3.671   0.893  0.00  0.00    -0.150 A 
ATOM      7  C   LIG    1       -0.988   2.669   1.345  0.00  0.00    +0.120 A 
ATOM      8  C   LIG    1       -0.747   1.344   1.033  0.00  0.00    +0.000 A 
ATOM      9  C   LIG    1        0.355   0.992   0.279  0.00  0.00    +0.140 A 
ATOM     10  C   LIG    1        1.226   1.977  -0.182  0.00  0.00    -0.230 A 
ATOM     11  C   LIG    1        2.410   1.636  -0.995  0.00  0.00    +0.430 A 
ATOM     12  O   LIG    1        2.665   0.480  -1.290  0.00  0.00    -0.460 OA
ENDROOT
BRANCH   6  13
ATOM     13  C   LIG    1       -0.397   5.083   1.224  0.00  0.00    +0.590 C 
ATOM     14  N   LIG    1       -0.679   5.436   2.494  0.00  0.00    -0.620 N 
ATOM     15  C   LIG    1       -0.859   4.508   3.621  0.00  0.00    +0.250 C 
ATOM     16  C   LIG    1       -1.137   5.362   4.876  0.00  0.00    +0.070 C 
ATOM     17  C   LIG    1       -0.548   6.746   4.496  0.00  0.00    +0.120 C 
ATOM     18  C   LIG    1       -0.866   6.814   2.982  0.00  0.00    +0.300 C 
ATOM     19  O   LIG    1       -0.362   5.930   0.352  0.00  0.00    -0.510 OA
BRANCH  17  20
ATOM     20  C   LIG    1       -1.227   7.827   5.228  0.00  0.00    +0.210 C 
ATOM     21  N   LIG    1       -1.750   8.662   5.793  0.00  0.00    -0.410 NA
ENDBRANCH  17  20
ENDBRANCH   6  13
BRANCH   3  22
ATOM     22  C   LIG    1        3.791   5.079  -1.521  0.00  0.00    -0.070 A 
ATOM     23  C   LIG    1        5.162   5.038  -1.259  0.00  0.00    +0.050 A 
ATOM     24  C   LIG    1        5.974   6.067  -1.688  0.00  0.00    +0.010 A 
ATOM     25  C   LIG    1        5.430   7.144  -2.367  0.00  0.00    +0.040 A 
ATOM     26  C   LIG    1        4.072   7.193  -2.625  0.00  0.00    +0.010 A 
ATOM     27  C   LIG    1        3.249   6.168  -2.207  0.00  0.00    +0.060 A 
ENDBRANCH   3  22
TORSDOF 3
