REMARK  Name = ZINCrg00000fRebX.0
REMARK                            x       y       z     vdW  Elec       q    Type
REMARK                         _______ _______ _______ _____ _____    ______ ____
ROOT
ATOM      1  C   LIG    1       -5.137   3.754   0.757  0.00  0.00    +0.570 C 
ATOM      2  N   LIG    1       -4.333   3.313  -0.231  0.00  0.00    -0.710 N 
ATOM      3  H   LIG    1       -4.314   2.370  -0.456  0.00  0.00    +0.410 HD
ATOM      4  O   LIG    1       -5.162   4.936   1.040  0.00  0.00    -0.530 OA
ENDROOT
BRANCH   1  10
ATOM      5  N   LIG    1       -8.393   0.263   3.615  0.00  0.00    -0.380 N 
ATOM      6  N   LIG    1       -9.009   1.160   4.492  0.00  0.00    -0.230 NA
ATOM      7  C   LIG    1       -8.577   2.369   4.274  0.00  0.00    +0.300 A 
ATOM      8  C   LIG    1       -7.608   2.301   3.185  0.00  0.00    -0.240 A 
ATOM      9  C   LIG    1       -6.821   3.246   2.524  0.00  0.00    +0.230 A 
ATOM     10  C   LIG    1       -5.989   2.800   1.496  0.00  0.00    -0.240 A 
ATOM     11  C   LIG    1       -5.968   1.435   1.177  0.00  0.00    +0.380 A 
ATOM     12  N   LIG    1       -6.716   0.572   1.822  0.00  0.00    -0.500 NA
ATOM     13  C   LIG    1       -7.529   0.944   2.805  0.00  0.00    +0.330 A 
BRANCH   5  15
ATOM     14  C   LIG    1       -8.275  -1.799   4.925  0.00  0.00    +0.050 C 
ATOM     15  C   LIG    1       -8.634  -1.181   3.572  0.00  0.00    +0.270 C 
ATOM     16  C   LIG    1      -10.111  -1.443   3.268  0.00  0.00    +0.050 C 
ENDBRANCH   5  15
ENDBRANCH   1  10
BRANCH   2  17
ATOM     17  C   LIG    1       -3.488   4.260  -0.964  0.00  0.00    +0.270 C 
ATOM     18  C   LIG    1       -4.331   4.932  -2.058  0.00  0.00    -0.300 C 
ATOM     19  S   LIG    1       -3.534   4.464  -3.640  0.00  0.00    +2.390 S 
ATOM     20  C   LIG    1       -2.647   3.005  -2.960  0.00  0.00    -0.290 C 
ATOM     21  O   LIG    1       -2.597   5.464  -4.017  0.00  0.00    -0.930 OA
ATOM     22  O   LIG    1       -4.524   4.033  -4.564  0.00  0.00    -0.930 OA
ATOM     23  C   LIG    1       -2.285   3.509  -1.538  0.00  0.00    +0.150 C 
BRANCH  23  24
ATOM     24  N   LIG    1       -1.960   2.365  -0.676  0.00  0.00    -0.500 NA
ATOM     25  C   LIG    1       -0.799   1.616  -1.205  0.00  0.00    +0.180 C 
ATOM     26  C   LIG    1       -0.013   1.086   0.008  0.00  0.00    +0.010 C 
ATOM     27  C   LIG    1       -0.778   1.605   1.246  0.00  0.00    +0.030 C 
ATOM     28  C   LIG    1       -1.565   2.817   0.682  0.00  0.00    +0.170 C 
ENDBRANCH  23  24
ENDBRANCH   2  17
TORSDOF 4
