REMARK  Name = ZINCkj000005lqxw.0
REMARK                            x       y       z     vdW  Elec       q    Type
REMARK                         _______ _______ _______ _____ _____    ______ ____
ROOT
ATOM      1  C   LIG    1       -0.699   1.479   1.216  0.00  0.00    +0.190 C 
ATOM      2  C   LIG    1       -0.014   0.918   2.478  0.00  0.00    +0.050 C 
ATOM      3  C   LIG    1       -1.135   0.612   3.485  0.00  0.00    +0.050 C 
ATOM      4  C   LIG    1       -2.472   0.953   2.796  0.00  0.00    +0.030 C 
ATOM      5  C   LIG    1       -3.426  -0.246   2.979  0.00  0.00    +0.290 C 
ATOM      6  N   LIG    1       -3.197  -1.170   1.859  0.00  0.00    -1.010 NA
ATOM      7  C   LIG    1       -2.129  -0.621   1.003  0.00  0.00    +0.280 C 
ATOM      8  C   LIG    1       -2.138   0.924   1.269  0.00  0.00    +0.000 C 
ENDROOT
BRANCH   1   9
ATOM      9  N   LIG    1       -0.012   1.005   0.008  0.00  0.00    -0.640 N 
ATOM     10  H   LIG    1       -0.500   1.339  -0.810  0.00  0.00    +0.440 HD
ATOM     11  H   LIG    1        0.935   1.354   0.000  0.00  0.00    +0.440 HD
ATOM     12  H   LIG    1        0.002  -0.004   0.002  0.00  0.00    +0.430 HD
ENDBRANCH   1   9
BRANCH   6  13
ATOM     13  S   LIG    1       -4.005  -2.592   1.600  0.00  0.00    +2.610 S 
ATOM     14  O   LIG    1       -4.431  -2.993   2.895  0.00  0.00    -0.920 OA
ATOM     15  O   LIG    1       -3.092  -3.383   0.852  0.00  0.00    -0.940 OA
BRANCH  13  16
ATOM     16  C   LIG    1       -5.429  -2.124   0.578  0.00  0.00    -0.290 C 
BRANCH  16  17
ATOM     17  C   LIG    1       -6.252  -3.349   0.273  0.00  0.00    -0.140 A 
ATOM     18  C   LIG    1       -5.986  -4.096  -0.859  0.00  0.00    +0.060 A 
ATOM     19  C   LIG    1       -6.737  -5.223  -1.137  0.00  0.00    +0.010 A 
ATOM     20  C   LIG    1       -7.763  -5.597  -0.289  0.00  0.00    +0.070 A 
ATOM     21  C   LIG    1       -8.035  -4.848   0.840  0.00  0.00    +0.000 A 
ATOM     22  C   LIG    1       -7.279  -3.723   1.122  0.00  0.00    +0.120 A 
ATOM     23  F   LIG    1       -7.545  -2.990   2.226  0.00  0.00    -0.130 F 
ENDBRANCH  16  17
ENDBRANCH  13  16
ENDBRANCH   6  13
TORSDOF 4
