REMARK  Name = ZINCpk000000otuN.0
REMARK                            x       y       z     vdW  Elec       q    Type
REMARK                         _______ _______ _______ _____ _____    ______ ____
ROOT
ATOM      1  C   LIG    1        0.442  -6.434  -0.537  0.00  0.00    +0.010 C 
ATOM      2  C   LIG    1        1.944  -6.105  -0.709  0.00  0.00    +0.100 C 
ATOM      3  C   LIG    1        1.990  -4.593  -0.745  0.00  0.00    +0.520 C 
ATOM      4  N   LIG    1        0.839  -4.084  -0.273  0.00  0.00    -0.550 N 
ATOM      5  O   LIG    1        2.930  -3.937  -1.141  0.00  0.00    -0.500 OA
ATOM      6  C   LIG    1       -0.085  -5.146   0.139  0.00  0.00    +0.320 C 
ENDROOT
BRANCH   4   7
ATOM      7  C   LIG    1        0.560  -2.714  -0.182  0.00  0.00    +0.180 A 
ATOM      8  C   LIG    1        1.546  -1.783  -0.481  0.00  0.00    +0.020 A 
ATOM      9  C   LIG    1        1.271  -0.431  -0.393  0.00  0.00    +0.070 A 
ATOM     10  C   LIG    1        0.013  -0.001  -0.004  0.00  0.00    +0.010 A 
ATOM     11  O   LIG    1       -0.503   1.252   0.161  0.00  0.00    -0.310 OA
ATOM     12  C   LIG    1       -1.933   1.081   0.169  0.00  0.00    +0.430 C 
ATOM     13  O   LIG    1       -2.114  -0.263   0.650  0.00  0.00    -0.310 OA
ATOM     14  C   LIG    1       -0.978  -0.933   0.298  0.00  0.00    +0.060 A 
ATOM     15  C   LIG    1       -0.702  -2.287   0.208  0.00  0.00    +0.000 A 
ENDBRANCH   4   7
BRANCH   1  18
ATOM     16  N   LIG    1        0.200  -7.661  -2.670  0.00  0.00    -0.720 N 
ATOM     17  H   LIG    1        0.924  -8.239  -2.384  0.00  0.00    +0.410 HD
ATOM     18  C   LIG    1       -0.217  -6.658  -1.873  0.00  0.00    +0.520 C 
ATOM     19  O   LIG    1       -1.123  -5.935  -2.231  0.00  0.00    -0.530 OA
BRANCH  16  20
ATOM     20  C   LIG    1       -0.442  -7.879  -3.969  0.00  0.00    +0.240 C 
BRANCH  20  21
ATOM     21  C   LIG    1        0.215  -9.072  -4.668  0.00  0.00    +0.120 C 
ATOM     22  C   LIG    1        1.724  -8.839  -4.764  0.00  0.00    +0.060 C 
BRANCH  21  23
ATOM     23  O   LIG    1       -0.037 -10.261  -3.918  0.00  0.00    -0.550 OA
ATOM     24  H   LIG    1       -0.976 -10.471  -3.817  0.00  0.00    +0.380 HD
ENDBRANCH  21  23
BRANCH  21  25
ATOM     25  C   LIG    1       -0.368  -9.222  -6.075  0.00  0.00    +0.010 C 
BRANCH  25  27
ATOM     26  C   LIG    1       -0.295 -10.565  -8.180  0.00  0.00    +0.000 C 
ATOM     27  C   LIG    1        0.288 -10.415  -6.774  0.00  0.00    +0.020 C 
ENDBRANCH  25  27
ENDBRANCH  21  25
ENDBRANCH  20  21
ENDBRANCH  16  20
ENDBRANCH   1  18
TORSDOF 7
