REMARK  Name = ZINCpe000000YhSZ.0
REMARK                            x       y       z     vdW  Elec       q    Type
REMARK                         _______ _______ _______ _____ _____    ______ ____
ROOT
ATOM      1  N   LIG    1       -1.497   4.513  -0.266  0.00  0.00    -0.720 N 
ATOM      2  H   LIG    1       -1.186   4.816  -1.134  0.00  0.00    +0.410 HD
ATOM      3  C   LIG    1       -2.599   5.060   0.284  0.00  0.00    +0.490 C 
ATOM      4  O   LIG    1       -2.987   4.681   1.369  0.00  0.00    -0.520 OA
ENDROOT
BRANCH   1   7
ATOM      5  N   LIG    1        1.077   1.994   0.003  0.00  0.00    -0.530 N 
ATOM      6  C   LIG    1        0.711   3.415   0.003  0.00  0.00    +0.290 C 
ATOM      7  C   LIG    1       -0.768   3.460   0.446  0.00  0.00    +0.260 C 
ATOM      8  C   LIG    1       -1.266   2.058   0.019  0.00  0.00    +0.060 C 
ATOM      9  C   LIG    1       -0.014   1.209   0.009  0.00  0.00    +0.520 C 
ATOM     10  O   LIG    1        0.002  -0.004   0.002  0.00  0.00    -0.520 OA
BRANCH   5  14
ATOM     11  C   LIG    1        4.968  -1.029  -0.013  0.00  0.00    +0.360 C 
ATOM     12  N   LIG    1        4.136   0.176  -0.011  0.00  0.00    -0.370 N 
ATOM     13  C   LIG    1        2.778   0.210   0.001  0.00  0.00    +0.230 A 
ATOM     14  C   LIG    1        2.400   1.514  -0.004  0.00  0.00    -0.000 A 
ATOM     15  C   LIG    1        3.563   2.298  -0.011  0.00  0.00    +0.230 A 
ATOM     16  N   LIG    1        4.599   1.498  -0.015  0.00  0.00    -0.280 NA
ENDBRANCH   5  14
ENDBRANCH   1   7
BRANCH   3  17
ATOM     17  C   LIG    1       -3.348   6.143  -0.449  0.00  0.00    +0.230 C 
BRANCH  17  18
ATOM     18  O   LIG    1       -4.400   6.639   0.382  0.00  0.00    -0.530 OA
ATOM     19  H   LIG    1       -5.048   5.968   0.639  0.00  0.00    +0.380 HD
ENDBRANCH  17  18
BRANCH  17  20
ATOM     20  C   LIG    1       -3.942   5.569  -1.737  0.00  0.00    +0.070 C 
BRANCH  20  21
ATOM     21  C   LIG    1       -4.587   6.678  -2.529  0.00  0.00    -0.070 A 
ATOM     22  C   LIG    1       -3.846   7.383  -3.458  0.00  0.00    +0.020 A 
ATOM     23  C   LIG    1       -4.436   8.400  -4.186  0.00  0.00    +0.030 A 
ATOM     24  C   LIG    1       -5.767   8.711  -3.984  0.00  0.00    +0.020 A 
ATOM     25  C   LIG    1       -6.510   8.005  -3.055  0.00  0.00    -0.030 A 
ATOM     26 CL   LIG    1       -8.182   8.395  -2.801  0.00  0.00    -0.070 Cl
ATOM     27  C   LIG    1       -5.920   6.984  -2.331  0.00  0.00    +0.040 A 
ENDBRANCH  20  21
ENDBRANCH  17  20
ENDBRANCH   3  17
TORSDOF 6
