REMARK  Name = ZINCqH0000032cGw.0
REMARK                            x       y       z     vdW  Elec       q    Type
REMARK                         _______ _______ _______ _____ _____    ______ ____
ROOT
ATOM      1  N   LIG    1        2.065  -2.236  -1.027  0.00  0.00    -0.740 N 
ATOM      2  H   LIG    1        1.110  -2.216  -1.193  0.00  0.00    +0.390 HD
ATOM      3  C   LIG    1        2.829  -3.187  -1.599  0.00  0.00    +0.710 C 
ATOM      4  N   LIG    1        2.254  -4.177  -2.309  0.00  0.00    -0.630 N 
ATOM      5  C   LIG    1        3.049  -5.286  -2.862  0.00  0.00    +0.300 C 
ATOM      6  C   LIG    1        2.585  -6.576  -2.175  0.00  0.00    +0.110 C 
ATOM      7  C   LIG    1        1.083  -6.669  -2.171  0.00  0.00    -0.000 A 
ATOM      8  C   LIG    1        0.265  -5.578  -2.342  0.00  0.00    -0.110 A 
ATOM      9  C   LIG    1       -1.115  -5.734  -2.311  0.00  0.00    +0.050 A 
ATOM     10  C   LIG    1       -1.683  -6.978  -2.117  0.00  0.00    +0.000 A 
ATOM     11  C   LIG    1       -0.874  -8.084  -1.951  0.00  0.00    +0.050 A 
ATOM     12  C   LIG    1        0.510  -7.936  -1.978  0.00  0.00    -0.150 A 
ATOM     13  C   LIG    1        0.810  -4.190  -2.568  0.00  0.00    +0.330 C 
ATOM     14  O   LIG    1        4.038  -3.152  -1.474  0.00  0.00    -0.570 OA
ENDROOT
BRANCH  12  15
ATOM     15  C   LIG    1        1.381  -9.117  -1.800  0.00  0.00    +0.560 C 
ATOM     16  O   LIG    1        2.585  -8.977  -1.707  0.00  0.00    -0.530 OA
ATOM     17  N   LIG    1        0.840 -10.350  -1.742  0.00  0.00    -0.850 N 
ATOM     18  H   LIG    1        1.411 -11.126  -1.625  0.00  0.00    +0.410 HD
ATOM     19  H   LIG    1       -0.121 -10.462  -1.816  0.00  0.00    +0.400 HD
ENDBRANCH  12  15
BRANCH   1  20
ATOM     20  C   LIG    1        2.678  -1.231  -0.154  0.00  0.00    +0.340 C 
BRANCH  20  21
ATOM     21  C   LIG    1        1.823   0.011  -0.141  0.00  0.00    -0.190 A 
ATOM     22  C   LIG    1        2.285   1.262  -0.153  0.00  0.00    +0.020 A 
ATOM     23  C   LIG    1        1.310   2.244  -0.137  0.00  0.00    +0.010 A 
ATOM     24  C   LIG    1        0.056   1.790  -0.112  0.00  0.00    -0.040 A 
ATOM     25  S   LIG    1        0.065   0.031  -0.106  0.00  0.00    +0.090 S 
ENDBRANCH  20  21
BRANCH  20  26
ATOM     26  C   LIG    1        2.788  -1.789   1.266  0.00  0.00    +0.020 C 
BRANCH  26  28
ATOM     27  C   LIG    1        5.162  -2.489   0.919  0.00  0.00    +0.020 C 
ATOM     28  C   LIG    1        3.755  -2.975   1.274  0.00  0.00    -0.020 C 
ATOM     29  C   LIG    1        3.771  -3.611   2.666  0.00  0.00    +0.000 C 
ENDBRANCH  26  28
ENDBRANCH  20  26
ENDBRANCH   1  20
TORSDOF 5
