REMARK  Name = ZINCvU00000005wk.0
REMARK                            x       y       z     vdW  Elec       q    Type
REMARK                         _______ _______ _______ _____ _____    ______ ____
ROOT
ATOM      1  N   LIG    1       -1.456   1.383   0.865  0.00  0.00    -0.610 N 
ATOM      2  C   LIG    1       -1.261   2.365   1.767  0.00  0.00    +0.570 C 
ATOM      3  O   LIG    1       -0.389   3.192   1.587  0.00  0.00    -0.530 OA
ATOM      4  C   LIG    1       -2.592   0.470   1.010  0.00  0.00    +0.270 C 
ENDROOT
BRANCH   2   5
ATOM      5  C   LIG    1       -2.107   2.436   2.975  0.00  0.00    -0.170 A 
ATOM      6  C   LIG    1       -2.673   1.273   3.504  0.00  0.00    +0.090 A 
ATOM      7  C   LIG    1       -3.457   1.343   4.633  0.00  0.00    -0.090 A 
ATOM      8  C   LIG    1       -3.696   2.570   5.241  0.00  0.00    +0.160 A 
ATOM      9  C   LIG    1       -3.140   3.731   4.715  0.00  0.00    -0.020 A 
ATOM     10  C   LIG    1       -2.350   3.668   3.588  0.00  0.00    +0.120 A 
BRANCH   8  11
ATOM     11  O   LIG    1       -4.474   2.636   6.351  0.00  0.00    -0.300 OA
BRANCH  11  12
ATOM     12  C   LIG    1       -5.013   1.406   6.839  0.00  0.00    +0.300 C 
BRANCH  12  13
ATOM     13  C   LIG    1       -5.844   1.674   8.067  0.00  0.00    -0.220 A 
ATOM     14  C   LIG    1       -7.166   1.957   8.134  0.00  0.00    +0.010 A 
ATOM     15  O   LIG    1       -7.455   2.116   9.434  0.00  0.00    +0.100 OA
ATOM     16  N   LIG    1       -6.477   1.962  10.129  0.00  0.00    -0.360 NA
ATOM     17  C   LIG    1       -8.124   2.072   6.977  0.00  0.00    +0.190 C 
ATOM     18  C   LIG    1       -5.424   1.681   9.417  0.00  0.00    +0.040 A 
ATOM     19  C   LIG    1       -4.031   1.419   9.931  0.00  0.00    +0.160 C 
ENDBRANCH  12  13
ENDBRANCH  11  12
ENDBRANCH   8  11
ENDBRANCH   2   5
BRANCH   1  20
ATOM     20  C   LIG    1       -0.531   1.228  -0.260  0.00  0.00    +0.380 C 
BRANCH  20  22
ATOM     21  C   LIG    1       -0.721   3.123  -1.954  0.00  0.00    +0.080 A 
ATOM     22  C   LIG    1       -1.091   1.929  -1.471  0.00  0.00    -0.210 A 
ATOM     23  C   LIG    1       -2.149   1.438  -2.363  0.00  0.00    -0.110 A 
ATOM     24  C   LIG    1       -2.937   0.289  -2.399  0.00  0.00    +0.050 A 
ATOM     25  C   LIG    1       -3.873   0.137  -3.398  0.00  0.00    +0.000 A 
ATOM     26  C   LIG    1       -4.037   1.124  -4.359  0.00  0.00    +0.040 A 
ATOM     27  C   LIG    1       -3.269   2.268  -4.330  0.00  0.00    +0.030 A 
ATOM     28  C   LIG    1       -2.319   2.441  -3.332  0.00  0.00    +0.050 A 
ATOM     29  O   LIG    1       -1.442   3.425  -3.047  0.00  0.00    -0.190 OA
BRANCH  21  31
ATOM     30  C   LIG    1        1.671   3.764  -2.091  0.00  0.00    +0.040 C 
ATOM     31  C   LIG    1        0.349   4.000  -1.357  0.00  0.00    +0.130 C 
ENDBRANCH  21  31
ENDBRANCH  20  22
ENDBRANCH   1  20
TORSDOF 7
