REMARK  Name = ZINCvU00000006dJ.0
REMARK                            x       y       z     vdW  Elec       q    Type
REMARK                         _______ _______ _______ _____ _____    ______ ____
ROOT
ATOM      1  C   LIG    1        4.700   0.367   0.070  0.00  0.00    -0.230 C 
ATOM      2  C   LIG    1        6.050   0.422   0.118  0.00  0.00    +0.110 C 
ATOM      3  C   LIG    1        6.595  -0.950   0.077  0.00  0.00    +0.530 C 
ATOM      4  N   LIG    1        5.589  -1.841   0.004  0.00  0.00    -0.590 N 
ATOM      5  O   LIG    1        7.776  -1.233   0.104  0.00  0.00    -0.500 OA
ATOM      6  C   LIG    1        4.325  -1.095   0.000  0.00  0.00    +0.340 C 
ENDROOT
BRANCH   6   7
ATOM      7  C   LIG    1        3.492  -1.475   1.198  0.00  0.00    -0.110 A 
ATOM      8  C   LIG    1        4.069  -1.526   2.453  0.00  0.00    +0.040 A 
ATOM      9  C   LIG    1        3.304  -1.869   3.552  0.00  0.00    +0.020 A 
ATOM     10  C   LIG    1        1.964  -2.171   3.394  0.00  0.00    -0.060 A 
ATOM     11  C   LIG    1        1.389  -2.126   2.138  0.00  0.00    +0.000 A 
ATOM     12  C   LIG    1        2.153  -1.777   1.040  0.00  0.00    +0.020 A 
BRANCH  10  13
ATOM     13  C   LIG    1        1.131  -2.552   4.591  0.00  0.00    +0.020 C 
ATOM     14  C   LIG    1        1.134  -1.402   5.600  0.00  0.00    +0.030 C 
ATOM     15  C   LIG    1        1.719  -3.804   5.244  0.00  0.00    +0.040 C 
ENDBRANCH  10  13
ENDBRANCH   6   7
BRANCH   1  16
ATOM     16  C   LIG    1        3.776   1.507   0.089  0.00  0.00    +0.510 C 
ATOM     17  O   LIG    1        3.699   2.213   1.079  0.00  0.00    -0.420 OA
BRANCH  16  22
ATOM     18  C   LIG    1        1.202   1.891  -4.636  0.00  0.00    +0.190 C 
ATOM     19  C   LIG    1        1.770   1.972  -3.242  0.00  0.00    +0.070 A 
ATOM     20  N   LIG    1        1.376   2.806  -2.334  0.00  0.00    -0.480 NA
ATOM     21  C   LIG    1        1.969   2.754  -1.168  0.00  0.00    +0.170 A 
ATOM     22  C   LIG    1        2.946   1.797  -1.085  0.00  0.00    -0.330 A 
ATOM     23  C   LIG    1        1.611   3.664  -0.022  0.00  0.00    +0.170 C 
ATOM     24  S   LIG    1        3.024   0.977  -2.643  0.00  0.00    +0.180 S 
ENDBRANCH  16  22
ENDBRANCH   1  16
BRANCH   2  25
ATOM     25  O   LIG    1        6.786   1.556   0.194  0.00  0.00    -0.430 OA
ATOM     26  H   LIG    1        7.741   1.404   0.219  0.00  0.00    +0.410 HD
ENDBRANCH   2  25
BRANCH   4  27
ATOM     27  C   LIG    1        5.731  -3.298  -0.055  0.00  0.00    +0.450 C 
BRANCH  27  28
ATOM     28  C   LIG    1        5.731  -3.860   1.343  0.00  0.00    -0.050 A 
ATOM     29  C   LIG    1        4.646  -4.257   2.032  0.00  0.00    -0.010 A 
ATOM     30  C   LIG    1        5.103  -4.712   3.290  0.00  0.00    -0.060 A 
ATOM     31  C   LIG    1        6.440  -4.566   3.295  0.00  0.00    +0.170 A 
ATOM     32  O   LIG    1        6.815  -4.055   2.111  0.00  0.00    -0.170 OA
ENDBRANCH  27  28
ENDBRANCH   4  27
TORSDOF 7
