REMARK  Name = ZINCrH000004o1YE.0
REMARK                            x       y       z     vdW  Elec       q    Type
REMARK                         _______ _______ _______ _____ _____    ______ ____
ROOT
ATOM      1  N   LIG    1       -2.433   0.976   0.036  0.00  0.00    -0.530 NA
ATOM      2  C   LIG    1       -3.719   1.636  -0.277  0.00  0.00    +0.190 C 
ATOM      3  C   LIG    1       -4.645   0.614  -0.888  0.00  0.00    +0.040 C 
ATOM      4  C   LIG    1       -5.532  -0.066   0.168  0.00  0.00    +0.190 C 
ATOM      5  N   LIG    1       -4.789  -0.392   1.406  0.00  0.00    -0.530 N 
ATOM      6  C   LIG    1       -3.465  -0.924   1.171  0.00  0.00    +0.210 C 
ATOM      7  C   LIG    1       -2.447   0.233   1.223  0.00  0.00    +0.190 C 
ENDROOT
BRANCH   5   8
ATOM      8  C   LIG    1       -5.529  -1.239   2.223  0.00  0.00    +0.140 A 
ATOM      9  C   LIG    1       -5.786  -2.544   1.824  0.00  0.00    -0.020 A 
ATOM     10  C   LIG    1       -6.520  -3.384   2.637  0.00  0.00    +0.050 A 
ATOM     11  C   LIG    1       -7.008  -2.934   3.853  0.00  0.00    +0.020 A 
ATOM     12  C   LIG    1       -6.764  -1.641   4.266  0.00  0.00    +0.070 A 
ATOM     13  C   LIG    1       -6.016  -0.781   3.458  0.00  0.00    -0.010 A 
BRANCH  13  14
ATOM     14  C   LIG    1       -5.753   0.560   3.883  0.00  0.00    +0.270 C 
ATOM     15  N   LIG    1       -5.544   1.625   4.221  0.00  0.00    -0.420 NA
ENDBRANCH  13  14
ENDBRANCH   5   8
BRANCH   1  17
ATOM     16  C   LIG    1       -1.408   2.810   1.294  0.00  0.00    +0.030 C 
ATOM     17  C   LIG    1       -1.329   1.945   0.035  0.00  0.00    +0.180 C 
BRANCH  17  18
ATOM     18  C   LIG    1       -0.015   1.209   0.012  0.00  0.00    +0.520 C 
ATOM     19  N   LIG    1        1.143   1.898   0.001  0.00  0.00    -0.670 N 
ATOM     20  H   LIG    1        1.131   2.866  -0.069  0.00  0.00    +0.410 HD
ATOM     21  O   LIG    1        0.002  -0.004  -0.001  0.00  0.00    -0.490 OA
BRANCH  19  22
ATOM     22  C   LIG    1        2.364   1.218   0.092  0.00  0.00    +0.160 A 
ATOM     23  C   LIG    1        2.420  -0.033   0.690  0.00  0.00    +0.030 A 
ATOM     24  C   LIG    1        3.626  -0.701   0.778  0.00  0.00    +0.040 A 
ATOM     25  C   LIG    1        4.776  -0.126   0.271  0.00  0.00    +0.000 A 
ATOM     26  C   LIG    1        4.724   1.121  -0.326  0.00  0.00    +0.050 A 
ATOM     27  C   LIG    1        3.521   1.792  -0.423  0.00  0.00    -0.070 A 
ATOM     28 CL   LIG    1        3.454   3.353  -1.179  0.00  0.00    -0.070 Cl
ENDBRANCH  19  22
ENDBRANCH  17  18
ENDBRANCH   1  17
TORSDOF 5
