REMARK  Name = ZINCtV00000L6kUB.0
REMARK                            x       y       z     vdW  Elec       q    Type
REMARK                         _______ _______ _______ _____ _____    ______ ____
ROOT
ATOM      1  C   LIG    1        2.422   1.185  -0.015  0.00  0.00    +0.600 C 
ENDROOT
BRANCH   1   3
ATOM      2  C   LIG    1       -0.014   1.211   0.009  0.00  0.00    +0.650 C 
ATOM      3  N   LIG    1        1.143   1.901   0.001  0.00  0.00    -0.720 N 
ATOM      4  H   LIG    1        1.130   2.870   0.007  0.00  0.00    +0.410 HD
ATOM      5  O   LIG    1        0.002  -0.004   0.002  0.00  0.00    -0.570 OA
BRANCH   2   6
ATOM      6  O   LIG    1       -1.189   1.868   0.018  0.00  0.00    -0.370 OA
BRANCH   6   7
ATOM      7  C   LIG    1       -2.396   1.061   0.019  0.00  0.00    +0.230 C 
BRANCH   7   8
ATOM      8  C   LIG    1       -3.622   1.976   0.030  0.00  0.00    +0.030 C 
BRANCH   8   9
ATOM      9  C   LIG    1       -4.894   1.126   0.031  0.00  0.00    +0.020 C 
BRANCH   9  10
ATOM     10  C   LIG    1       -6.120   2.041   0.042  0.00  0.00    +0.000 C 
BRANCH  10  11
ATOM     11  C   LIG    1       -7.391   1.190   0.044  0.00  0.00    +0.000 C 
BRANCH  11  12
ATOM     12  C   LIG    1       -8.617   2.106   0.054  0.00  0.00    +0.000 C 
BRANCH  12  13
ATOM     13  C   LIG    1       -9.889   1.255   0.056  0.00  0.00    +0.000 C 
BRANCH  13  14
ATOM     14  C   LIG    1      -11.115   2.171   0.067  0.00  0.00    +0.000 C 
BRANCH  14  16
ATOM     15  C   LIG    1      -13.613   2.235   0.079  0.00  0.00    +0.000 C 
ATOM     16  C   LIG    1      -12.387   1.320   0.068  0.00  0.00    -0.010 C 
ENDBRANCH  14  16
ENDBRANCH  13  14
ENDBRANCH  12  13
ENDBRANCH  11  12
ENDBRANCH  10  11
ENDBRANCH   9  10
ENDBRANCH   8   9
ENDBRANCH   7   8
ENDBRANCH   6   7
ENDBRANCH   2   6
ENDBRANCH   1   3
BRANCH   1  17
ATOM     17  N   LIG    1        2.894   1.060  -1.396  0.00  0.00    -0.720 N 
ATOM     18  H   LIG    1        2.583   0.326  -1.950  0.00  0.00    +0.410 HD
ATOM     19  C   LIG    1        3.760   1.962  -1.897  0.00  0.00    +0.650 C 
ATOM     20  O   LIG    1        4.149   2.881  -1.204  0.00  0.00    -0.570 OA
BRANCH  19  21
ATOM     21  O   LIG    1        4.193   1.847  -3.167  0.00  0.00    -0.370 OA
BRANCH  21  22
ATOM     22  C   LIG    1        5.125   2.855  -3.639  0.00  0.00    +0.230 C 
BRANCH  22  23
ATOM     23  C   LIG    1        5.502   2.560  -5.093  0.00  0.00    +0.030 C 
BRANCH  23  24
ATOM     24  C   LIG    1        6.484   3.622  -5.591  0.00  0.00    +0.020 C 
BRANCH  24  25
ATOM     25  C   LIG    1        6.861   3.327  -7.044  0.00  0.00    +0.000 C 
BRANCH  25  26
ATOM     26  C   LIG    1        7.843   4.389  -7.542  0.00  0.00    +0.000 C 
BRANCH  26  27
ATOM     27  C   LIG    1        8.220   4.094  -8.995  0.00  0.00    +0.000 C 
BRANCH  27  28
ATOM     28  C   LIG    1        9.201   5.156  -9.493  0.00  0.00    +0.000 C 
BRANCH  28  29
ATOM     29  C   LIG    1        9.578   4.861 -10.947  0.00  0.00    +0.000 C 
BRANCH  29  30
ATOM     30  C   LIG    1       10.560   5.923 -11.445  0.00  0.00    -0.010 C 
ATOM     31  C   LIG    1       10.937   5.628 -12.898  0.00  0.00    +0.000 C 
ENDBRANCH  29  30
ENDBRANCH  28  29
ENDBRANCH  27  28
ENDBRANCH  26  27
ENDBRANCH  25  26
ENDBRANCH  24  25
ENDBRANCH  23  24
ENDBRANCH  22  23
ENDBRANCH  21  22
ENDBRANCH  19  21
ENDBRANCH   1  17
TORSDOF 22
