REMARK  Name = ZINCrH000004r5Dt.0
REMARK                            x       y       z     vdW  Elec       q    Type
REMARK                         _______ _______ _______ _____ _____    ______ ____
ROOT
ATOM      1  C   LIG    1        2.104  -0.118  -0.065  0.00  0.00    +0.160 A 
ATOM      2  C   LIG    1        1.881   1.252  -0.025  0.00  0.00    -0.020 A 
ATOM      3  C   LIG    1        0.600   1.750  -0.166  0.00  0.00    +0.050 A 
ATOM      4  C   LIG    1       -0.463   0.887  -0.346  0.00  0.00    +0.000 A 
ATOM      5  C   LIG    1       -0.247  -0.485  -0.387  0.00  0.00    +0.160 A 
ATOM      6  C   LIG    1        1.038  -0.988  -0.246  0.00  0.00    +0.000 A 
ENDROOT
BRANCH   1   8
ATOM      7  C   LIG    1        3.775  -1.724  -0.602  0.00  0.00    +0.560 C 
ATOM      8  N   LIG    1        3.401  -0.621   0.078  0.00  0.00    -0.670 N 
ATOM      9  H   LIG    1        4.032  -0.176   0.665  0.00  0.00    +0.410 HD
ATOM     10  O   LIG    1        3.018  -2.224  -1.411  0.00  0.00    -0.510 OA
BRANCH   7  15
ATOM     11  C   LIG    1        8.954  -4.056   0.331  0.00  0.00    +0.120 C 
ATOM     12  C   LIG    1        7.598  -3.446   0.086  0.00  0.00    -0.090 A 
ATOM     13  C   LIG    1        7.215  -2.315   0.784  0.00  0.00    +0.040 A 
ATOM     14  C   LIG    1        5.977  -1.748   0.561  0.00  0.00    +0.040 A 
ATOM     15  C   LIG    1        5.104  -2.324  -0.363  0.00  0.00    -0.120 A 
ATOM     16  C   LIG    1        5.494  -3.465  -1.065  0.00  0.00    +0.060 A 
ATOM     17  C   LIG    1        6.739  -4.021  -0.837  0.00  0.00    +0.090 A 
ATOM     18  F   LIG    1        7.119  -5.126  -1.515  0.00  0.00    -0.130 F 
ENDBRANCH   7  15
ENDBRANCH   1   8
BRANCH   5  19
ATOM     19  N   LIG    1       -1.325  -1.359  -0.569  0.00  0.00    -0.670 N 
ATOM     20  H   LIG    1       -1.206  -2.176  -1.078  0.00  0.00    +0.410 HD
ATOM     21  C   LIG    1       -2.528  -1.065  -0.037  0.00  0.00    +0.500 C 
ATOM     22  O   LIG    1       -2.654  -0.094   0.679  0.00  0.00    -0.490 OA
BRANCH  21  23
ATOM     23  C   LIG    1       -3.717  -1.942  -0.333  0.00  0.00    +0.280 C 
ATOM     24  C   LIG    1       -3.435  -3.365   0.154  0.00  0.00    +0.100 C 
BRANCH  23  25
ATOM     25  N   LIG    1       -4.897  -1.415   0.357  0.00  0.00    -0.360 N 
ATOM     26  C   LIG    1       -5.252  -1.673   1.633  0.00  0.00    +0.240 A 
ATOM     27  C   LIG    1       -6.395  -0.995   1.888  0.00  0.00    -0.120 A 
ATOM     28  C   LIG    1       -6.756  -0.307   0.725  0.00  0.00    +0.240 A 
ATOM     29  N   LIG    1       -5.859  -0.558  -0.193  0.00  0.00    -0.290 NA
ENDBRANCH  23  25
ENDBRANCH  21  23
ENDBRANCH   5  19
TORSDOF 5
