REMARK  Name = ZINCtV000002HaZ3.0
REMARK                            x       y       z     vdW  Elec       q    Type
REMARK                         _______ _______ _______ _____ _____    ______ ____
ROOT
ATOM      1  N   LIG    1        2.358   3.889   0.000  0.00  0.00    -0.410 N 
ATOM      2  C   LIG    1        3.075   4.314   1.086  0.00  0.00    +0.170 A 
ATOM      3  N   LIG    1        4.133   4.946   0.630  0.00  0.00    -0.280 NA
ATOM      4  N   LIG    1        4.125   4.954  -0.655  0.00  0.00    -0.260 NA
ATOM      5  C   LIG    1        3.063   4.323  -1.101  0.00  0.00    +0.240 A 
ENDROOT
BRANCH   1  10
ATOM      6  C   LIG    1       -2.513   0.977   0.020  0.00  0.00    +0.100 C 
ATOM      7  C   LIG    1       -1.220   1.750   0.017  0.00  0.00    -0.050 A 
ATOM      8  C   LIG    1       -0.013   1.076   0.008  0.00  0.00    +0.030 A 
ATOM      9  C   LIG    1        1.175   1.782   0.000  0.00  0.00    +0.040 A 
ATOM     10  C   LIG    1        1.155   3.170   0.008  0.00  0.00    +0.080 A 
ATOM     11  C   LIG    1       -0.059   3.844   0.022  0.00  0.00    -0.050 A 
ATOM     12  C   LIG    1       -0.084   5.351   0.031  0.00  0.00    +0.100 C 
ATOM     13  C   LIG    1       -1.242   3.133   0.030  0.00  0.00    +0.030 A 
ENDBRANCH   1  10
BRANCH   5  14
ATOM     14  C   LIG    1        2.694   4.116  -2.518  0.00  0.00    -0.070 A 
ATOM     15  C   LIG    1        3.312   4.860  -3.530  0.00  0.00    +0.120 A 
ATOM     16  C   LIG    1        2.931   4.628  -4.840  0.00  0.00    -0.020 A 
ATOM     17  C   LIG    1        1.961   3.679  -5.105  0.00  0.00    +0.270 A 
ATOM     18  N   LIG    1        1.396   2.992  -4.130  0.00  0.00    -0.480 NA
ATOM     19  C   LIG    1        1.728   3.172  -2.869  0.00  0.00    +0.280 A 
ENDBRANCH   5  14
BRANCH   2  20
ATOM     20  S   LIG    1        2.659   4.057   2.779  0.00  0.00    +0.030 S 
BRANCH  20  21
ATOM     21  C   LIG    1        4.055   4.889   3.575  0.00  0.00    +0.160 C 
BRANCH  21  22
ATOM     22  C   LIG    1        3.908   4.795   5.072  0.00  0.00    -0.100 A 
ATOM     23  C   LIG    1        3.232   5.782   5.763  0.00  0.00    +0.090 A 
ATOM     24  C   LIG    1        3.092   5.693   7.136  0.00  0.00    +0.050 A 
ATOM     25  C   LIG    1        3.640   4.623   7.820  0.00  0.00    -0.060 A 
ATOM     26  C   LIG    1        4.322   3.637   7.130  0.00  0.00    +0.020 A 
ATOM     27 BR   LIG    1        3.455   4.507   9.699  0.00  0.00    -0.030 Br
ATOM     28  C   LIG    1        4.457   3.723   5.755  0.00  0.00    +0.130 A 
ATOM     29  F   LIG    1        5.124   2.761   5.080  0.00  0.00    -0.120 F 
ENDBRANCH  21  22
ENDBRANCH  20  21
ENDBRANCH   2  20
TORSDOF 5
