REMARK  Name = ZINCrH000004sSBZ.0
REMARK                            x       y       z     vdW  Elec       q    Type
REMARK                         _______ _______ _______ _____ _____    ______ ____
ROOT
ATOM      1  C   LIG    1        5.822  -1.582   2.891  0.00  0.00    +0.420 C 
ATOM      2  O   LIG    1        5.135  -2.572   3.025  0.00  0.00    -0.420 OA
ENDROOT
BRANCH   1   3
ATOM      3  C   LIG    1        5.277  -0.395   2.213  0.00  0.00    -0.140 A 
ATOM      4  C   LIG    1        6.067   0.749   2.057  0.00  0.00    +0.040 A 
ATOM      5  C   LIG    1        5.553   1.860   1.421  0.00  0.00    +0.040 A 
ATOM      6  C   LIG    1        4.260   1.847   0.932  0.00  0.00    +0.010 A 
ATOM      7  C   LIG    1        3.464   0.717   1.086  0.00  0.00    +0.160 A 
ATOM      8  C   LIG    1        3.968  -0.405   1.723  0.00  0.00    +0.070 A 
BRANCH   7   9
ATOM      9  N   LIG    1        2.154   0.712   0.592  0.00  0.00    -0.560 N 
ATOM     10  C   LIG    1        1.483   1.882   0.013  0.00  0.00    +0.260 C 
ATOM     11  C   LIG    1       -0.023   1.539   0.022  0.00  0.00    +0.060 C 
ATOM     12  C   LIG    1        0.006  -0.007  -0.007  0.00  0.00    +0.070 C 
ATOM     13  C   LIG    1        1.349  -0.364   0.588  0.00  0.00    +0.510 C 
ATOM     14  O   LIG    1        1.656  -1.462   1.001  0.00  0.00    -0.500 OA
ENDBRANCH   7   9
ENDBRANCH   1   3
BRANCH   1  15
ATOM     15  C   LIG    1        7.233  -1.568   3.418  0.00  0.00    +0.100 C 
BRANCH  15  16
ATOM     16  S   LIG    1        7.604  -3.162   4.192  0.00  0.00    +0.130 S 
BRANCH  16  20
ATOM     17  C   LIG    1       11.240  -3.111   5.545  0.00  0.00    +0.260 A 
ATOM     18  N   LIG    1       11.129  -1.913   5.027  0.00  0.00    -0.270 NA
ATOM     19  N   LIG    1        9.954  -1.772   4.521  0.00  0.00    -0.280 NA
ATOM     20  C   LIG    1        9.265  -2.873   4.705  0.00  0.00    +0.120 A 
ATOM     21  O   LIG    1       10.062  -3.745   5.353  0.00  0.00    -0.200 OA
BRANCH  17  24
ATOM     22  C   LIG    1       13.977  -1.646   5.982  0.00  0.00    +0.200 C 
ATOM     23  C   LIG    1       13.629  -3.047   6.415  0.00  0.00    +0.080 A 
ATOM     24  C   LIG    1       12.434  -3.667   6.216  0.00  0.00    -0.150 A 
ATOM     25  C   LIG    1       12.579  -5.006   6.802  0.00  0.00    -0.020 A 
ATOM     26  C   LIG    1       13.827  -5.061   7.296  0.00  0.00    +0.190 A 
ATOM     27  O   LIG    1       14.442  -3.892   7.064  0.00  0.00    -0.170 OA
ENDBRANCH  17  24
ENDBRANCH  16  20
ENDBRANCH  15  16
ENDBRANCH   1  15
TORSDOF 6
