REMARK  Name = ZINCrg000000rqaV.1
REMARK                            x       y       z     vdW  Elec       q    Type
REMARK                         _______ _______ _______ _____ _____    ______ ____
ROOT
ATOM      1  C   LIG    1       -1.132   0.720  -2.138  0.00  0.00    +0.560 C 
ATOM      2  N   LIG    1       -1.426   1.103  -0.880  0.00  0.00    -0.600 N 
ATOM      3  C   LIG    1       -2.501   2.072  -0.625  0.00  0.00    +0.270 C 
ATOM      4  C   LIG    1       -3.476   1.471   0.392  0.00  0.00    +0.030 C 
ATOM      5  C   LIG    1       -2.703   1.045   1.643  0.00  0.00    +0.040 C 
ATOM      6  C   LIG    1       -1.672  -0.024   1.272  0.00  0.00    +0.110 C 
ATOM      7  C   LIG    1       -0.679   0.560   0.262  0.00  0.00    +0.320 C 
ATOM      8  O   LIG    1       -0.196  -0.028  -2.342  0.00  0.00    -0.520 OA
ENDROOT
BRANCH   6   9
ATOM      9  C   LIG    1       -0.932  -0.463   2.509  0.00  0.00    +0.260 A 
ATOM     10  N   LIG    1        0.201   0.010   2.910  0.00  0.00    -0.260 NA
ATOM     11  N   LIG    1        0.552  -0.656   4.093  0.00  0.00    -0.550 N 
ATOM     12  H   LIG    1        1.351  -0.512   4.624  0.00  0.00    +0.470 HD
ATOM     13  C   LIG    1       -0.439  -1.536   4.352  0.00  0.00    +0.610 A 
ATOM     14  O   LIG    1       -0.496  -2.301   5.297  0.00  0.00    -0.480 OA
ATOM     15  O   LIG    1       -1.351  -1.408   3.374  0.00  0.00    -0.270 OA
ENDBRANCH   6   9
BRANCH   1  18
ATOM     16  C   LIG    1       -3.223   0.831  -5.270  0.00  0.00    +0.310 A 
ATOM     17  C   LIG    1       -2.457   0.327  -4.225  0.00  0.00    -0.010 A 
ATOM     18  C   LIG    1       -1.948   1.211  -3.273  0.00  0.00    -0.070 A 
ATOM     19  C   LIG    1       -2.225   2.575  -3.422  0.00  0.00    +0.000 A 
ATOM     20  C   LIG    1       -2.989   2.994  -4.492  0.00  0.00    +0.290 A 
ATOM     21  N   LIG    1       -3.459   2.130  -5.370  0.00  0.00    -0.450 NA
BRANCH  16  25
ATOM     22  C   LIG    1       -2.177  -2.221  -8.900  0.00  0.00    +0.050 C 
ATOM     23  C   LIG    1       -3.289  -1.535  -8.105  0.00  0.00    +0.160 C 
ATOM     24  C   LIG    1       -2.671  -0.634  -7.033  0.00  0.00    +0.170 C 
ATOM     25  N   LIG    1       -3.743  -0.037  -6.223  0.00  0.00    -0.500 N 
ATOM     26  C   LIG    1       -4.563  -1.082  -5.593  0.00  0.00    +0.160 C 
ATOM     27  C   LIG    1       -5.162  -1.978  -6.680  0.00  0.00    +0.240 C 
ATOM     28  O   LIG    1       -4.107  -2.524  -7.476  0.00  0.00    -0.380 OA
ENDBRANCH  16  25
ENDBRANCH   1  18
TORSDOF 3
