REMARK  Name = ZINCvU00000007yC.0
REMARK                            x       y       z     vdW  Elec       q    Type
REMARK                         _______ _______ _______ _____ _____    ______ ____
ROOT
ATOM      1  C   LIG    1        2.675  -0.723   2.526  0.00  0.00    +0.150 A 
ATOM      2  C   LIG    1        2.002  -1.603   3.363  0.00  0.00    -0.010 A 
ATOM      3  C   LIG    1        2.654  -2.160   4.446  0.00  0.00    +0.050 A 
ATOM      4  C   LIG    1        3.972  -1.833   4.704  0.00  0.00    -0.100 A 
ATOM      5  C   LIG    1        4.644  -0.953   3.875  0.00  0.00    +0.040 A 
ATOM      6  C   LIG    1        3.999  -0.397   2.788  0.00  0.00    +0.020 A 
ENDROOT
BRANCH   1   8
ATOM      7  C   LIG    1        2.697   0.077   0.286  0.00  0.00    +0.520 C 
ATOM      8  N   LIG    1        2.019  -0.161   1.426  0.00  0.00    -0.670 N 
ATOM      9  H   LIG    1        1.075   0.057   1.483  0.00  0.00    +0.410 HD
ATOM     10  O   LIG    1        3.894  -0.116   0.241  0.00  0.00    -0.510 OA
BRANCH   7  11
ATOM     11  C   LIG    1        1.970   0.584  -0.932  0.00  0.00    +0.040 C 
ATOM     12  C   LIG    1        0.899  -0.428  -1.345  0.00  0.00    +0.050 C 
BRANCH  11  17
ATOM     13  C   LIG    1        5.726   1.287  -5.267  0.00  0.00    +0.090 C 
ATOM     14  C   LIG    1        4.747   1.104  -4.136  0.00  0.00    -0.080 A 
ATOM     15  C   LIG    1        4.023   2.184  -3.667  0.00  0.00    +0.000 A 
ATOM     16  C   LIG    1        3.124   2.016  -2.630  0.00  0.00    +0.010 A 
ATOM     17  C   LIG    1        2.950   0.768  -2.062  0.00  0.00    -0.080 A 
ATOM     18  C   LIG    1        3.678  -0.311  -2.528  0.00  0.00    +0.040 A 
ATOM     19  C   LIG    1        4.574  -0.144  -3.567  0.00  0.00    +0.000 A 
ENDBRANCH  11  17
ENDBRANCH   7  11
ENDBRANCH   1   8
BRANCH   4  20
ATOM     20  C   LIG    1        4.679  -2.438   5.889  0.00  0.00    +0.210 C 
BRANCH  20  21
ATOM     21  C   LIG    1        4.488  -1.552   7.093  0.00  0.00    +0.060 A 
ATOM     22  N   LIG    1        3.513  -1.650   7.930  0.00  0.00    -0.450 NA
ATOM     23  C   LIG    1        3.496  -0.793   8.940  0.00  0.00    +0.140 A 
ATOM     24  C   LIG    1        4.521   0.083   8.937  0.00  0.00    -0.050 A 
ATOM     25  S   LIG    1        5.530  -0.272   7.537  0.00  0.00    +0.140 S 
BRANCH  23  26
ATOM     26  C   LIG    1        2.437  -0.792   9.981  0.00  0.00    +0.140 A 
ATOM     27  N   LIG    1        2.361   0.028  11.007  0.00  0.00    -0.280 NA
ATOM     28  N   LIG    1        1.217  -0.303  11.744  0.00  0.00    -0.370 N 
ATOM     29  C   LIG    1        0.613  -1.347  11.138  0.00  0.00    +0.080 A 
ATOM     30  C   LIG    1       -0.649  -2.030  11.598  0.00  0.00    +0.150 C 
ATOM     31  C   LIG    1        0.757   0.366  12.964  0.00  0.00    +0.360 C 
ATOM     32  C   LIG    1        1.341  -1.674  10.048  0.00  0.00    -0.090 A 
ENDBRANCH  23  26
ENDBRANCH  20  21
ENDBRANCH   4  20
TORSDOF 6
