REMARK  Name = ZINCpk000000o7id.0
REMARK                            x       y       z     vdW  Elec       q    Type
REMARK                         _______ _______ _______ _____ _____    ______ ____
ROOT
ATOM      1  C   LIG    1        1.946  -5.584  -7.826  0.00  0.00    +0.510 C 
ATOM      2  N   LIG    1        2.865  -4.811  -7.214  0.00  0.00    -0.620 N 
ATOM      3  C   LIG    1        4.295  -5.134  -7.308  0.00  0.00    +0.280 C 
ATOM      4  C   LIG    1        4.865  -5.255  -5.889  0.00  0.00    +0.290 C 
ATOM      5  N   LIG    1        4.454  -4.075  -5.115  0.00  0.00    -0.640 N 
ATOM      6  C   LIG    1        3.023  -3.756  -5.017  0.00  0.00    +0.270 C 
ATOM      7  C   LIG    1        5.373  -3.302  -4.503  0.00  0.00    +0.720 C 
ATOM      8  N   LIG    1        5.021  -2.548  -3.443  0.00  0.00    -0.630 N 
ATOM      9  C   LIG    1        5.935  -1.530  -2.904  0.00  0.00    +0.300 C 
ATOM     10  C   LIG    1        6.070  -1.747  -1.393  0.00  0.00    +0.170 C 
ATOM     11  N   LIG    1        4.734  -1.767  -0.784  0.00  0.00    -0.530 NA
ATOM     12  C   LIG    1        3.935  -2.892  -1.288  0.00  0.00    +0.170 C 
ATOM     13  C   LIG    1        3.712  -2.721  -2.795  0.00  0.00    +0.280 C 
ATOM     14  O   LIG    1        6.520  -3.286  -4.907  0.00  0.00    -0.580 OA
ATOM     15  C   LIG    1        2.454  -3.631  -6.440  0.00  0.00    +0.270 C 
ATOM     16  O   LIG    1        2.296  -6.556  -8.461  0.00  0.00    -0.540 OA
ENDROOT
BRANCH   1  18
ATOM     17  C   LIG    1       -0.340  -6.269  -8.500  0.00  0.00    +0.040 C 
ATOM     18  C   LIG    1        0.482  -5.241  -7.721  0.00  0.00    +0.040 C 
ENDBRANCH   1  18
BRANCH  11  19
ATOM     19  C   LIG    1        4.824  -1.801   0.682  0.00  0.00    +0.220 C 
BRANCH  19  20
ATOM     20  C   LIG    1        3.458  -1.574   1.275  0.00  0.00    -0.080 A 
ATOM     21  C   LIG    1        2.629  -2.650   1.532  0.00  0.00    +0.000 A 
ATOM     22  C   LIG    1        1.375  -2.442   2.077  0.00  0.00    +0.000 A 
ATOM     23  C   LIG    1        0.951  -1.158   2.365  0.00  0.00    +0.000 A 
ATOM     24  C   LIG    1        1.781  -0.082   2.108  0.00  0.00    +0.000 A 
ATOM     25  C   LIG    1        3.033  -0.290   1.562  0.00  0.00    +0.020 A 
ENDBRANCH  19  20
ENDBRANCH  11  19
TORSDOF 3
