REMARK  Name = ZINCpk00000Fa0GU.2
REMARK                            x       y       z     vdW  Elec       q    Type
REMARK                         _______ _______ _______ _____ _____    ______ ____
ROOT
ATOM      1  C   LIG    1       -2.453   1.342   3.531  0.00  0.00    +0.230 C 
ATOM      2  C   LIG    1       -1.530   2.302   4.287  0.00  0.00    +0.000 C 
ATOM      3  C   LIG    1       -1.382   3.595   3.481  0.00  0.00    +0.040 C 
ATOM      4  C   LIG    1       -0.835   3.264   2.091  0.00  0.00    +0.170 C 
ATOM      5  N   LIG    1       -1.754   2.344   1.408  0.00  0.00    -0.510 NA
ATOM      6  C   LIG    1       -1.875   1.076   2.139  0.00  0.00    +0.220 C 
ENDROOT
BRANCH   1   9
ATOM      7  N   LIG    1       -2.977  -1.456   5.792  0.00  0.00    -0.280 N 
ATOM      8  C   LIG    1       -3.099  -0.137   5.516  0.00  0.00    +0.150 A 
ATOM      9  C   LIG    1       -2.558   0.043   4.288  0.00  0.00    -0.050 A 
ATOM     10  N   LIG    1       -2.128  -1.157   3.883  0.00  0.00    -0.250 NA
ATOM     11  N   LIG    1       -2.392  -2.024   4.796  0.00  0.00    -0.080 NA
BRANCH   7  13
ATOM     12  C   LIG    1       -2.349  -1.993   8.094  0.00  0.00    +0.060 C 
ATOM     13  C   LIG    1       -3.428  -2.123   7.016  0.00  0.00    +0.250 C 
ATOM     14  C   LIG    1       -4.720  -1.468   7.507  0.00  0.00    +0.060 C 
ENDBRANCH   7  13
ENDBRANCH   1   9
BRANCH   1  15
ATOM     15  O   LIG    1       -3.751   1.927   3.405  0.00  0.00    -0.530 OA
ATOM     16  H   LIG    1       -4.176   2.126   4.251  0.00  0.00    +0.370 HD
ENDBRANCH   1  15
BRANCH   5  17
ATOM     17  C   LIG    1       -1.333   2.113   0.020  0.00  0.00    +0.270 C 
BRANCH  17  18
ATOM     18  C   LIG    1       -0.017   1.379   0.010  0.00  0.00    -0.130 A 
ATOM     19  C   LIG    1        0.002  -0.004   0.002  0.00  0.00    +0.050 A 
ATOM     20  C   LIG    1        1.206  -0.686  -0.013  0.00  0.00    +0.010 A 
ATOM     21  C   LIG    1        2.397   0.011  -0.021  0.00  0.00    +0.040 A 
ATOM     22  C   LIG    1        2.385   1.407  -0.014  0.00  0.00    -0.140 A 
ATOM     23  C   LIG    1        1.167   2.088   0.002  0.00  0.00    +0.080 A 
BRANCH  22  24
ATOM     24  C   LIG    1        3.657   2.160  -0.022  0.00  0.00    +0.560 C 
ATOM     25  O   LIG    1        3.643   3.376  -0.016  0.00  0.00    -0.540 OA
ATOM     26  N   LIG    1        4.831   1.499  -0.036  0.00  0.00    -0.850 N 
ATOM     27  H   LIG    1        5.666   1.994  -0.042  0.00  0.00    +0.410 HD
ATOM     28  H   LIG    1        4.842   0.529  -0.041  0.00  0.00    +0.400 HD
ENDBRANCH  22  24
ENDBRANCH  17  18
ENDBRANCH   5  17
TORSDOF 6
