REMARK  Name = ZINCvU0000000IQC.0
REMARK                            x       y       z     vdW  Elec       q    Type
REMARK                         _______ _______ _______ _____ _____    ______ ____
ROOT
ATOM      1  C   LIG    1       -2.416   0.803   0.219  0.00  0.00    -0.150 A 
ATOM      2  C   LIG    1       -2.389  -0.593   0.290  0.00  0.00    +0.070 A 
ATOM      3  C   LIG    1       -3.568  -1.298   0.376  0.00  0.00    -0.010 A 
ATOM      4  C   LIG    1       -4.785  -0.625   0.383  0.00  0.00    +0.170 A 
ATOM      5  C   LIG    1       -4.815   0.765   0.307  0.00  0.00    +0.020 A 
ATOM      6  C   LIG    1       -3.640   1.477   0.226  0.00  0.00    +0.110 A 
ENDROOT
BRANCH   1   9
ATOM      7  N   LIG    1        0.026   0.912   0.125  0.00  0.00    -0.670 N 
ATOM      8  H   LIG    1        0.045  -0.058   0.110  0.00  0.00    +0.410 HD
ATOM      9  C   LIG    1       -1.154   1.563   0.131  0.00  0.00    +0.560 C 
ATOM     10  O   LIG    1       -1.179   2.777   0.065  0.00  0.00    -0.520 OA
BRANCH   7  14
ATOM     11  C   LIG    1        3.596   3.066   0.151  0.00  0.00    +0.120 A 
ATOM     12  C   LIG    1        3.510   1.858   0.829  0.00  0.00    +0.010 A 
ATOM     13  C   LIG    1        2.328   1.144   0.820  0.00  0.00    +0.030 A 
ATOM     14  C   LIG    1        1.225   1.635   0.134  0.00  0.00    +0.100 A 
ATOM     15  C   LIG    1        1.314   2.842  -0.548  0.00  0.00    +0.060 A 
ATOM     16  C   LIG    1        2.495   3.557  -0.534  0.00  0.00    -0.060 A 
BRANCH  11  17
ATOM     17  O   LIG    1        4.760   3.768   0.159  0.00  0.00    -0.320 OA
BRANCH  17  19
ATOM     18  C   LIG    1        6.162   5.644  -0.436  0.00  0.00    +0.070 C 
ATOM     19  C   LIG    1        4.778   5.003  -0.559  0.00  0.00    +0.170 C 
ENDBRANCH  17  19
ENDBRANCH  11  17
ENDBRANCH   7  14
ENDBRANCH   1   9
BRANCH   4  20
ATOM     20  N   LIG    1       -5.977  -1.342   0.466  0.00  0.00    -0.650 N 
ATOM     21  H   LIG    1       -6.019  -2.153   0.997  0.00  0.00    +0.420 HD
ATOM     22  C   LIG    1       -7.071  -0.910  -0.193  0.00  0.00    +0.580 C 
ATOM     23  O   LIG    1       -7.042   0.148  -0.789  0.00  0.00    -0.500 OA
BRANCH  22  24
ATOM     24  C   LIG    1       -8.308  -1.726  -0.188  0.00  0.00    +0.110 A 
ATOM     25  N   LIG    1       -8.321  -2.874   0.460  0.00  0.00    -0.440 NA
ATOM     26  C   LIG    1       -9.412  -3.638   0.494  0.00  0.00    +0.120 A 
ATOM     27  C   LIG    1       -9.420  -4.861   1.192  0.00  0.00    +0.050 A 
ATOM     28  C   LIG    1      -10.547  -5.622   1.206  0.00  0.00    +0.040 A 
ATOM     29  C   LIG    1      -11.701  -5.213   0.539  0.00  0.00    +0.030 A 
ATOM     30  C   LIG    1      -11.732  -4.038  -0.147  0.00  0.00    +0.040 A 
ATOM     31  C   LIG    1      -10.589  -3.224  -0.184  0.00  0.00    -0.080 A 
ATOM     32  C   LIG    1      -10.584  -2.002  -0.883  0.00  0.00    +0.090 A 
ATOM     33  C   LIG    1       -9.438  -1.261  -0.879  0.00  0.00    +0.030 A 
ENDBRANCH  22  24
ENDBRANCH   4  20
TORSDOF 6
