REMARK  Name = ZINCbw0000001gMS.0
REMARK                            x       y       z     vdW  Elec       q    Type
REMARK                         _______ _______ _______ _____ _____    ______ ____
ROOT
ATOM      1  F   LIG    1       -0.079   6.003   0.035  0.00  0.00    -0.130 F 
ATOM      2  C   LIG    1       -0.061   4.652   0.028  0.00  0.00    +0.120 A 
ATOM      3  C   LIG    1        1.147   3.976   0.013  0.00  0.00    +0.010 A 
ATOM      4  C   LIG    1        1.165   2.594   0.005  0.00  0.00    +0.090 A 
ATOM      5  C   LIG    1       -0.024   1.887   0.012  0.00  0.00    -0.090 A 
ATOM      6  C   LIG    1       -1.231   2.562   0.022  0.00  0.00    -0.030 A 
ATOM      7 BR   LIG    1        0.002  -0.004   0.002  0.00  0.00    -0.030 Br
ATOM      8  C   LIG    1       -1.251   3.943   0.035  0.00  0.00    +0.020 A 
ENDROOT
BRANCH   6   9
ATOM      9  C   LIG    1       -2.526   1.790   0.024  0.00  0.00    +0.170 C 
ATOM     10  C   LIG    1       -3.100   1.359  -1.327  0.00  0.00    +0.220 C 
ATOM     11  O   LIG    1       -3.674   2.415  -0.552  0.00  0.00    -0.340 OA
ENDBRANCH   6   9
TORSDOF 1
