REMARK  Name = ZINCkj00000dDf0W.0
REMARK                            x       y       z     vdW  Elec       q    Type
REMARK                         _______ _______ _______ _____ _____    ______ ____
ROOT
ATOM      1  N   LIG    1       -2.711  -3.348  -1.915  0.00  0.00    -0.310 N 
ATOM      2  N   LIG    1       -2.896  -2.512  -0.808  0.00  0.00    -0.240 NA
ATOM      3  C   LIG    1       -1.864  -1.720  -0.700  0.00  0.00    +0.270 A 
ATOM      4  C   LIG    1       -0.967  -2.025  -1.748  0.00  0.00    -0.250 A 
ATOM      5  C   LIG    1       -1.535  -3.043  -2.487  0.00  0.00    +0.050 A 
ENDROOT
BRANCH   4   6
ATOM      6  C   LIG    1        0.329  -1.373  -2.007  0.00  0.00    +0.600 C 
ATOM      7  N   LIG    1        0.456  -0.040  -1.857  0.00  0.00    -0.630 N 
ATOM      8  C   LIG    1       -0.713   0.801  -1.552  0.00  0.00    +0.310 C 
ATOM      9  C   LIG    1       -0.740   1.971  -2.542  0.00  0.00    +0.270 C 
ATOM     10  N   LIG    1        0.545   2.679  -2.497  0.00  0.00    -0.500 N 
ATOM     11  C   LIG    1        1.621   1.794  -2.961  0.00  0.00    +0.150 C 
ATOM     12  C   LIG    1        2.936   2.575  -3.015  0.00  0.00    +0.110 C 
ATOM     13  H   LIG    1        0.735   2.969  -1.549  0.00  0.00    +0.430 HD
ATOM     14  H   LIG    1        0.500   3.493  -3.092  0.00  0.00    +0.430 HD
ATOM     15  C   LIG    1        1.765   0.616  -1.992  0.00  0.00    +0.340 C 
ATOM     16  O   LIG    1        1.285  -2.038  -2.358  0.00  0.00    -0.490 OA
ENDBRANCH   4   6
BRANCH   5  17
ATOM     17  C   LIG    1       -0.943  -3.694  -3.710  0.00  0.00    +0.540 C 
ATOM     18  F   LIG    1       -0.160  -4.787  -3.324  0.00  0.00    -0.150 F 
ATOM     19  F   LIG    1       -0.148  -2.768  -4.393  0.00  0.00    -0.150 F 
ATOM     20  F   LIG    1       -1.973  -4.133  -4.550  0.00  0.00    -0.170 F 
ENDBRANCH   5  17
BRANCH   1  22
ATOM     21  C   LIG    1       -4.626  -3.766  -3.377  0.00  0.00    +0.060 C 
ATOM     22  C   LIG    1       -3.645  -4.378  -2.374  0.00  0.00    +0.340 C 
ENDBRANCH   1  22
TORSDOF 3
