REMARK  Name = ZINCqH0000051aqw.0
REMARK                            x       y       z     vdW  Elec       q    Type
REMARK                         _______ _______ _______ _____ _____    ______ ____
ROOT
ATOM      1  O   LIG    1       -2.288  -4.104  -0.951  0.00  0.00    -0.330 OA
ENDROOT
BRANCH   1   2
ATOM      2  C   LIG    1       -3.359  -4.900  -1.092  0.00  0.00    +0.460 C 
ATOM      3  O   LIG    1       -4.463  -4.478  -0.843  0.00  0.00    -0.490 OA
BRANCH   2   4
ATOM      4  C   LIG    1       -3.184  -6.322  -1.562  0.00  0.00    +0.170 C 
BRANCH   4   5
ATOM      5  C   LIG    1       -4.530  -6.995  -1.636  0.00  0.00    -0.080 A 
ATOM      6  C   LIG    1       -5.027  -7.669  -0.536  0.00  0.00    +0.060 A 
ATOM      7  C   LIG    1       -6.264  -8.283  -0.603  0.00  0.00    +0.020 A 
ATOM      8  C   LIG    1       -7.000  -8.231  -1.772  0.00  0.00    +0.080 A 
ATOM      9  C   LIG    1       -6.500  -7.561  -2.873  0.00  0.00    -0.180 A 
ATOM     10  C   LIG    1       -5.266  -6.944  -2.805  0.00  0.00    +0.090 A 
BRANCH   9  11
ATOM     11  C   LIG    1       -7.302  -7.504  -4.148  0.00  0.00    +0.510 C 
ATOM     12  F   LIG    1       -7.012  -6.317  -4.829  0.00  0.00    -0.180 F 
ATOM     13  F   LIG    1       -8.667  -7.545  -3.843  0.00  0.00    -0.180 F 
ATOM     14  F   LIG    1       -6.972  -8.598  -4.956  0.00  0.00    -0.180 F 
ENDBRANCH   9  11
ENDBRANCH   4   5
ENDBRANCH   2   4
ENDBRANCH   1   2
BRANCH   1  15
ATOM     15  C   LIG    1       -2.531  -2.747  -0.494  0.00  0.00    +0.270 C 
BRANCH  15  17
ATOM     16  O   LIG    1       -0.185  -2.570  -0.682  0.00  0.00    -0.490 OA
ATOM     17  C   LIG    1       -1.221  -2.008  -0.396  0.00  0.00    +0.520 C 
ATOM     18  N   LIG    1       -1.201  -0.723   0.010  0.00  0.00    -0.680 N 
ATOM     19  H   LIG    1       -2.019  -0.296   0.309  0.00  0.00    +0.420 HD
BRANCH  18  20
ATOM     20  C   LIG    1        0.002  -0.004   0.000  0.00  0.00    +0.060 A 
ATOM     21  C   LIG    1        0.391   0.687  -1.141  0.00  0.00    +0.140 A 
ATOM     22  C   LIG    1        1.579   1.396  -1.147  0.00  0.00    -0.010 A 
ATOM     23  C   LIG    1        2.378   1.419  -0.019  0.00  0.00    +0.100 A 
ATOM     24  C   LIG    1        1.994   0.734   1.119  0.00  0.00    -0.010 A 
ATOM     25  F   LIG    1       -0.386   0.660  -2.246  0.00  0.00    -0.120 F 
ATOM     26  C   LIG    1        0.808   0.022   1.133  0.00  0.00    +0.140 A 
ATOM     27  F   LIG    1        0.433  -0.647   2.245  0.00  0.00    -0.120 F 
ENDBRANCH  18  20
ENDBRANCH  15  17
ENDBRANCH   1  15
TORSDOF 7
