REMARK  Name = ZINCrH000004r4Y1.0
REMARK                            x       y       z     vdW  Elec       q    Type
REMARK                         _______ _______ _______ _____ _____    ______ ____
ROOT
ATOM      1  C   LIG    1        2.335   4.050   0.021  0.00  0.00    +0.100 C 
ATOM      2  C   LIG    1        1.056   3.259  -0.089  0.00  0.00    +0.050 A 
ATOM      3  C   LIG    1       -0.158   3.919  -0.142  0.00  0.00    -0.010 A 
ATOM      4  C   LIG    1       -1.333   3.201  -0.244  0.00  0.00    +0.100 A 
ATOM      5  C   LIG    1       -1.292   1.807  -0.298  0.00  0.00    -0.160 A 
ATOM      6  C   LIG    1       -0.063   1.147  -0.238  0.00  0.00    +0.200 A 
ATOM      7  C   LIG    1        1.103   1.877  -0.137  0.00  0.00    -0.690 A 
ENDROOT
BRANCH   5   8
ATOM      8  C   LIG    1       -2.546   1.032  -0.413  0.00  0.00    +0.560 C 
ATOM      9  N   LIG    1       -3.731   1.671  -0.471  0.00  0.00    -0.720 N 
ATOM     10  H   LIG    1       -3.761   2.640  -0.437  0.00  0.00    +0.400 HD
ATOM     11  O   LIG    1       -2.508  -0.182  -0.455  0.00  0.00    -0.530 OA
BRANCH   9  12
ATOM     12  C   LIG    1       -4.973   0.903  -0.584  0.00  0.00    +0.320 C 
BRANCH  12  13
ATOM     13  C   LIG    1       -6.146   1.849  -0.630  0.00  0.00    -0.100 A 
ATOM     14  C   LIG    1       -6.769   2.234   0.542  0.00  0.00    +0.030 A 
ATOM     15  C   LIG    1       -7.841   3.105   0.501  0.00  0.00    +0.030 A 
ATOM     16  C   LIG    1       -8.298   3.583  -0.713  0.00  0.00    +0.040 A 
ATOM     17  C   LIG    1       -7.678   3.194  -1.887  0.00  0.00    -0.040 A 
ATOM     18 CL   LIG    1       -8.250   3.794  -3.412  0.00  0.00    -0.060 Cl
ATOM     19  C   LIG    1       -6.601   2.326  -1.845  0.00  0.00    +0.050 A 
ENDBRANCH  12  13
ENDBRANCH   9  12
ENDBRANCH   5   8
BRANCH   7  20
ATOM     20  S   LIG    1        2.656   1.047  -0.067  0.00  0.00    +2.690 S 
ATOM     21  O   LIG    1        2.369  -0.344  -0.092  0.00  0.00    -0.950 OA
ATOM     22  O   LIG    1        3.397   1.669   0.973  0.00  0.00    -0.950 OA
BRANCH  20  23
ATOM     23  N   LIG    1        3.455   1.384  -1.478  0.00  0.00    -0.990 NA
ATOM     24  C   LIG    1        3.200   0.594  -2.690  0.00  0.00    +0.290 C 
ATOM     25  C   LIG    1        2.836   1.555  -3.832  0.00  0.00    +0.010 C 
ATOM     26  C   LIG    1        3.943   2.600  -3.984  0.00  0.00    +0.020 C 
ATOM     27  C   LIG    1        4.064   3.411  -2.692  0.00  0.00    +0.010 C 
ATOM     28  C   LIG    1        4.438   2.475  -1.539  0.00  0.00    +0.290 C 
ENDBRANCH  20  23
ENDBRANCH   7  20
TORSDOF 5
