REMARK  Name = ZINCvU0000000Hhs.0
REMARK                            x       y       z     vdW  Elec       q    Type
REMARK                         _______ _______ _______ _____ _____    ______ ____
ROOT
ATOM      1  C   LIG    1        1.177   2.086   0.002  0.00  0.00    +0.170 A 
ATOM      2  C   LIG    1       -0.017   1.373   0.010  0.00  0.00    -0.020 A 
ATOM      3  C   LIG    1        0.002  -0.004   0.002  0.00  0.00    +0.140 A 
ATOM      4  C   LIG    1        1.223  -0.684  -0.013  0.00  0.00    -0.180 A 
ATOM      5  C   LIG    1        2.420   0.036  -0.021  0.00  0.00    +0.090 A 
ATOM      6  C   LIG    1        2.393   1.413  -0.013  0.00  0.00    -0.070 A 
ENDROOT
BRANCH   4   7
ATOM      7  C   LIG    1        1.248  -2.160  -0.021  0.00  0.00    +0.560 C 
ATOM      8  N   LIG    1        2.426  -2.814  -0.036  0.00  0.00    -0.630 N 
ATOM      9  H   LIG    1        3.257  -2.315  -0.041  0.00  0.00    +0.420 HD
ATOM     10  O   LIG    1        0.205  -2.785  -0.014  0.00  0.00    -0.470 OA
BRANCH   8  11
ATOM     11  C   LIG    1        2.449  -4.203  -0.043  0.00  0.00    +0.270 A 
ATOM     12  N   LIG    1        1.402  -4.961  -0.031  0.00  0.00    -0.470 NA
ATOM     13  C   LIG    1        1.592  -6.275  -0.045  0.00  0.00    +0.100 A 
ATOM     14  C   LIG    1        2.891  -6.622  -0.060  0.00  0.00    -0.240 A 
ATOM     15  C   LIG    1        3.413  -8.039  -0.071  0.00  0.00    +0.130 C 
ATOM     16  C   LIG    1        2.276  -8.983   0.337  0.00  0.00    -0.010 C 
ATOM     17  C   LIG    1        1.031  -8.649  -0.489  0.00  0.00    +0.030 C 
ATOM     18  C   LIG    1        2.692 -10.432   0.075  0.00  0.00    +0.030 C 
ATOM     19  C   LIG    1        0.468  -7.300  -0.040  0.00  0.00    +0.130 C 
ATOM     20  S   LIG    1        3.866  -5.158  -0.061  0.00  0.00    +0.120 S 
ENDBRANCH   8  11
ENDBRANCH   4   7
BRANCH   1  21
ATOM     21  O   LIG    1        1.154   3.443   0.009  0.00  0.00    -0.310 OA
BRANCH  21  22
ATOM     22  C   LIG    1        2.416   4.113   0.001  0.00  0.00    +0.330 C 
BRANCH  22  30
ATOM     23  C   LIG    1        4.627   9.237   0.006  0.00  0.00    +0.120 C 
ATOM     24  C   LIG    1        3.134   9.036   0.019  0.00  0.00    -0.040 A 
ATOM     25  C   LIG    1        2.296  10.107   0.033  0.00  0.00    +0.030 A 
ATOM     26  C   LIG    1        0.906   9.904   0.045  0.00  0.00    +0.020 A 
ATOM     27  C   LIG    1        0.401   8.652   0.044  0.00  0.00    +0.220 A 
ATOM     28  N   LIG    1        1.230   7.568   0.030  0.00  0.00    -0.360 N 
ATOM     29  C   LIG    1        0.992   6.221   0.021  0.00  0.00    +0.120 A 
ATOM     30  C   LIG    1        2.193   5.603   0.011  0.00  0.00    +0.050 A 
ATOM     31  N   LIG    1        3.151   6.534   0.006  0.00  0.00    -0.480 NA
ATOM     32  C   LIG    1        2.591   7.735   0.018  0.00  0.00    +0.230 A 
ENDBRANCH  22  30
ENDBRANCH  21  22
ENDBRANCH   1  21
TORSDOF 5
