REMARK  Name = ZINCpe00000zfMMs.0
REMARK                            x       y       z     vdW  Elec       q    Type
REMARK                         _______ _______ _______ _____ _____    ______ ____
ROOT
ATOM      1  C   LIG    1        1.852  -1.325  -2.024  0.00  0.00    +0.330 C 
ATOM      2  N   LIG    1        2.672  -0.142  -2.296  0.00  0.00    -0.480 N 
ATOM      3  C   LIG    1        2.949   0.885  -1.438  0.00  0.00    +0.180 A 
ATOM      4  N   LIG    1        3.714   1.726  -2.074  0.00  0.00    -0.270 NA
ATOM      5  N   LIG    1        3.933   1.306  -3.269  0.00  0.00    -0.310 NA
ATOM      6  C   LIG    1        3.314   0.165  -3.460  0.00  0.00    +0.350 A 
ENDROOT
BRANCH   6   7
ATOM      7  N   LIG    1        3.317  -0.589  -4.623  0.00  0.00    -0.440 N 
ATOM      8  C   LIG    1        3.873  -1.946  -4.377  0.00  0.00    +0.210 C 
ATOM      9  C   LIG    1        5.102  -2.055  -5.264  0.00  0.00    +0.190 C 
ATOM     10  N   LIG    1        5.485  -3.326  -5.816  0.00  0.00    -0.710 N 
ATOM     11  H   LIG    1        5.256  -4.146  -5.352  0.00  0.00    +0.400 HD
ATOM     12  C   LIG    1        6.151  -3.366  -6.987  0.00  0.00    +0.520 C 
ATOM     13  C   LIG    1        6.423  -2.185  -7.868  0.00  0.00    +0.090 C 
ATOM     14  C   LIG    1        6.027  -0.856  -7.204  0.00  0.00    +0.060 C 
ATOM     15  O   LIG    1        6.564  -4.445  -7.357  0.00  0.00    -0.550 OA
ATOM     16  C   LIG    1        4.737  -1.115  -6.448  0.00  0.00    -0.020 C 
ATOM     17  C   LIG    1        4.137   0.067  -5.683  0.00  0.00    +0.250 C 
ENDBRANCH   6   7
BRANCH   3  18
ATOM     18  C   LIG    1        2.465   1.017  -0.017  0.00  0.00    +0.250 C 
BRANCH  18  19
ATOM     19  C   LIG    1        1.154   1.761   0.001  0.00  0.00    -0.190 A 
ATOM     20  C   LIG    1       -0.013   1.076   0.008  0.00  0.00    +0.320 A 
ATOM     21  N   LIG    1       -1.202   1.731   0.017  0.00  0.00    -0.600 N 
ATOM     22  H   LIG    1       -2.029   1.224   0.018  0.00  0.00    +0.420 HD
ATOM     23  C   LIG    1       -1.246   3.077   0.030  0.00  0.00    +0.520 A 
ATOM     24  C   LIG    1       -0.052   3.821   0.023  0.00  0.00    -0.160 A 
ATOM     25 CL   LIG    1       -0.099   5.556   0.032  0.00  0.00    -0.020 Cl
ATOM     26  O   LIG    1       -2.323   3.652   0.044  0.00  0.00    -0.520 OA
ATOM     27  C   LIG    1        1.143   3.163   0.008  0.00  0.00    +0.160 A 
ENDBRANCH  18  19
ENDBRANCH   3  18
TORSDOF 3
