REMARK  Name = ZINCzw00000006SM.1
REMARK                            x       y       z     vdW  Elec       q    Type
REMARK                         _______ _______ _______ _____ _____    ______ ____
ROOT
ATOM      1  N   LIG    1       -2.321   5.585   0.356  0.00  0.00    -0.520 NA
ATOM      2  C   LIG    1       -1.614   5.909   1.603  0.00  0.00    +0.180 C 
ATOM      3  C   LIG    1       -1.215   7.388   1.590  0.00  0.00    +0.290 C 
ATOM      4  N   LIG    1       -2.417   8.194   1.328  0.00  0.00    -0.590 N 
ATOM      5  C   LIG    1       -3.254   7.841   0.171  0.00  0.00    +0.320 C 
ATOM      6  C   LIG    1       -2.744   9.229   2.128  0.00  0.00    +0.500 C 
ATOM      7  O   LIG    1       -3.738   9.883   1.897  0.00  0.00    -0.530 OA
ATOM      8  C   LIG    1       -3.573   6.344   0.240  0.00  0.00    +0.190 C 
ENDROOT
BRANCH   1   9
ATOM      9  C   LIG    1       -2.569   4.140   0.252  0.00  0.00    +0.230 C 
BRANCH   9  12
ATOM     10  N   LIG    1       -1.237   2.069   0.019  0.00  0.00    -0.670 N 
ATOM     11  H   LIG    1       -2.070   1.577  -0.048  0.00  0.00    +0.410 HD
ATOM     12  C   LIG    1       -1.255   3.412   0.128  0.00  0.00    +0.510 C 
ATOM     13  O   LIG    1       -0.215   4.035   0.127  0.00  0.00    -0.500 OA
BRANCH  10  18
ATOM     14  C   LIG    1        3.707  -0.712  -0.067  0.00  0.00    +0.090 C 
ATOM     15  C   LIG    1        2.394   0.028  -0.042  0.00  0.00    -0.090 A 
ATOM     16  C   LIG    1        1.294  -0.541   0.573  0.00  0.00    +0.030 A 
ATOM     17  C   LIG    1        0.089   0.135   0.596  0.00  0.00    -0.010 A 
ATOM     18  C   LIG    1       -0.017   1.385   0.002  0.00  0.00    +0.130 A 
ATOM     19  C   LIG    1        1.091   1.953  -0.615  0.00  0.00    +0.030 A 
ATOM     20  C   LIG    1        2.293   1.273  -0.635  0.00  0.00    +0.030 A 
ENDBRANCH  10  18
ENDBRANCH   9  12
ENDBRANCH   1   9
BRANCH   6  21
ATOM     21  C   LIG    1       -1.872   9.573   3.308  0.00  0.00    +0.290 C 
BRANCH  21  22
ATOM     22  N   LIG    1       -2.438  10.731   4.013  0.00  0.00    -0.380 N 
ATOM     23  C   LIG    1       -2.364  11.924   3.150  0.00  0.00    +0.270 C 
ATOM     24  C   LIG    1       -1.523  12.979   3.894  0.00  0.00    +0.080 C 
ATOM     25  C   LIG    1       -1.641  12.537   5.377  0.00  0.00    +0.090 C 
ATOM     26  C   LIG    1       -1.660  10.994   5.243  0.00  0.00    +0.230 C 
ATOM     27  H   LIG    1       -3.401  10.545   4.254  0.00  0.00    +0.430 HD
BRANCH  26  28
ATOM     28  C   LIG    1       -2.337  10.370   6.436  0.00  0.00    -0.140 A 
ATOM     29  C   LIG    1       -3.713  10.423   6.554  0.00  0.00    +0.010 A 
ATOM     30  C   LIG    1       -4.338   9.847   7.645  0.00  0.00    +0.050 A 
ATOM     31  C   LIG    1       -3.585   9.225   8.629  0.00  0.00    +0.080 A 
ATOM     32  O   LIG    1       -4.214   8.671   9.701  0.00  0.00    -0.300 OA
ATOM     33  C   LIG    1       -3.459   7.732  10.475  0.00  0.00    +0.240 C 
ATOM     34  C   LIG    1       -2.067   8.327  10.729  0.00  0.00    +0.240 C 
ATOM     35  O   LIG    1       -1.443   8.564   9.463  0.00  0.00    -0.300 OA
ATOM     36  C   LIG    1       -2.201   9.175   8.511  0.00  0.00    +0.070 A 
ATOM     37  C   LIG    1       -1.580   9.750   7.413  0.00  0.00    +0.070 A 
ENDBRANCH  26  28
ENDBRANCH  21  22
ENDBRANCH   6  21
TORSDOF 6
