REMARK  Name = ZINCzw00000006SM.2
REMARK                            x       y       z     vdW  Elec       q    Type
REMARK                         _______ _______ _______ _____ _____    ______ ____
ROOT
ATOM      1  N   LIG    1        4.173   6.233  -3.033  0.00  0.00    -0.520 NA
ATOM      2  C   LIG    1        3.139   6.952  -3.789  0.00  0.00    +0.180 C 
ATOM      3  C   LIG    1        2.860   8.299  -3.114  0.00  0.00    +0.300 C 
ATOM      4  N   LIG    1        4.133   9.018  -2.961  0.00  0.00    -0.590 N 
ATOM      5  C   LIG    1        5.261   8.313  -2.334  0.00  0.00    +0.320 C 
ATOM      6  C   LIG    1        4.264  10.291  -3.386  0.00  0.00    +0.500 C 
ATOM      7  O   LIG    1        5.322  10.869  -3.253  0.00  0.00    -0.530 OA
ATOM      8  C   LIG    1        5.446   6.965  -3.041  0.00  0.00    +0.190 C 
ENDROOT
BRANCH   1   9
ATOM      9  C   LIG    1        4.347   4.868  -3.546  0.00  0.00    +0.230 C 
BRANCH   9  12
ATOM     10  N   LIG    1        3.021   2.785  -3.687  0.00  0.00    -0.670 N 
ATOM     11  H   LIG    1        3.800   2.350  -4.067  0.00  0.00    +0.410 HD
ATOM     12  C   LIG    1        3.091   4.073  -3.297  0.00  0.00    +0.510 C 
ATOM     13  O   LIG    1        2.144   4.593  -2.746  0.00  0.00    -0.500 OA
BRANCH  10  18
ATOM     14  C   LIG    1       -1.839  -0.085  -3.115  0.00  0.00    +0.090 C 
ATOM     15  C   LIG    1       -0.546   0.675  -3.265  0.00  0.00    -0.090 A 
ATOM     16  C   LIG    1        0.273   0.435  -4.353  0.00  0.00    +0.030 A 
ATOM     17  C   LIG    1        1.455   1.134  -4.497  0.00  0.00    -0.010 A 
ATOM     18  C   LIG    1        1.823   2.075  -3.545  0.00  0.00    +0.130 A 
ATOM     19  C   LIG    1        1.001   2.311  -2.451  0.00  0.00    +0.030 A 
ATOM     20  C   LIG    1       -0.180   1.608  -2.313  0.00  0.00    +0.030 A 
ENDBRANCH  10  18
ENDBRANCH   9  12
ENDBRANCH   1   9
BRANCH   6  21
ATOM     21  C   LIG    1        3.096  10.995  -4.026  0.00  0.00    +0.290 C 
BRANCH  21  22
ATOM     22  N   LIG    1        3.491  12.360  -4.398  0.00  0.00    -0.370 N 
ATOM     23  C   LIG    1        4.502  12.309  -5.476  0.00  0.00    +0.260 C 
ATOM     24  C   LIG    1        4.179  13.526  -6.379  0.00  0.00    +0.080 C 
ATOM     25  C   LIG    1        2.629  13.546  -6.336  0.00  0.00    +0.080 C 
ATOM     26  C   LIG    1        2.316  13.099  -4.896  0.00  0.00    +0.230 C 
ATOM     27  H   LIG    1        3.875  12.834  -3.595  0.00  0.00    +0.430 HD
BRANCH  26  28
ATOM     28  C   LIG    1        1.106  12.201  -4.890  0.00  0.00    -0.150 A 
ATOM     29  C   LIG    1        1.011  11.165  -5.800  0.00  0.00    +0.030 A 
ATOM     30  C   LIG    1       -0.096  10.336  -5.795  0.00  0.00    +0.040 A 
ATOM     31  C   LIG    1       -1.119  10.549  -4.883  0.00  0.00    +0.090 A 
ATOM     32  O   LIG    1       -2.206   9.730  -4.896  0.00  0.00    -0.300 OA
ATOM     33  C   LIG    1       -3.033   9.742  -3.728  0.00  0.00    +0.240 C 
ATOM     34  C   LIG    1       -3.281  11.203  -3.329  0.00  0.00    +0.240 C 
ATOM     35  O   LIG    1       -2.015  11.816  -3.063  0.00  0.00    -0.300 OA
ATOM     36  C   LIG    1       -1.025  11.593  -3.970  0.00  0.00    +0.060 A 
ATOM     37  C   LIG    1        0.090  12.418  -3.978  0.00  0.00    +0.060 A 
ENDBRANCH  26  28
ENDBRANCH  21  22
ENDBRANCH   6  21
TORSDOF 6
