REMARK  Name = ZINCpe000000Y2dH.0
REMARK                            x       y       z     vdW  Elec       q    Type
REMARK                         _______ _______ _______ _____ _____    ______ ____
ROOT
ATOM      1  C   LIG    1       -1.504  -2.084   5.147  0.00  0.00    +0.190 C 
ATOM      2  C   LIG    1       -2.250  -0.785   4.988  0.00  0.00    +0.410 A 
ATOM      3  N   LIG    1       -2.892  -0.295   6.029  0.00  0.00    -0.510 NA
ATOM      4  C   LIG    1       -3.569   0.852   5.944  0.00  0.00    +0.230 A 
ATOM      5  C   LIG    1       -3.578   1.523   4.712  0.00  0.00    -0.310 A 
ATOM      6  C   LIG    1       -4.287   2.789   4.505  0.00  0.00    +0.570 A 
ATOM      7  N   LIG    1       -4.234   3.355   3.278  0.00  0.00    -0.560 N 
ATOM      8  C   LIG    1       -3.551   2.777   2.276  0.00  0.00    +0.710 A 
ATOM      9  N   LIG    1       -2.886   1.618   2.419  0.00  0.00    -0.520 N 
ATOM     10  O   LIG    1       -3.534   3.327   1.192  0.00  0.00    -0.520 OA
ATOM     11  C   LIG    1       -4.932   4.620   3.038  0.00  0.00    +0.360 C 
ATOM     12  O   LIG    1       -4.907   3.314   5.410  0.00  0.00    -0.470 OA
ATOM     13  C   LIG    1       -2.881   0.956   3.628  0.00  0.00    +0.470 A 
ATOM     14  N   LIG    1       -2.233  -0.186   3.812  0.00  0.00    -0.550 NA
ENDROOT
BRANCH   9  15
ATOM     15  C   LIG    1       -2.164   1.050   1.278  0.00  0.00    +0.330 C 
BRANCH  15  16
ATOM     16  C   LIG    1       -0.729   1.579   1.267  0.00  0.00    -0.040 C 
ATOM     17  C   LIG    1        0.011   1.072   2.506  0.00  0.00    +0.020 C 
ATOM     18  C   LIG    1       -0.013   1.086   0.008  0.00  0.00    +0.040 C 
ENDBRANCH  15  16
ENDBRANCH   9  15
BRANCH   4  19
ATOM     19  S   LIG    1       -4.426   1.504   7.339  0.00  0.00    +0.120 S 
BRANCH  19  20
ATOM     20  C   LIG    1       -4.045   0.230   8.566  0.00  0.00    -0.050 C 
ATOM     21  C   LIG    1       -4.740   0.552   9.909  0.00  0.00    +0.080 C 
ATOM     22  C   LIG    1       -3.603   0.311  10.928  0.00  0.00    +0.270 C 
ATOM     23  O   LIG    1       -2.380   0.554  10.174  0.00  0.00    -0.340 OA
ATOM     24  C   LIG    1       -2.566   0.232   8.886  0.00  0.00    +0.490 C 
ATOM     25  O   LIG    1       -1.685  -0.018   8.098  0.00  0.00    -0.420 OA
ENDBRANCH  19  20
ENDBRANCH   4  19
TORSDOF 4
