REMARK  Name = ZINCpe00000gNeui.0
REMARK                            x       y       z     vdW  Elec       q    Type
REMARK                         _______ _______ _______ _____ _____    ______ ____
ROOT
ATOM      1  O   LIG    1        4.043   1.793   1.956  0.00  0.00    -0.530 OA
ATOM      2  C   LIG    1        3.402   1.256   1.074  0.00  0.00    +0.560 C 
ATOM      3  N   LIG    1        2.094   0.988   1.260  0.00  0.00    -0.710 N 
ATOM      4  H   LIG    1        1.583   0.559   0.556  0.00  0.00    +0.400 HD
ENDROOT
BRANCH   2   5
ATOM      5  C   LIG    1        4.056   0.898  -0.200  0.00  0.00    -0.130 A 
ATOM      6  C   LIG    1        3.322   0.276  -1.212  0.00  0.00    +0.070 A 
ATOM      7  C   LIG    1        3.933  -0.054  -2.403  0.00  0.00    +0.030 A 
ATOM      8  C   LIG    1        5.279   0.222  -2.597  0.00  0.00    +0.060 A 
ATOM      9  O   LIG    1        6.101  -0.005  -3.661  0.00  0.00    -0.300 OA
ATOM     10  C   LIG    1        7.244   0.845  -3.454  0.00  0.00    +0.440 C 
ATOM     11  O   LIG    1        7.303   0.997  -2.023  0.00  0.00    -0.300 OA
ATOM     12  C   LIG    1        6.019   0.839  -1.587  0.00  0.00    +0.020 A 
ATOM     13  C   LIG    1        5.412   1.176  -0.394  0.00  0.00    +0.110 A 
ENDBRANCH   2   5
BRANCH   3  14
ATOM     14  C   LIG    1        1.446   1.343   2.524  0.00  0.00    +0.280 C 
BRANCH  14  15
ATOM     15  C   LIG    1       -0.053   1.048   2.429  0.00  0.00    +0.180 C 
BRANCH  15  16
ATOM     16  N   LIG    1       -0.652   1.891   1.386  0.00  0.00    -0.530 NA
ATOM     17  C   LIG    1       -0.730   3.293   1.821  0.00  0.00    +0.150 C 
ATOM     18  C   LIG    1       -1.304   4.144   0.685  0.00  0.00    +0.220 C 
ATOM     19  O   LIG    1       -2.581   3.623   0.305  0.00  0.00    -0.380 OA
ATOM     20  C   LIG    1       -2.542   2.260  -0.126  0.00  0.00    +0.220 C 
ATOM     21  C   LIG    1       -1.980   1.390   1.002  0.00  0.00    +0.150 C 
ENDBRANCH  15  16
BRANCH  15  22
ATOM     22  C   LIG    1       -0.718   1.351   3.774  0.00  0.00    -0.060 C 
ATOM     23  C   LIG    1       -0.004   0.600   4.924  0.00  0.00    +0.010 C 
ATOM     24  C   LIG    1       -1.154   0.102   5.821  0.00  0.00    +0.200 C 
ATOM     25  O   LIG    1       -2.382   0.579   5.245  0.00  0.00    -0.380 OA
ATOM     26  C   LIG    1       -2.146   0.751   3.831  0.00  0.00    +0.210 C 
ENDBRANCH  15  22
ENDBRANCH  14  15
ENDBRANCH   3  14
TORSDOF 5
