REMARK  Name = ZINCqH0000005dyg.0
REMARK                            x       y       z     vdW  Elec       q    Type
REMARK                         _______ _______ _______ _____ _____    ______ ____
ROOT
ATOM      1  C   LIG    1        4.977   5.551   2.625  0.00  0.00    +0.290 C 
ATOM      2  N   LIG    1        4.735   4.317   1.873  0.00  0.00    -0.630 N 
ATOM      3  C   LIG    1        5.688   3.828   1.055  0.00  0.00    +0.710 C 
ATOM      4  N   LIG    1        6.864   4.474   0.929  0.00  0.00    -0.740 N 
ATOM      5  H   LIG    1        7.024   5.291   1.427  0.00  0.00    +0.400 HD
ATOM      6  O   LIG    1        5.487   2.804   0.431  0.00  0.00    -0.570 OA
ENDROOT
BRANCH   4   7
ATOM      7  C   LIG    1        7.900   3.943   0.041  0.00  0.00    +0.310 C 
ATOM      8  C   LIG    1        9.275   4.427   0.506  0.00  0.00    +0.040 C 
ATOM      9  C   LIG    1       10.366   3.473   0.060  0.00  0.00    -0.060 C 
ATOM     10  C   LIG    1       10.599   3.442  -1.437  0.00  0.00    +0.040 C 
ATOM     11  C   LIG    1        9.402   2.825  -2.165  0.00  0.00    +0.060 C 
ATOM     12  C   LIG    1        8.379   3.915  -2.415  0.00  0.00    -0.070 A 
ATOM     13  C   LIG    1        8.170   4.370  -3.704  0.00  0.00    +0.000 A 
ATOM     14  C   LIG    1        7.236   5.364  -3.935  0.00  0.00    +0.000 A 
ATOM     15  C   LIG    1        6.518   5.898  -2.881  0.00  0.00    -0.010 A 
ATOM     16  C   LIG    1        6.732   5.438  -1.594  0.00  0.00    +0.020 A 
ATOM     17  C   LIG    1        9.994   2.062   0.522  0.00  0.00    +0.030 C 
ATOM     18  C   LIG    1       11.673   3.874   0.747  0.00  0.00    +0.040 C 
ATOM     19  C   LIG    1        7.668   4.444  -1.370  0.00  0.00    -0.090 A 
ENDBRANCH   4   7
BRANCH   2  20
ATOM     20  C   LIG    1        3.456   3.615   2.010  0.00  0.00    +0.320 C 
BRANCH  20  21
ATOM     21  C   LIG    1        2.470   4.142   0.966  0.00  0.00    +0.090 C 
BRANCH  21  22
ATOM     22  C   LIG    1        1.155   3.420   1.107  0.00  0.00    +0.080 A 
ATOM     23  C   LIG    1       -0.013   4.139   1.285  0.00  0.00    +0.220 A 
ATOM     24  N   LIG    1       -1.167   3.505   1.409  0.00  0.00    -0.440 NA
ATOM     25  C   LIG    1       -1.204   2.186   1.357  0.00  0.00    +0.210 A 
ATOM     26  C   LIG    1       -0.035   1.466   1.183  0.00  0.00    +0.230 A 
ATOM     27  N   LIG    1        1.118   2.100   1.059  0.00  0.00    -0.430 NA
ENDBRANCH  21  22
ENDBRANCH  20  21
ENDBRANCH   2  20
TORSDOF 4
