REMARK  Name = ZINCkj00000GeSO1.0
REMARK                            x       y       z     vdW  Elec       q    Type
REMARK                         _______ _______ _______ _____ _____    ______ ____
ROOT
ATOM      1  N   LIG    1       -7.118   1.175   4.547  0.00  0.00    -0.340 N 
ATOM      2  C   LIG    1       -6.378   0.720   5.686  0.00  0.00    +0.250 C 
ATOM      3  C   LIG    1       -7.146   0.648   6.970  0.00  0.00    +0.000 C 
ATOM      4  C   LIG    1       -8.071   1.820   7.218  0.00  0.00    +0.040 C 
ATOM      5  C   LIG    1       -9.445   1.664   6.590  0.00  0.00    -0.010 C 
ATOM      6  C   LIG    1       -9.409   1.821   5.074  0.00  0.00    +0.070 C 
ATOM      7  C   LIG    1      -10.051   0.301   6.930  0.00  0.00    +0.050 C 
ATOM      8  C   LIG    1       -9.096  -0.781   6.423  0.00  0.00    +0.000 C 
ATOM      9  C   LIG    1       -8.809  -0.626   4.945  0.00  0.00    +0.070 C 
ATOM     10  C   LIG    1       -7.797  -0.691   7.229  0.00  0.00    +0.040 C 
ATOM     11  C   LIG    1       -8.494   0.761   4.469  0.00  0.00    +0.150 C 
ATOM     12  H   LIG    1       -7.095   2.184   4.542  0.00  0.00    +0.430 HD
ENDROOT
BRANCH   1  13
ATOM     13  C   LIG    1       -6.431   0.702   3.338  0.00  0.00    +0.300 C 
BRANCH  13  19
ATOM     14  N   LIG    1       -2.103   1.072   1.277  0.00  0.00    -0.730 N 
ATOM     15  H   LIG    1       -2.420   0.514   0.550  0.00  0.00    +0.400 HD
ATOM     16  C   LIG    1       -2.928   1.381   2.298  0.00  0.00    +0.690 C 
ATOM     17  N   LIG    1       -4.192   0.914   2.307  0.00  0.00    -0.680 N 
ATOM     18  H   LIG    1       -4.509   0.356   1.580  0.00  0.00    +0.420 HD
ATOM     19  C   LIG    1       -5.017   1.223   3.328  0.00  0.00    +0.510 C 
ATOM     20  O   LIG    1       -4.621   1.921   4.237  0.00  0.00    -0.450 OA
ATOM     21  O   LIG    1       -2.531   2.080   3.209  0.00  0.00    -0.520 OA
BRANCH  14  23
ATOM     22  C   LIG    1       -0.013   1.086   0.008  0.00  0.00    +0.050 C 
ATOM     23  C   LIG    1       -0.729   1.579   1.267  0.00  0.00    +0.290 C 
ENDBRANCH  14  23
ENDBRANCH  13  19
ENDBRANCH   1  13
TORSDOF 3
