REMARK  Name = ZINCkj00000GeSO1.1
REMARK                            x       y       z     vdW  Elec       q    Type
REMARK                         _______ _______ _______ _____ _____    ______ ____
ROOT
ATOM      1  N   LIG    1       -3.611   1.792   0.029  0.00  0.00    -0.340 N 
ATOM      2  C   LIG    1       -3.595   2.529  -1.202  0.00  0.00    +0.240 C 
ATOM      3  C   LIG    1       -4.897   3.147  -1.623  0.00  0.00    +0.000 C 
ATOM      4  C   LIG    1       -5.655   2.200  -2.551  0.00  0.00    +0.040 C 
ATOM      5  C   LIG    1       -6.361   1.132  -1.724  0.00  0.00    -0.010 C 
ATOM      6  C   LIG    1       -5.388   0.311  -0.894  0.00  0.00    +0.070 C 
ATOM      7  C   LIG    1       -7.403   1.788  -0.863  0.00  0.00    +0.040 C 
ATOM      8  C   LIG    1       -6.673   2.665   0.156  0.00  0.00    +0.000 C 
ATOM      9  C   LIG    1       -5.857   1.757   1.080  0.00  0.00    +0.070 C 
ATOM     10  C   LIG    1       -5.769   3.673  -0.522  0.00  0.00    +0.040 C 
ATOM     11  C   LIG    1       -4.811   1.050   0.291  0.00  0.00    +0.130 C 
ATOM     12  H   LIG    1       -3.473   2.442   0.788  0.00  0.00    +0.430 HD
ENDROOT
BRANCH   1  13
ATOM     13  C   LIG    1       -2.482   0.853   0.018  0.00  0.00    +0.300 C 
BRANCH  13  19
ATOM     14  N   LIG    1        2.323   0.998  -0.015  0.00  0.00    -0.730 N 
ATOM     15  H   LIG    1        2.336   0.028  -0.020  0.00  0.00    +0.400 HD
ATOM     16  C   LIG    1        1.147   1.655   0.000  0.00  0.00    +0.690 C 
ATOM     17  N   LIG    1       -0.011   0.966   0.007  0.00  0.00    -0.680 N 
ATOM     18  H   LIG    1        0.002  -0.004   0.002  0.00  0.00    +0.420 HD
ATOM     19  C   LIG    1       -1.187   1.624   0.017  0.00  0.00    +0.510 C 
ATOM     20  O   LIG    1       -1.204   2.836   0.023  0.00  0.00    -0.450 OA
ATOM     21  O   LIG    1        1.130   2.871   0.007  0.00  0.00    -0.520 OA
BRANCH  14  23
ATOM     22  C   LIG    1        4.758   0.769  -0.039  0.00  0.00    +0.050 C 
ATOM     23  C   LIG    1        3.582   1.747  -0.023  0.00  0.00    +0.290 C 
ENDBRANCH  14  23
ENDBRANCH  13  19
ENDBRANCH   1  13
TORSDOF 3
