REMARK  Name = ZINCtV000002EBpg.0
REMARK                            x       y       z     vdW  Elec       q    Type
REMARK                         _______ _______ _______ _____ _____    ______ ____
ROOT
ATOM      1  S   LIG    1        0.148   0.978   2.736  0.00  0.00    +0.070 S 
ENDROOT
BRANCH   1   2
ATOM      2  C   LIG    1        1.706   1.796   2.631  0.00  0.00    +0.140 A 
ATOM      3  N   LIG    1        2.086   2.627   1.686  0.00  0.00    -0.240 NA
ATOM      4  N   LIG    1        3.281   3.045   1.915  0.00  0.00    -0.240 NA
ATOM      5  C   LIG    1        3.740   2.495   3.024  0.00  0.00    +0.210 A 
ATOM      6  C   LIG    1        4.961   2.594   3.723  0.00  0.00    +0.010 A 
ATOM      7  C   LIG    1        5.130   1.880   4.868  0.00  0.00    +0.120 A 
ATOM      8  C   LIG    1        4.090   1.056   5.340  0.00  0.00    -0.190 A 
ATOM      9  C   LIG    1        2.927   0.969   4.664  0.00  0.00    +0.340 A 
ATOM     10 CL   LIG    1        6.234   3.614   3.129  0.00  0.00    +0.010 Cl
ATOM     11  N   LIG    1        2.740   1.680   3.511  0.00  0.00    -0.380 N 
BRANCH   8  12
ATOM     12  C   LIG    1        4.279   0.265   6.609  0.00  0.00    +0.530 C 
ATOM     13  F   LIG    1        3.031   0.000   7.183  0.00  0.00    -0.170 F 
ATOM     14  F   LIG    1        5.058   1.003   7.507  0.00  0.00    -0.160 F 
ATOM     15  F   LIG    1        4.923  -0.941   6.315  0.00  0.00    -0.160 F 
ENDBRANCH   8  12
ENDBRANCH   1   2
BRANCH   1  17
ATOM     16  C   LIG    1       -0.013   1.086   0.008  0.00  0.00    +0.090 C 
ATOM     17  C   LIG    1       -0.729   1.579   1.267  0.00  0.00    +0.000 C 
BRANCH  17  18
ATOM     18  C   LIG    1       -2.143   1.058   1.278  0.00  0.00    +0.420 C 
ATOM     19  O   LIG    1       -2.408   0.037   1.877  0.00  0.00    -0.430 OA
BRANCH  18  20
ATOM     20  C   LIG    1       -3.201   1.786   0.560  0.00  0.00    -0.170 A 
ATOM     21  C   LIG    1       -2.900   2.966  -0.127  0.00  0.00    +0.060 A 
ATOM     22  C   LIG    1       -3.897   3.640  -0.801  0.00  0.00    +0.010 A 
ATOM     23  C   LIG    1       -5.194   3.158  -0.789  0.00  0.00    -0.030 A 
ATOM     24  C   LIG    1       -5.501   1.994  -0.106  0.00  0.00    +0.000 A 
ATOM     25  C   LIG    1       -4.514   1.306   0.568  0.00  0.00    +0.090 A 
BRANCH  23  26
ATOM     26  C   LIG    1       -6.278   3.905  -1.522  0.00  0.00    -0.040 C 
ATOM     27  C   LIG    1       -6.889   2.997  -2.591  0.00  0.00    +0.040 C 
ATOM     28  C   LIG    1       -5.681   5.146  -2.188  0.00  0.00    +0.030 C 
ATOM     29  C   LIG    1       -7.364   4.329  -0.532  0.00  0.00    +0.040 C 
ENDBRANCH  23  26
ENDBRANCH  18  20
ENDBRANCH  17  18
ENDBRANCH   1  17
TORSDOF 6
