REMARK  Name = ZINCpe000027pHlU.0
REMARK                            x       y       z     vdW  Elec       q    Type
REMARK                         _______ _______ _______ _____ _____    ______ ____
ROOT
ATOM      1  C   LIG    1        3.608  -2.773   3.334  0.00  0.00    +0.500 C 
ATOM      2  O   LIG    1        4.678  -3.221   2.968  0.00  0.00    -0.550 OA
ENDROOT
BRANCH   1   3
ATOM      3  N   LIG    1        3.105  -1.691   2.749  0.00  0.00    -0.680 NA
ATOM      4  C   LIG    1        3.774  -1.096   1.761  0.00  0.00    +0.490 A 
ATOM      5  C   LIG    1        5.017  -1.498   1.232  0.00  0.00    -0.110 A 
ATOM      6  C   LIG    1        5.356  -0.638   0.246  0.00  0.00    +0.350 A 
ATOM      7  N   LIG    1        4.372   0.297   0.120  0.00  0.00    -0.480 N 
ATOM      8  H   LIG    1        4.363   1.029  -0.517  0.00  0.00    +0.450 HD
ATOM      9  N   LIG    1        3.379   0.022   1.069  0.00  0.00    -0.370 N 
BRANCH   9  10
ATOM     10  C   LIG    1        2.144   0.783   1.280  0.00  0.00    +0.320 C 
ATOM     11  C   LIG    1        2.492   2.224   1.658  0.00  0.00    +0.040 C 
BRANCH  10  12
ATOM     12  C   LIG    1        1.317   0.779  -0.006  0.00  0.00    -0.080 C 
ATOM     13  C   LIG    1       -0.019   1.526   0.010  0.00  0.00    +0.040 C 
ATOM     14  C   LIG    1        0.002  -0.004   0.002  0.00  0.00    +0.030 C 
ENDBRANCH  10  12
ENDBRANCH   9  10
ENDBRANCH   1   3
BRANCH   1  15
ATOM     15  C   LIG    1        2.853  -3.446   4.451  0.00  0.00    +0.250 C 
BRANCH  15  21
ATOM     16  C   LIG    1        5.774  -7.443   6.870  0.00  0.00    +0.180 A 
ATOM     17  N   LIG    1        6.904  -6.790   6.976  0.00  0.00    -0.300 NA
ATOM     18  N   LIG    1        6.754  -5.585   6.543  0.00  0.00    -0.290 NA
ATOM     19  C   LIG    1        5.531  -5.418   6.144  0.00  0.00    +0.190 A 
ATOM     20  C   LIG    1        4.877  -4.193   5.558  0.00  0.00    +0.330 C 
ATOM     21  N   LIG    1        3.613  -4.610   4.925  0.00  0.00    -0.530 NA
ATOM     22  C   LIG    1        2.805  -5.431   5.838  0.00  0.00    +0.200 C 
ATOM     23  C   LIG    1        3.465  -6.804   6.022  0.00  0.00    +0.310 C 
ATOM     24  N   LIG    1        4.876  -6.593   6.344  0.00  0.00    -0.470 N 
BRANCH  16  26
ATOM     25  C   LIG    1        5.073  -8.933   8.724  0.00  0.00    +0.030 C 
ATOM     26  C   LIG    1        5.528  -8.877   7.264  0.00  0.00    +0.140 C 
ENDBRANCH  16  26
ENDBRANCH  15  21
ENDBRANCH   1  15
TORSDOF 6
