REMARK  Name = ZINCrD000000fCtq.0
REMARK                            x       y       z     vdW  Elec       q    Type
REMARK                         _______ _______ _______ _____ _____    ______ ____
ROOT
ATOM      1  S   LIG    1        2.427  -0.538   0.313  0.00  0.00    +2.690 S 
ATOM      2  O   LIG    1        1.327  -0.799   1.174  0.00  0.00    -0.940 OA
ATOM      3  O   LIG    1        3.771  -0.852   0.652  0.00  0.00    -0.940 OA
ENDROOT
BRANCH   1  11
ATOM      4  C   LIG    1        0.441  -4.499  -6.739  0.00  0.00    +0.110 C 
ATOM      5  C   LIG    1        0.369  -3.793  -5.410  0.00  0.00    +0.520 C 
ATOM      6  N   LIG    1        1.499  -3.368  -4.811  0.00  0.00    -0.560 N 
ATOM      7  C   LIG    1        2.851  -3.533  -5.353  0.00  0.00    +0.280 C 
ATOM      8  C   LIG    1        3.784  -2.889  -4.314  0.00  0.00    +0.110 C 
ATOM      9  C   LIG    1        2.857  -2.393  -3.227  0.00  0.00    -0.160 A 
ATOM     10  C   LIG    1        3.123  -1.734  -2.042  0.00  0.00    +0.170 A 
ATOM     11  C   LIG    1        2.087  -1.379  -1.198  0.00  0.00    -0.700 A 
ATOM     12  C   LIG    1        0.784  -1.689  -1.540  0.00  0.00    +0.160 A 
ATOM     13  C   LIG    1        0.514  -2.342  -2.724  0.00  0.00    +0.000 A 
ATOM     14  C   LIG    1        1.554  -2.704  -3.581  0.00  0.00    +0.210 A 
ATOM     15  O   LIG    1       -0.705  -3.609  -4.878  0.00  0.00    -0.510 OA
ENDBRANCH   1  11
BRANCH   1  16
ATOM     16  N   LIG    1        2.393   1.085  -0.011  0.00  0.00    -0.940 N 
ATOM     17  C   LIG    1        3.634   1.814  -0.306  0.00  0.00    +0.290 C 
ATOM     18  C   LIG    1        3.606   3.128   0.487  0.00  0.00    +0.030 C 
ATOM     19  C   LIG    1        2.434   3.977  -0.006  0.00  0.00    +0.080 C 
ATOM     20  C   LIG    1        1.161   3.172  -0.001  0.00  0.00    -0.120 A 
ATOM     21  C   LIG    1       -0.052   3.838   0.008  0.00  0.00    -0.050 A 
ATOM     22  C   LIG    1       -1.238   3.127   0.008  0.00  0.00    -0.020 A 
ATOM     23  C   LIG    1       -1.219   1.745  -0.007  0.00  0.00    -0.050 A 
ATOM     24  C   LIG    1       -0.013   1.073  -0.008  0.00  0.00    -0.040 A 
ATOM     25  C   LIG    1       -2.513   0.972  -0.015  0.00  0.00    +0.100 C 
ATOM     26  C   LIG    1       -0.081   5.344   0.019  0.00  0.00    +0.090 C 
ATOM     27  C   LIG    1        1.181   1.785  -0.008  0.00  0.00    +0.190 A 
ENDBRANCH   1  16
TORSDOF 2
