REMARK  Name = ZINCkj00000dDX5W.1
REMARK                            x       y       z     vdW  Elec       q    Type
REMARK                         _______ _______ _______ _____ _____    ______ ____
ROOT
ATOM      1  N   LIG    1       -1.101   2.144   0.019  0.00  0.00    -0.660 NA
ATOM      2  C   LIG    1       -0.017   1.369   0.010  0.00  0.00    +0.490 A 
ATOM      3  C   LIG    1        1.324   1.806  -0.001  0.00  0.00    -0.070 A 
ATOM      4  C   LIG    1        2.124   0.717  -0.014  0.00  0.00    +0.350 A 
ATOM      5  N   LIG    1        1.346  -0.403  -0.013  0.00  0.00    -0.410 N 
ATOM      6  N   LIG    1        0.002  -0.004   0.002  0.00  0.00    -0.500 N 
ATOM      7  H   LIG    1       -0.771  -0.590   0.006  0.00  0.00    +0.440 HD
ENDROOT
BRANCH   5   8
ATOM      8  C   LIG    1        1.831  -1.785  -0.026  0.00  0.00    +0.320 C 
ATOM      9  C   LIG    1        1.285  -2.533  -1.260  0.00  0.00    +0.070 C 
ATOM     10  C   LIG    1        0.447  -3.696  -0.686  0.00  0.00    +0.290 C 
ATOM     11  N   LIG    1        0.063  -3.244   0.676  0.00  0.00    -0.520 N 
ATOM     12  H   LIG    1       -0.169  -4.034   1.258  0.00  0.00    +0.440 HD
ATOM     13  H   LIG    1       -0.712  -2.599   0.628  0.00  0.00    +0.430 HD
ATOM     14  C   LIG    1        1.279  -2.558   1.191  0.00  0.00    +0.290 C 
ENDBRANCH   5   8
BRANCH   1  15
ATOM     15  C   LIG    1       -0.972   3.467   0.026  0.00  0.00    +0.510 C 
ATOM     16  O   LIG    1        0.136   3.970   0.023  0.00  0.00    -0.530 OA
BRANCH  15  17
ATOM     17  C   LIG    1       -2.197   4.344   0.037  0.00  0.00    +0.180 C 
BRANCH  17  21
ATOM     18  C   LIG    1        0.229   8.303   1.787  0.00  0.00    +0.180 C 
ATOM     19  C   LIG    1       -0.679   7.549   0.850  0.00  0.00    +0.050 A 
ATOM     20  N   LIG    1       -0.966   6.295   0.949  0.00  0.00    -0.450 NA
ATOM     21  C   LIG    1       -1.779   5.792   0.042  0.00  0.00    +0.080 A 
ATOM     22  C   LIG    1       -2.198   6.669  -0.875  0.00  0.00    -0.080 A 
ATOM     23  S   LIG    1       -1.478   8.232  -0.498  0.00  0.00    +0.120 S 
ENDBRANCH  17  21
ENDBRANCH  15  17
ENDBRANCH   1  15
TORSDOF 4
