REMARK  Name = ZINCkj00000dDX5W.0
REMARK                            x       y       z     vdW  Elec       q    Type
REMARK                         _______ _______ _______ _____ _____    ______ ____
ROOT
ATOM      1  C   LIG    1        0.534  -1.740  -3.913  0.00  0.00    +0.490 C 
ATOM      2  C   LIG    1        1.239  -2.811  -3.310  0.00  0.00    -0.090 C 
ATOM      3  C   LIG    1        1.609  -2.431  -2.074  0.00  0.00    +0.400 C 
ATOM      4  N   LIG    1        1.163  -1.155  -1.845  0.00  0.00    -0.390 N 
ATOM      5  N   LIG    1        0.491  -0.711  -2.992  0.00  0.00    -0.430 NA
ATOM      6  H   LIG    1        0.075   0.157  -3.115  0.00  0.00    +0.460 HD
ENDROOT
BRANCH   4   7
ATOM      7  C   LIG    1        1.360  -0.386  -0.613  0.00  0.00    +0.310 C 
ATOM      8  C   LIG    1       -0.001   0.001   0.000  0.00  0.00    +0.080 C 
ATOM      9  C   LIG    1       -0.014   1.544   0.007  0.00  0.00    +0.280 C 
ATOM     10  N   LIG    1        1.420   1.931  -0.001  0.00  0.00    -0.510 N 
ATOM     11  H   LIG    1        1.814   1.847   0.924  0.00  0.00    +0.440 HD
ATOM     12  H   LIG    1        1.530   2.871  -0.349  0.00  0.00    +0.440 HD
ATOM     13  C   LIG    1        2.055   0.957  -0.926  0.00  0.00    +0.280 C 
ENDBRANCH   4   7
BRANCH   1  14
ATOM     14  N   LIG    1        0.015  -1.727  -5.129  0.00  0.00    -0.560 N 
ATOM     15  H   LIG    1        0.167  -2.474  -5.729  0.00  0.00    +0.440 HD
BRANCH  14  17
ATOM     16  C   LIG    1       -1.345  -0.708  -6.740  0.00  0.00    -0.230 C 
ATOM     17  C   LIG    1       -0.726  -0.675  -5.535  0.00  0.00    +0.380 C 
ATOM     18  O   LIG    1       -0.852   0.416  -4.737  0.00  0.00    -0.670 OA
BRANCH  16  22
ATOM     19  C   LIG    1       -3.347   3.783  -6.272  0.00  0.00    +0.170 C 
ATOM     20  C   LIG    1       -3.049   2.472  -6.952  0.00  0.00    +0.040 A 
ATOM     21  N   LIG    1       -2.317   1.536  -6.453  0.00  0.00    -0.430 NA
ATOM     22  C   LIG    1       -2.154   0.441  -7.184  0.00  0.00    +0.180 A 
ATOM     23  C   LIG    1       -2.793   0.476  -8.376  0.00  0.00    -0.140 A 
ATOM     24  S   LIG    1       -3.634   2.019  -8.493  0.00  0.00    +0.070 S 
ENDBRANCH  16  22
ENDBRANCH  14  17
ENDBRANCH   1  14
TORSDOF 4
