REMARK  Name = ZINCpk000000nRhD.0
REMARK                            x       y       z     vdW  Elec       q    Type
REMARK                         _______ _______ _______ _____ _____    ______ ____
ROOT
ATOM      1  S   LIG    1        1.099  -4.400  -0.033  0.00  0.00    +2.700 S 
ATOM      2  O   LIG    1       -0.013  -5.092   0.518  0.00  0.00    -0.950 OA
ATOM      3  O   LIG    1        2.414  -4.494   0.498  0.00  0.00    -0.950 OA
ENDROOT
BRANCH   1   4
ATOM      4  C   LIG    1        0.678  -2.690  -0.020  0.00  0.00    -0.670 A 
ATOM      5  C   LIG    1       -0.653  -2.308  -0.005  0.00  0.00    +0.140 A 
ATOM      6  C   LIG    1       -0.993  -0.969   0.006  0.00  0.00    +0.020 A 
ATOM      7  C   LIG    1        0.002  -0.004   0.002  0.00  0.00    +0.150 A 
ATOM      8  C   LIG    1        1.345  -0.389  -0.013  0.00  0.00    +0.070 A 
ATOM      9  N   LIG    1        2.099   0.781  -0.014  0.00  0.00    -0.540 N 
ATOM     10  C   LIG    1        1.255   1.830  -0.000  0.00  0.00    +0.680 A 
ATOM     11  O   LIG    1        1.591   3.000   0.003  0.00  0.00    -0.540 OA
ATOM     12  C   LIG    1        3.562   0.858  -0.027  0.00  0.00    +0.350 C 
ATOM     13  N   LIG    1       -0.017   1.389   0.010  0.00  0.00    -0.540 N 
ATOM     14  C   LIG    1       -1.216   2.230   0.020  0.00  0.00    +0.360 C 
ATOM     15  C   LIG    1        1.676  -1.735  -0.024  0.00  0.00    +0.150 A 
ENDBRANCH   1   4
BRANCH   1  16
ATOM     16  N   LIG    1        1.202  -4.867  -1.619  0.00  0.00    -1.110 NA
ATOM     17  H   LIG    1        0.574  -5.516  -1.975  0.00  0.00    +0.420 HD
BRANCH  16  18
ATOM     18  C   LIG    1        2.239  -4.301  -2.484  0.00  0.00    +0.380 C 
BRANCH  18  23
ATOM     19  C   LIG    1        1.533  -5.104  -4.882  0.00  0.00    +0.040 A 
ATOM     20  N   LIG    1        2.017  -5.989  -5.705  0.00  0.00    -0.360 NA
ATOM     21  O   LIG    1        2.986  -6.545  -5.242  0.00  0.00    +0.100 OA
ATOM     22  C   LIG    1        3.281  -6.083  -4.019  0.00  0.00    +0.190 A 
ATOM     23  C   LIG    1        2.360  -5.132  -3.735  0.00  0.00    -0.220 A 
BRANCH  19  25
ATOM     24  C   LIG    1        0.565  -3.350  -6.343  0.00  0.00    +0.040 C 
ATOM     25  C   LIG    1        0.332  -4.223  -5.108  0.00  0.00    +0.070 C 
ATOM     26  C   LIG    1       -0.907  -5.094  -5.325  0.00  0.00    +0.040 C 
ENDBRANCH  19  25
ENDBRANCH  18  23
ENDBRANCH  16  18
ENDBRANCH   1  16
TORSDOF 5
