REMARK  Name = ZINCrD0000071pbd.0
REMARK                            x       y       z     vdW  Elec       q    Type
REMARK                         _______ _______ _______ _____ _____    ______ ____
ROOT
ATOM      1  C   LIG    1       -4.919   0.611  -0.571  0.00  0.00    +0.550 C 
ATOM      2  O   LIG    1       -4.799  -0.588  -0.737  0.00  0.00    -0.480 OA
ENDROOT
BRANCH   1   5
ATOM      3  C   LIG    1       -7.604   2.998  -0.886  0.00  0.00    +0.100 A 
ATOM      4  N   LIG    1       -6.408   2.561  -0.636  0.00  0.00    -0.420 NA
ATOM      5  C   LIG    1       -6.218   1.260  -0.807  0.00  0.00    +0.030 A 
ATOM      6  C   LIG    1       -7.321   0.569  -1.213  0.00  0.00    -0.010 A 
ATOM      7  S   LIG    1       -8.630   1.657  -1.379  0.00  0.00    +0.220 S 
BRANCH   3  11
ATOM      8  C   LIG    1       -8.855   7.044  -0.546  0.00  0.00    -0.050 A 
ATOM      9  C   LIG    1       -9.758   6.074  -0.945  0.00  0.00    +0.020 A 
ATOM     10  C   LIG    1       -9.358   4.759  -1.058  0.00  0.00    +0.040 A 
ATOM     11  C   LIG    1       -8.040   4.407  -0.768  0.00  0.00    -0.040 A 
ATOM     12  C   LIG    1       -7.135   5.388  -0.361  0.00  0.00    +0.070 A 
ATOM     13  C   LIG    1       -7.546   6.701  -0.257  0.00  0.00    +0.010 A 
BRANCH   8  15
ATOM     14  C   LIG    1       -9.100   8.954   1.016  0.00  0.00    +0.030 C 
ATOM     15  C   LIG    1       -9.300   8.479  -0.425  0.00  0.00    +0.020 C 
ATOM     16  C   LIG    1       -8.470   9.351  -1.369  0.00  0.00    +0.030 C 
ENDBRANCH   8  15
ENDBRANCH   3  11
ENDBRANCH   1   5
BRANCH   1  17
ATOM     17  O   LIG    1       -3.862   1.345  -0.170  0.00  0.00    -0.340 OA
BRANCH  17  18
ATOM     18  C   LIG    1       -2.612   0.638   0.044  0.00  0.00    +0.210 C 
BRANCH  18  19
ATOM     19  C   LIG    1       -1.457   1.562  -0.242  0.00  0.00    +0.540 C 
ATOM     20  N   LIG    1       -1.670   2.887  -0.372  0.00  0.00    -0.680 N 
ATOM     21  H   LIG    1       -2.575   3.236  -0.356  0.00  0.00    +0.420 HD
ATOM     22  C   LIG    1       -0.626   3.726  -0.520  0.00  0.00    +0.700 C 
ATOM     23  O   LIG    1        0.507   3.288  -0.541  0.00  0.00    -0.530 OA
ATOM     24  N   LIG    1       -0.839   5.051  -0.646  0.00  0.00    -0.860 N 
ATOM     25  H   LIG    1       -0.088   5.655  -0.752  0.00  0.00    +0.420 HD
ATOM     26  H   LIG    1       -1.744   5.401  -0.629  0.00  0.00    +0.400 HD
ATOM     27  O   LIG    1       -0.336   1.115  -0.354  0.00  0.00    -0.450 OA
ENDBRANCH  18  19
BRANCH  18  28
ATOM     28  C   LIG    1       -2.537   0.161   1.496  0.00  0.00    -0.010 C 
ATOM     29  C   LIG    1       -1.289  -0.704   1.685  0.00  0.00    +0.050 C 
ATOM     30  C   LIG    1       -3.783  -0.662   1.828  0.00  0.00    +0.040 C 
ENDBRANCH  18  28
ENDBRANCH  17  18
ENDBRANCH   1  17
TORSDOF 7
