REMARK  Name = ZINCpk00000Sg9LY.0
REMARK                            x       y       z     vdW  Elec       q    Type
REMARK                         _______ _______ _______ _____ _____    ______ ____
ROOT
ATOM      1  C   LIG    1        3.736  -0.159   1.133  0.00  0.00    +0.230 C 
ATOM      2  C   LIG    1        4.920   0.805   1.030  0.00  0.00    +0.020 C 
ATOM      3  C   LIG    1        4.418   2.246   1.138  0.00  0.00    +0.030 C 
ATOM      4  C   LIG    1        3.456   2.536  -0.024  0.00  0.00    +0.280 C 
ATOM      5  N   LIG    1        2.391   1.524  -0.013  0.00  0.00    -0.560 N 
ATOM      6  C   LIG    1        2.767   0.103  -0.023  0.00  0.00    +0.300 C 
ENDROOT
BRANCH   5   7
ATOM      7  C   LIG    1        1.066   1.899   0.002  0.00  0.00    +0.180 C 
ATOM      8  C   LIG    1       -0.013   1.076   0.008  0.00  0.00    -0.130 C 
ATOM      9  C   LIG    1       -1.202   1.933   0.018  0.00  0.00    +0.570 C 
ATOM     10  N   LIG    1       -0.811   3.220   0.027  0.00  0.00    -0.520 N 
ATOM     11  O   LIG    1       -2.353   1.545   0.020  0.00  0.00    -0.460 OA
ATOM     12  C   LIG    1        0.533   3.289   0.015  0.00  0.00    +0.560 C 
ATOM     13  O   LIG    1        1.194   4.306   0.013  0.00  0.00    -0.440 OA
BRANCH  10  14
ATOM     14  C   LIG    1       -1.674   4.324   0.042  0.00  0.00    +0.130 A 
ATOM     15  C   LIG    1       -1.156   5.612   0.051  0.00  0.00    +0.010 A 
ATOM     16  C   LIG    1       -2.009   6.698   0.059  0.00  0.00    +0.030 A 
ATOM     17  C   LIG    1       -3.378   6.503   0.071  0.00  0.00    +0.000 A 
ATOM     18  C   LIG    1       -3.897   5.221   0.069  0.00  0.00    +0.030 A 
ATOM     19  C   LIG    1       -3.049   4.131   0.054  0.00  0.00    +0.020 A 
ENDBRANCH  10  14
ENDBRANCH   5   7
BRANCH   1  22
ATOM     20  O   LIG    1        4.642  -1.577   3.239  0.00  0.00    -0.530 OA
ATOM     21  C   LIG    1        4.655  -2.161   2.176  0.00  0.00    +0.550 C 
ATOM     22  N   LIG    1        4.222  -1.539   1.061  0.00  0.00    -0.720 N 
ATOM     23  H   LIG    1        4.232  -2.006   0.210  0.00  0.00    +0.400 HD
BRANCH  21  24
ATOM     24  C   LIG    1        5.154  -3.581   2.101  0.00  0.00    -0.070 C 
ATOM     25  C   LIG    1        4.306  -4.664   2.772  0.00  0.00    +0.060 C 
ATOM     26  C   LIG    1        5.632  -4.231   3.401  0.00  0.00    +0.070 C 
ENDBRANCH  21  24
ENDBRANCH   1  22
TORSDOF 4
