REMARK  Name = ZINCvU0000000E30.0
REMARK                            x       y       z     vdW  Elec       q    Type
REMARK                         _______ _______ _______ _____ _____    ______ ____
ROOT
ATOM      1  C   LIG    1       -4.272   0.980   0.569  0.00  0.00    -0.130 C 
ATOM      2  C   LIG    1       -3.111   1.683   0.317  0.00  0.00    +0.290 C 
ENDROOT
BRANCH   2   3
ATOM      3  C   LIG    1       -2.100   1.824   1.364  0.00  0.00    -0.230 A 
ATOM      4  C   LIG    1       -2.318   2.239   2.672  0.00  0.00    +0.160 A 
ATOM      5  N   LIG    1       -1.125   2.233   3.295  0.00  0.00    -0.300 N 
ATOM      6  N   LIG    1       -0.149   1.811   2.386  0.00  0.00    -0.260 NA
ATOM      7 CL   LIG    1       -3.842   2.686   3.371  0.00  0.00    +0.030 Cl
ATOM      8  C   LIG    1       -0.713   1.562   1.238  0.00  0.00    +0.130 A 
ATOM      9  C   LIG    1       -0.012   1.085  -0.008  0.00  0.00    +0.190 C 
BRANCH   5  10
ATOM     10  C   LIG    1       -0.898   2.591   4.631  0.00  0.00    +0.140 A 
ATOM     11  C   LIG    1       -1.638   3.611   5.213  0.00  0.00    +0.030 A 
ATOM     12  C   LIG    1       -1.417   3.958   6.532  0.00  0.00    +0.060 A 
ATOM     13  C   LIG    1       -0.450   3.297   7.269  0.00  0.00    -0.030 A 
ATOM     14  C   LIG    1        0.293   2.284   6.690  0.00  0.00    +0.060 A 
ATOM     15 CL   LIG    1       -0.169   3.740   8.924  0.00  0.00    -0.050 Cl
ATOM     16  C   LIG    1        0.072   1.929   5.373  0.00  0.00    +0.070 A 
ENDBRANCH   5  10
ENDBRANCH   2   3
BRANCH   1  19
ATOM     17  N   LIG    1       -6.421   0.151  -0.237  0.00  0.00    -0.660 N 
ATOM     18  H   LIG    1       -6.537  -0.305   0.611  0.00  0.00    +0.410 HD
ATOM     19  C   LIG    1       -5.288   0.838  -0.483  0.00  0.00    +0.580 C 
ATOM     20  O   LIG    1       -5.106   1.340  -1.576  0.00  0.00    -0.510 OA
BRANCH  17  24
ATOM     21  C   LIG    1       -9.426  -0.010  -3.127  0.00  0.00    +0.090 A 
ATOM     22  C   LIG    1       -8.095   0.003  -3.510  0.00  0.00    -0.010 A 
ATOM     23  C   LIG    1       -7.099   0.057  -2.553  0.00  0.00    +0.040 A 
ATOM     24  C   LIG    1       -7.431   0.097  -1.205  0.00  0.00    +0.140 A 
ATOM     25  C   LIG    1       -8.764   0.077  -0.818  0.00  0.00    -0.060 A 
ATOM     26  C   LIG    1       -9.762   0.030  -1.777  0.00  0.00    +0.120 A 
BRANCH  21  28
ATOM     27  C   LIG    1       -9.988  -0.103  -5.436  0.00  0.00    +0.250 C 
ATOM     28  O   LIG    1      -10.405  -0.063  -4.070  0.00  0.00    -0.310 OA
ENDBRANCH  21  28
BRANCH  26  29
ATOM     29  O   LIG    1      -11.069   0.016  -1.400  0.00  0.00    -0.300 OA
ATOM     30  C   LIG    1      -11.340   0.060   0.003  0.00  0.00    +0.240 C 
ENDBRANCH  26  29
ENDBRANCH  17  24
ENDBRANCH   1  19
BRANCH   1  31
ATOM     31  C   LIG    1       -4.486   0.389   1.856  0.00  0.00    +0.240 C 
ATOM     32  N   LIG    1       -4.656  -0.080   2.877  0.00  0.00    -0.390 NA
ENDBRANCH   1  31
TORSDOF 7
