REMARK  Name = ZINCpk000000olYR.0
REMARK                            x       y       z     vdW  Elec       q    Type
REMARK                         _______ _______ _______ _____ _____    ______ ____
ROOT
ATOM      1  N   LIG    1       -2.433   0.975   0.019  0.00  0.00    -0.520 NA
ATOM      2  C   LIG    1       -2.463   0.212  -1.236  0.00  0.00    +0.180 C 
ATOM      3  C   LIG    1       -3.528  -0.883  -1.143  0.00  0.00    +0.030 C 
ATOM      4  C   LIG    1       -4.893  -0.240  -0.882  0.00  0.00    +0.230 C 
ATOM      5  C   LIG    1       -4.821   0.588   0.404  0.00  0.00    +0.040 C 
ATOM      6  C   LIG    1       -3.718   1.640   0.267  0.00  0.00    +0.180 C 
ENDROOT
BRANCH   4   7
ATOM      7  N   LIG    1       -5.907  -1.287  -0.734  0.00  0.00    -0.710 N 
ATOM      8  H   LIG    1       -6.146  -1.610   0.149  0.00  0.00    +0.410 HD
ATOM      9  C   LIG    1       -6.510  -1.800  -1.825  0.00  0.00    +0.610 C 
ATOM     10  O   LIG    1       -6.212  -1.395  -2.932  0.00  0.00    -0.530 OA
BRANCH   9  11
ATOM     11  C   LIG    1       -7.532  -2.856  -1.676  0.00  0.00    -0.020 A 
ATOM     12  N   LIG    1       -7.953  -3.387  -0.545  0.00  0.00    -0.260 NA
ATOM     13  N   LIG    1       -8.848  -4.277  -0.782  0.00  0.00    -0.270 N 
ATOM     14  C   LIG    1       -9.066  -4.378  -2.111  0.00  0.00    +0.010 A 
ATOM     15  C   LIG    1      -10.039  -5.308  -2.789  0.00  0.00    +0.150 C 
ATOM     16  C   LIG    1       -8.252  -3.484  -2.720  0.00  0.00    -0.020 A 
BRANCH  13  17
ATOM     17  C   LIG    1       -9.534  -5.069   0.242  0.00  0.00    +0.250 C 
ATOM     18  C   LIG    1      -10.284  -4.134   1.193  0.00  0.00    +0.050 C 
ATOM     19  C   LIG    1       -8.505  -5.881   1.032  0.00  0.00    +0.050 C 
ENDBRANCH  13  17
ENDBRANCH   9  11
ENDBRANCH   4   7
BRANCH   1  20
ATOM     20  C   LIG    1       -1.330   1.944   0.019  0.00  0.00    +0.210 C 
BRANCH  20  23
ATOM     21  N   LIG    1        1.143   1.898   0.001  0.00  0.00    -0.740 N 
ATOM     22  H   LIG    1        1.130   2.868   0.007  0.00  0.00    +0.400 HD
ATOM     23  C   LIG    1       -0.014   1.209   0.009  0.00  0.00    +0.510 C 
ATOM     24  O   LIG    1        0.002  -0.004   0.002  0.00  0.00    -0.520 OA
BRANCH  21  25
ATOM     25  C   LIG    1        2.422   1.183  -0.015  0.00  0.00    +0.260 C 
BRANCH  25  27
ATOM     26  C   LIG    1        4.907   1.446  -0.037  0.00  0.00    +0.030 C 
ATOM     27  C   LIG    1        3.571   2.193  -0.020  0.00  0.00    +0.000 C 
ENDBRANCH  25  27
ENDBRANCH  21  25
ENDBRANCH  20  23
ENDBRANCH   1  20
TORSDOF 7
