REMARK  Name = ZINCqH0000007P5d.0
REMARK                            x       y       z     vdW  Elec       q    Type
REMARK                         _______ _______ _______ _____ _____    ______ ____
ROOT
ATOM      1  C   LIG    1        6.017  -1.407   2.938  0.00  0.00    +0.060 C 
ENDROOT
BRANCH   1   4
ATOM      2  N   LIG    1        4.266  -0.755   1.317  0.00  0.00    -0.720 N 
ATOM      3  H   LIG    1        3.787  -0.338   2.050  0.00  0.00    +0.400 HD
ATOM      4  C   LIG    1        5.444  -1.368   1.544  0.00  0.00    +0.520 C 
ATOM      5  O   LIG    1        6.044  -1.889   0.628  0.00  0.00    -0.540 OA
BRANCH   2   6
ATOM      6  C   LIG    1        3.710  -0.717  -0.038  0.00  0.00    +0.330 C 
BRANCH   6  12
ATOM      7  C   LIG    1        2.380   1.409  -0.014  0.00  0.00    +0.140 A 
ATOM      8  C   LIG    1        1.170   2.086   0.002  0.00  0.00    -0.080 A 
ATOM      9  C   LIG    1       -0.017   1.378   0.010  0.00  0.00    +0.060 A 
ATOM     10  C   LIG    1        0.002  -0.004   0.002  0.00  0.00    -0.030 A 
ATOM     11  C   LIG    1        1.208  -0.681  -0.013  0.00  0.00    +0.070 A 
ATOM     12  C   LIG    1        2.396   0.022  -0.021  0.00  0.00    -0.150 A 
BRANCH   7  14
ATOM     13  C   LIG    1        3.456   3.530  -0.013  0.00  0.00    +0.250 C 
ATOM     14  O   LIG    1        3.548   2.104  -0.021  0.00  0.00    -0.310 OA
ENDBRANCH   7  14
ENDBRANCH   6  12
ENDBRANCH   2   6
ENDBRANCH   1   4
BRANCH   1  15
ATOM     15  C   LIG    1        7.351  -2.157   2.920  0.00  0.00    +0.210 C 
BRANCH  15  16
ATOM     16  C   LIG    1        7.923  -2.196   4.314  0.00  0.00    +0.200 A 
ATOM     17  N   LIG    1        7.696  -3.125   5.200  0.00  0.00    -0.470 NA
ATOM     18  C   LIG    1        8.373  -2.832   6.320  0.00  0.00    +0.190 A 
ATOM     19  C   LIG    1        9.035  -1.666   6.105  0.00  0.00    -0.020 A 
ATOM     20  O   LIG    1        8.744  -1.278   4.843  0.00  0.00    -0.190 OA
BRANCH  19  21
ATOM     21  C   LIG    1        9.905  -0.956   7.066  0.00  0.00    -0.050 A 
ATOM     22  C   LIG    1       11.182  -0.544   6.683  0.00  0.00    +0.080 A 
ATOM     23  C   LIG    1       11.987   0.124   7.582  0.00  0.00    +0.010 A 
ATOM     24  C   LIG    1       11.537   0.374   8.867  0.00  0.00    +0.060 A 
ATOM     25  C   LIG    1       10.275  -0.037   9.257  0.00  0.00    -0.010 A 
ATOM     26  C   LIG    1        9.456  -0.701   8.364  0.00  0.00    +0.130 A 
ATOM     27  F   LIG    1        8.223  -1.102   8.746  0.00  0.00    -0.130 F 
ENDBRANCH  19  21
ENDBRANCH  15  16
ENDBRANCH   1  15
TORSDOF 7
