REMARK  Name = ZINCtV00000L6jsC.0
REMARK                            x       y       z     vdW  Elec       q    Type
REMARK                         _______ _______ _______ _____ _____    ______ ____
ROOT
ATOM      1  C   LIG    1        2.486   3.754  -0.003  0.00  0.00    +0.310 A 
ATOM      2  N   LIG    1        1.217   3.450   0.007  0.00  0.00    -0.450 NA
ATOM      3  C   LIG    1        1.056   2.108   0.003  0.00  0.00    +0.580 A 
ATOM      4  N   LIG    1       -0.016   1.352   0.009  0.00  0.00    -0.560 NA
ATOM      5  C   LIG    1        0.002  -0.004   0.002  0.00  0.00    +0.200 C 
ATOM      6  C   LIG    1        1.153  -0.701  -0.012  0.00  0.00    -0.110 C 
ATOM      7  C   LIG    1        2.449   0.090  -0.020  0.00  0.00    +0.360 C 
ATOM      8  N   LIG    1        2.318   1.550  -0.012  0.00  0.00    -0.450 N 
ATOM      9  N   LIG    1        3.227   2.611  -0.016  0.00  0.00    -0.450 N 
ATOM     10  H   LIG    1        4.194   2.547  -0.025  0.00  0.00    +0.460 HD
ENDROOT
BRANCH   7  11
ATOM     11  C   LIG    1        3.230  -0.304  -1.248  0.00  0.00    -0.110 A 
ATOM     12  C   LIG    1        4.268  -1.211  -1.144  0.00  0.00    +0.060 A 
ATOM     13  C   LIG    1        4.985  -1.573  -2.269  0.00  0.00    +0.060 A 
ATOM     14  C   LIG    1        4.665  -1.027  -3.499  0.00  0.00    -0.020 A 
ATOM     15  C   LIG    1        3.625  -0.118  -3.602  0.00  0.00    -0.030 A 
ATOM     16 CL   LIG    1        3.222   0.568  -5.145  0.00  0.00    -0.040 Cl
ATOM     17 CL   LIG    1        5.565  -1.482  -4.912  0.00  0.00    -0.040 Cl
ATOM     18  C   LIG    1        2.905   0.239  -2.477  0.00  0.00    +0.060 A 
ENDBRANCH   7  11
BRANCH   5  19
ATOM     19  C   LIG    1       -1.286  -0.741   0.010  0.00  0.00    -0.030 A 
ATOM     20  C   LIG    1       -2.491  -0.042   0.026  0.00  0.00    +0.090 A 
ATOM     21  C   LIG    1       -3.687  -0.732   0.033  0.00  0.00    +0.050 A 
ATOM     22  C   LIG    1       -3.690  -2.116   0.026  0.00  0.00    -0.020 A 
ATOM     23  C   LIG    1       -2.494  -2.816   0.011  0.00  0.00    -0.030 A 
ATOM     24 CL   LIG    1       -2.506  -4.552   0.001  0.00  0.00    -0.040 Cl
ATOM     25 CL   LIG    1       -5.197  -2.977   0.035  0.00  0.00    -0.040 Cl
ATOM     26  C   LIG    1       -1.294  -2.135  -0.003  0.00  0.00    +0.070 A 
ENDBRANCH   5  19
BRANCH   1  28
ATOM     27  F   LIG    1        1.993   6.076   0.011  0.00  0.00    -0.130 F 
ATOM     28  C   LIG    1        3.045   5.153  -0.003  0.00  0.00    +0.560 C 
ATOM     29  F   LIG    1        3.819   5.347  -1.152  0.00  0.00    -0.150 F 
ATOM     30  F   LIG    1        3.841   5.337   1.132  0.00  0.00    -0.150 F 
ENDBRANCH   1  28
TORSDOF 3
