REMARK  Name = ZINCpe00000FUmzP.0
REMARK                            x       y       z     vdW  Elec       q    Type
REMARK                         _______ _______ _______ _____ _____    ______ ____
ROOT
ATOM      1  C   LIG    1       -0.533   5.745  -1.306  0.00  0.00    +0.230 C 
ENDROOT
BRANCH   1   2
ATOM      2  N   LIG    1       -0.242   5.453   0.104  0.00  0.00    -0.480 N 
ATOM      3  C   LIG    1       -1.035   6.307   0.991  0.00  0.00    +0.240 C 
ATOM      4  C   LIG    1       -0.479   7.735   0.922  0.00  0.00    +0.000 C 
ATOM      5  C   LIG    1        0.908   7.733   1.569  0.00  0.00    +0.090 C 
ATOM      6  C   LIG    1        1.715   6.577   1.034  0.00  0.00    -0.160 A 
ATOM      7  C   LIG    1        3.087   6.585   1.242  0.00  0.00    +0.150 A 
ATOM      8  C   LIG    1        3.874   5.547   0.778  0.00  0.00    -0.050 A 
ATOM      9  C   LIG    1        3.290   4.491   0.098  0.00  0.00    +0.150 A 
ATOM     10  C   LIG    1        1.924   4.475  -0.107  0.00  0.00    -0.020 A 
ATOM     11  F   LIG    1        4.054   3.476  -0.360  0.00  0.00    -0.130 F 
ATOM     12  F   LIG    1        3.659   7.616   1.902  0.00  0.00    -0.130 F 
ATOM     13  C   LIG    1        1.127   5.523   0.357  0.00  0.00    +0.170 A 
ENDBRANCH   1   2
BRANCH   1  19
ATOM     14  N   LIG    1       -2.801   4.848  -5.546  0.00  0.00    -1.000 NA
ATOM     15  C   LIG    1       -3.512   4.007  -4.572  0.00  0.00    +0.300 C 
ATOM     16  C   LIG    1       -3.690   4.803  -3.274  0.00  0.00    +0.280 C 
ATOM     17  N   LIG    1       -2.393   5.382  -2.896  0.00  0.00    -0.610 N 
ATOM     18  C   LIG    1       -1.685   6.227  -3.868  0.00  0.00    +0.270 C 
ATOM     19  C   LIG    1       -1.864   5.145  -1.679  0.00  0.00    +0.520 C 
ATOM     20  O   LIG    1       -2.460   4.450  -0.884  0.00  0.00    -0.510 OA
ATOM     21  C   LIG    1       -1.504   5.426  -5.168  0.00  0.00    +0.290 C 
BRANCH  14  23
ATOM     22  C   LIG    1       -4.446   6.638  -6.819  0.00  0.00    -0.280 C 
ATOM     23  S   LIG    1       -3.450   5.138  -7.041  0.00  0.00    +2.610 S 
ATOM     24  O   LIG    1       -4.287   4.016  -7.284  0.00  0.00    -0.950 OA
ATOM     25  O   LIG    1       -2.324   5.404  -7.866  0.00  0.00    -0.950 OA
ENDBRANCH  14  23
ENDBRANCH   1  19
TORSDOF 3
