REMARK  Name = ZINCrD000000BNPd.0
REMARK                            x       y       z     vdW  Elec       q    Type
REMARK                         _______ _______ _______ _____ _____    ______ ____
ROOT
ATOM      1  O   LIG    1        2.273   0.856  -1.230  0.00  0.00    -0.560 OA
ATOM      2  C   LIG    1        2.297   2.025  -1.564  0.00  0.00    +0.590 C 
ATOM      3  N   LIG    1        1.210   2.588  -2.128  0.00  0.00    -0.710 N 
ATOM      4  H   LIG    1        1.211   3.533  -2.347  0.00  0.00    +0.420 HD
ENDROOT
BRANCH   2   5
ATOM      5  C   LIG    1        3.514   2.825  -1.353  0.00  0.00    -0.350 A 
ATOM      6  C   LIG    1        4.670   2.234  -0.888  0.00  0.00    +0.430 A 
ATOM      7  N   LIG    1        5.798   2.930  -0.690  0.00  0.00    -0.590 N 
ATOM      8  H   LIG    1        6.582   2.460  -0.365  0.00  0.00    +0.430 HD
ATOM      9  C   LIG    1        5.889   4.285  -0.921  0.00  0.00    +0.180 A 
ATOM     10  C   LIG    1        7.084   4.963  -0.693  0.00  0.00    -0.030 A 
ATOM     11  C   LIG    1        7.163   6.318  -0.929  0.00  0.00    +0.080 A 
ATOM     12  C   LIG    1        6.062   7.022  -1.394  0.00  0.00    -0.010 A 
ATOM     13  C   LIG    1        4.870   6.372  -1.627  0.00  0.00    +0.110 A 
ATOM     14  C   LIG    1        4.775   5.001  -1.392  0.00  0.00    -0.180 A 
ATOM     15  C   LIG    1        3.515   4.271  -1.630  0.00  0.00    +0.440 A 
ATOM     16  O   LIG    1        2.518   4.841  -2.037  0.00  0.00    -0.480 OA
ENDBRANCH   2   5
BRANCH   3  17
ATOM     17  C   LIG    1        0.026   1.772  -2.409  0.00  0.00    +0.300 C 
BRANCH  17  18
ATOM     18  C   LIG    1       -0.762   2.400  -3.530  0.00  0.00    -0.100 A 
ATOM     19  C   LIG    1       -0.914   3.773  -3.582  0.00  0.00    +0.080 A 
ATOM     20  C   LIG    1       -1.633   4.350  -4.612  0.00  0.00    -0.010 A 
ATOM     21  C   LIG    1       -2.208   3.552  -5.586  0.00  0.00    +0.100 A 
ATOM     22  C   LIG    1       -2.059   2.176  -5.530  0.00  0.00    -0.020 A 
ATOM     23  F   LIG    1       -2.915   4.115  -6.591  0.00  0.00    -0.140 F 
ATOM     24  C   LIG    1       -1.336   1.602  -4.502  0.00  0.00    +0.050 A 
ENDBRANCH  17  18
BRANCH  17  25
ATOM     25  C   LIG    1       -0.847   1.691  -1.155  0.00  0.00    +0.150 C 
ATOM     26  C   LIG    1       -0.019   1.164   0.044  0.00  0.00    +0.030 C 
ATOM     27  C   LIG    1       -0.818   1.754   1.238  0.00  0.00    -0.010 C 
ATOM     28  C   LIG    1       -1.314   3.100   0.666  0.00  0.00    +0.190 C 
ATOM     29  O   LIG    1       -1.283   3.002  -0.763  0.00  0.00    -0.370 OA
ENDBRANCH  17  25
ENDBRANCH   3  17
TORSDOF 4
