REMARK  Name = ZINCtV000002xkii.0
REMARK                            x       y       z     vdW  Elec       q    Type
REMARK                         _______ _______ _______ _____ _____    ______ ____
ROOT
ATOM      1  C   LIG    1        2.309   0.071   5.921  0.00  0.00    +0.130 A 
ATOM      2  C   LIG    1        2.579  -1.213   6.218  0.00  0.00    -0.110 A 
ATOM      3  S   LIG    1        3.522  -1.247   7.707  0.00  0.00    +0.210 S 
ATOM      4  C   LIG    1        3.459   0.511   7.787  0.00  0.00    +0.270 A 
ATOM      5  N   LIG    1        2.794   0.966   6.771  0.00  0.00    -0.490 NA
ENDROOT
BRANCH   1   9
ATOM      6  C   LIG    1        0.067   1.185   2.485  0.00  0.00    -0.070 A 
ATOM      7  C   LIG    1        0.310  -0.152   2.745  0.00  0.00    +0.020 A 
ATOM      8  C   LIG    1        1.042  -0.519   3.856  0.00  0.00    +0.020 A 
ATOM      9  C   LIG    1        1.527   0.460   4.722  0.00  0.00    -0.030 A 
ATOM     10  C   LIG    1        1.273   1.804   4.458  0.00  0.00    +0.050 A 
ATOM     11  C   LIG    1        0.545   2.160   3.341  0.00  0.00    +0.000 A 
BRANCH   6  12
ATOM     12  C   LIG    1       -0.729   1.579   1.267  0.00  0.00    +0.020 C 
ATOM     13  C   LIG    1       -2.121   0.950   1.341  0.00  0.00    +0.030 C 
BRANCH  12  15
ATOM     14  C   LIG    1       -0.753   1.593  -1.232  0.00  0.00    +0.000 C 
ATOM     15  C   LIG    1       -0.013   1.086   0.008  0.00  0.00    +0.000 C 
ENDBRANCH  12  15
ENDBRANCH   6  12
ENDBRANCH   1   9
BRANCH   4  16
ATOM     16  N   LIG    1        4.037   1.290   8.781  0.00  0.00    -0.610 N 
ATOM     17  H   LIG    1        3.954   2.256   8.749  0.00  0.00    +0.430 HD
ATOM     18  C   LIG    1        4.712   0.704   9.789  0.00  0.00    +0.610 C 
ATOM     19  O   LIG    1        4.815  -0.508   9.829  0.00  0.00    -0.470 OA
BRANCH  18  20
ATOM     20  C   LIG    1        5.323   1.528  10.841  0.00  0.00    -0.040 A 
ATOM     21  C   LIG    1        6.024   1.048  11.901  0.00  0.00    -0.050 A 
ATOM     22  C   LIG    1        6.437   2.218  12.676  0.00  0.00    -0.120 A 
ATOM     23  C   LIG    1        7.169   2.397  13.852  0.00  0.00    +0.060 A 
ATOM     24  C   LIG    1        7.388   3.671  14.330  0.00  0.00    +0.090 A 
ATOM     25  C   LIG    1        6.885   4.772  13.646  0.00  0.00    +0.040 A 
ATOM     26  C   LIG    1        6.162   4.608  12.484  0.00  0.00    +0.070 A 
ATOM     27  F   LIG    1        8.094   3.851  15.468  0.00  0.00    -0.130 F 
ATOM     28  C   LIG    1        5.928   3.333  11.984  0.00  0.00    +0.070 A 
ATOM     29  C   LIG    1        6.315  -0.396  12.217  0.00  0.00    +0.170 C 
ATOM     30  O   LIG    1        5.278   2.875  10.896  0.00  0.00    -0.180 OA
ENDBRANCH  18  20
ENDBRANCH   4  16
TORSDOF 5
