REMARK  Name = ZINCqH0000001PJ1.0
REMARK                            x       y       z     vdW  Elec       q    Type
REMARK                         _______ _______ _______ _____ _____    ______ ____
ROOT
ATOM      1  C   LIG    1       -0.016   1.344   0.009  0.00  0.00    +0.570 C 
ATOM      2  N   LIG    1        0.002  -0.004   0.002  0.00  0.00    -0.720 N 
ATOM      3  H   LIG    1       -0.831  -0.500   0.007  0.00  0.00    +0.400 HD
ATOM      4  O   LIG    1        1.028   1.966   0.003  0.00  0.00    -0.520 OA
ENDROOT
BRANCH   2   5
ATOM      5  C   LIG    1        1.281  -0.719  -0.014  0.00  0.00    +0.300 C 
ATOM      6  C   LIG    1        1.093  -2.111   0.596  0.00  0.00    +0.020 C 
ATOM      7  C   LIG    1        2.351  -2.938   0.302  0.00  0.00    +0.260 C 
ATOM      8  O   LIG    1        2.451  -3.121  -1.111  0.00  0.00    -0.310 OA
ATOM      9  C   LIG    1        2.323  -2.025  -1.903  0.00  0.00    +0.110 A 
ATOM     10  C   LIG    1        2.764  -2.103  -3.222  0.00  0.00    +0.070 A 
ATOM     11  C   LIG    1        2.643  -1.012  -4.061  0.00  0.00    +0.030 A 
ATOM     12  C   LIG    1        2.082   0.161  -3.590  0.00  0.00    +0.020 A 
ATOM     13  C   LIG    1        1.645   0.242  -2.282  0.00  0.00    +0.060 A 
ATOM     14  F   LIG    1        3.313  -3.249  -3.682  0.00  0.00    -0.130 F 
ATOM     15  C   LIG    1        1.765  -0.848  -1.436  0.00  0.00    -0.160 A 
ENDBRANCH   2   5
BRANCH   1  22
ATOM     16  C   LIG    1       -3.089   5.455   0.048  0.00  0.00    +0.080 A 
ATOM     17  N   LIG    1       -4.383   5.337   0.053  0.00  0.00    -0.300 NA
ATOM     18  O   LIG    1       -4.764   4.190   0.048  0.00  0.00    +0.090 OA
ATOM     19  C   LIG    1       -3.756   3.301   0.038  0.00  0.00    +0.240 A 
ATOM     20  N   LIG    1       -3.673   1.980   0.030  0.00  0.00    -0.460 NA
ATOM     21  C   LIG    1       -2.514   1.359   0.021  0.00  0.00    +0.380 A 
ATOM     22  C   LIG    1       -1.305   2.065   0.019  0.00  0.00    -0.210 A 
ATOM     23  C   LIG    1       -1.337   3.464   0.033  0.00  0.00    +0.230 A 
ATOM     24  C   LIG    1       -2.578   4.081   0.037  0.00  0.00    -0.220 A 
BRANCH  16  26
ATOM     25  C   LIG    1       -2.629   7.553  -1.193  0.00  0.00    +0.040 C 
ATOM     26  C   LIG    1       -2.286   6.730   0.051  0.00  0.00    +0.080 C 
ATOM     27  C   LIG    1       -2.619   7.540   1.306  0.00  0.00    +0.040 C 
ENDBRANCH  16  26
ENDBRANCH   1  22
TORSDOF 3
