REMARK  Name = ZINCvU00000005mN.0
REMARK                            x       y       z     vdW  Elec       q    Type
REMARK                         _______ _______ _______ _____ _____    ______ ____
ROOT
ATOM      1  C   LIG    1       -2.877   4.749   0.973  0.00  0.00    +0.150 A 
ATOM      2  N   LIG    1       -4.050   5.191   0.578  0.00  0.00    -0.280 NA
ATOM      3  N   LIG    1       -4.358   4.674  -0.558  0.00  0.00    -0.260 NA
ATOM      4  C   LIG    1       -3.400   3.873  -0.962  0.00  0.00    +0.240 A 
ATOM      5  N   LIG    1       -2.418   3.898   0.004  0.00  0.00    -0.410 N 
ENDROOT
BRANCH   4   6
ATOM      6  C   LIG    1       -3.378   3.092  -2.216  0.00  0.00    -0.020 A 
ATOM      7  C   LIG    1       -2.182   2.537  -2.675  0.00  0.00    +0.050 A 
ATOM      8  C   LIG    1       -2.169   1.804  -3.844  0.00  0.00    +0.030 A 
ATOM      9  C   LIG    1       -3.337   1.629  -4.567  0.00  0.00    -0.020 A 
ATOM     10  C   LIG    1       -4.525   2.182  -4.120  0.00  0.00    +0.030 A 
ATOM     11 CL   LIG    1       -3.311   0.711  -6.041  0.00  0.00    -0.060 Cl
ATOM     12  C   LIG    1       -4.551   2.912  -2.950  0.00  0.00    +0.090 A 
ENDBRANCH   4   6
BRANCH   5  13
ATOM     13  C   LIG    1       -1.204   3.194  -0.001  0.00  0.00    +0.090 A 
ATOM     14  C   LIG    1       -1.207   1.807   0.054  0.00  0.00    +0.060 A 
ATOM     15  C   LIG    1       -0.012   1.114   0.055  0.00  0.00    +0.040 A 
ATOM     16  C   LIG    1        1.190   1.804  -0.010  0.00  0.00    +0.110 A 
ATOM     17  C   LIG    1        1.192   3.191  -0.070  0.00  0.00    +0.030 A 
ATOM     18  C   LIG    1       -0.002   3.884  -0.065  0.00  0.00    +0.060 A 
BRANCH  16  19
ATOM     19  O   LIG    1        2.366   1.122  -0.014  0.00  0.00    -0.250 OA
BRANCH  19  20
ATOM     20  C   LIG    1        3.180   1.248   1.066  0.00  0.00    +0.110 A 
ATOM     21  C   LIG    1        2.752   1.954   2.181  0.00  0.00    -0.060 A 
ATOM     22  C   LIG    1        3.580   2.076   3.280  0.00  0.00    +0.050 A 
ATOM     23  C   LIG    1        4.839   1.504   3.266  0.00  0.00    -0.020 A 
ATOM     24  C   LIG    1        5.270   0.804   2.154  0.00  0.00    +0.050 A 
ATOM     25  C   LIG    1        4.444   0.674   1.054  0.00  0.00    -0.010 A 
ENDBRANCH  19  20
ENDBRANCH  16  19
ENDBRANCH   5  13
BRANCH   1  26
ATOM     26  S   LIG    1       -2.048   5.174   2.468  0.00  0.00    +0.100 S 
BRANCH  26  27
ATOM     27  C   LIG    1       -3.261   6.310   3.187  0.00  0.00    +0.150 C 
BRANCH  27  28
ATOM     28  C   LIG    1       -2.751   6.816   4.512  0.00  0.00    +0.480 C 
ATOM     29  O   LIG    1       -1.678   6.447   4.928  0.00  0.00    -0.490 OA
BRANCH  28  31
ATOM     30  C   LIG    1       -2.935   8.123   6.497  0.00  0.00    +0.290 C 
ATOM     31  O   LIG    1       -3.489   7.677   5.230  0.00  0.00    -0.350 OA
ENDBRANCH  28  31
ENDBRANCH  27  28
ENDBRANCH  26  27
ENDBRANCH   1  26
TORSDOF 8
