REMARK  Name = ZINCpe00000yuSZN.1
REMARK                            x       y       z     vdW  Elec       q    Type
REMARK                         _______ _______ _______ _____ _____    ______ ____
ROOT
ATOM      1  N   LIG    1       -0.721   1.571  -1.179  0.00  0.00    -0.730 N 
ATOM      2  H   LIG    1       -1.516   2.118  -1.079  0.00  0.00    +0.400 HD
ATOM      3  C   LIG    1       -0.268   1.258  -2.409  0.00  0.00    +0.590 C 
ATOM      4  O   LIG    1        0.729   0.573  -2.534  0.00  0.00    -0.530 OA
ENDROOT
BRANCH   3   5
ATOM      5  C   LIG    1       -0.979   1.745  -3.599  0.00  0.00    -0.220 A 
ATOM      6  C   LIG    1       -2.106   2.512  -3.621  0.00  0.00    +0.290 A 
ATOM      7  N   LIG    1       -2.465   2.764  -4.903  0.00  0.00    -0.570 N 
ATOM      8  H   LIG    1       -3.235   3.292  -5.168  0.00  0.00    +0.430 HD
ATOM      9  C   LIG    1       -1.588   2.161  -5.777  0.00  0.00    +0.110 A 
ATOM     10  C   LIG    1       -1.517   2.109  -7.168  0.00  0.00    +0.010 A 
ATOM     11  C   LIG    1       -0.512   1.419  -7.780  0.00  0.00    +0.090 A 
ATOM     12  C   LIG    1        0.460   0.752  -7.022  0.00  0.00    -0.050 A 
ATOM     13  C   LIG    1        0.406   0.792  -5.630  0.00  0.00    +0.150 A 
ATOM     14  C   LIG    1       -0.618   1.495  -5.008  0.00  0.00    -0.070 A 
BRANCH  12  15
ATOM     15  C   LIG    1        1.509   0.031  -7.678  0.00  0.00    +0.260 C 
ATOM     16  N   LIG    1        2.341  -0.541  -8.198  0.00  0.00    -0.420 NA
ENDBRANCH  12  15
ENDBRANCH   3   5
BRANCH   1  17
ATOM     17  C   LIG    1       -0.013   1.086   0.008  0.00  0.00    +0.310 C 
BRANCH  17  20
ATOM     18  C   LIG    1       -0.208   1.082   2.617  0.00  0.00    +0.240 C 
ATOM     19  C   LIG    1        0.037   2.531   2.188  0.00  0.00    +0.030 C 
ATOM     20  C   LIG    1       -0.729   1.579   1.267  0.00  0.00    -0.070 C 
BRANCH  18  22
ATOM     21  C   LIG    1       -0.920  -0.027   4.666  0.00  0.00    +0.520 C 
ATOM     22  N   LIG    1       -1.192   0.847   3.676  0.00  0.00    -0.710 N 
ATOM     23  H   LIG    1       -2.038   1.320   3.666  0.00  0.00    +0.400 HD
ATOM     24  O   LIG    1        0.138  -0.619   4.679  0.00  0.00    -0.510 OA
BRANCH  21  25
ATOM     25  C   LIG    1       -1.932  -0.269   5.756  0.00  0.00    +0.220 C 
BRANCH  25  27
ATOM     26  C   LIG    1       -0.237  -0.723   7.424  0.00  0.00    +0.200 C 
ATOM     27  N   LIG    1       -1.402  -1.256   6.706  0.00  0.00    -0.530 NA
ATOM     28  C   LIG    1       -2.443  -1.695   7.645  0.00  0.00    +0.190 C 
ENDBRANCH  25  27
ENDBRANCH  21  25
ENDBRANCH  18  22
ENDBRANCH  17  20
ENDBRANCH   1  17
TORSDOF 7
