REMARK  Name = ZINCpe000000VYAG.0
REMARK                            x       y       z     vdW  Elec       q    Type
REMARK                         _______ _______ _______ _____ _____    ______ ____
ROOT
ATOM      1  C   LIG    1        1.186   1.792   0.000  0.00  0.00    -0.080 A 
ATOM      2  C   LIG    1       -0.013   1.076   0.008  0.00  0.00    +0.070 A 
ATOM      3  C   LIG    1       -1.216   1.751   0.017  0.00  0.00    +0.120 A 
ATOM      4  C   LIG    1       -1.236   3.134   0.030  0.00  0.00    -0.660 A 
ATOM      5  C   LIG    1       -0.052   3.850   0.022  0.00  0.00    +0.120 A 
ATOM      6  C   LIG    1        1.158   3.187   0.008  0.00  0.00    +0.030 A 
ENDROOT
BRANCH   1   9
ATOM      7  N   LIG    1        3.634   1.769  -0.022  0.00  0.00    -0.720 N 
ATOM      8  H   LIG    1        3.617   2.739  -0.017  0.00  0.00    +0.410 HD
ATOM      9  C   LIG    1        2.479   1.075  -0.015  0.00  0.00    +0.560 C 
ATOM     10  O   LIG    1        2.500  -0.141  -0.021  0.00  0.00    -0.530 OA
BRANCH   7  11
ATOM     11  C   LIG    1        4.915   1.059  -0.037  0.00  0.00    +0.250 C 
BRANCH  11  12
ATOM     12  C   LIG    1        6.061   2.073  -0.043  0.00  0.00    +0.220 C 
BRANCH  12  13
ATOM     13  O   LIG    1        5.960   2.898  -1.205  0.00  0.00    -0.550 OA
ATOM     14  H   LIG    1        6.006   2.411  -2.039  0.00  0.00    +0.380 HD
ENDBRANCH  12  13
BRANCH  12  15
ATOM     15  C   LIG    1        7.399   1.331  -0.059  0.00  0.00    +0.150 C 
BRANCH  15  17
ATOM     16  C   LIG    1        9.767   1.681   0.049  0.00  0.00    +0.200 C 
ATOM     17  O   LIG    1        8.467   2.273   0.053  0.00  0.00    -0.380 OA
ENDBRANCH  15  17
ENDBRANCH  12  15
ENDBRANCH  11  12
ENDBRANCH   7  11
ENDBRANCH   1   9
BRANCH   4  18
ATOM     18  S   LIG    1       -2.777   3.989   0.050  0.00  0.00    +2.690 S 
ATOM     19  O   LIG    1       -2.517   5.273   0.598  0.00  0.00    -0.950 OA
ATOM     20  O   LIG    1       -3.729   3.087   0.599  0.00  0.00    -0.950 OA
BRANCH  18  21
ATOM     21  N   LIG    1       -3.221   4.234  -1.527  0.00  0.00    -1.000 NA
ATOM     22  C   LIG    1       -2.814   5.454  -2.238  0.00  0.00    +0.280 C 
ATOM     23  C   LIG    1       -4.054   6.125  -2.825  0.00  0.00    +0.020 C 
ATOM     24  C   LIG    1       -4.816   5.117  -3.690  0.00  0.00    -0.020 C 
ATOM     25  C   LIG    1       -5.266   3.938  -2.825  0.00  0.00    +0.020 C 
ATOM     26  C   LIG    1       -6.041   5.796  -4.304  0.00  0.00    +0.030 C 
ATOM     27  C   LIG    1       -4.035   3.239  -2.239  0.00  0.00    +0.280 C 
ENDBRANCH  18  21
ENDBRANCH   4  18
TORSDOF 8
