REMARK  Name = ZINCrH000004tLqD.0
REMARK                            x       y       z     vdW  Elec       q    Type
REMARK                         _______ _______ _______ _____ _____    ______ ____
ROOT
ATOM      1  O   LIG    1        1.564  -1.256  -2.551  0.00  0.00    -0.510 OA
ATOM      2  C   LIG    1        1.494  -2.242  -1.848  0.00  0.00    +0.500 C 
ATOM      3  N   LIG    1        1.586  -3.469  -2.398  0.00  0.00    -0.600 N 
ENDROOT
BRANCH   3   4
ATOM      4  C   LIG    1        1.501  -4.660  -1.550  0.00  0.00    +0.380 C 
BRANCH   4   5
ATOM      5  C   LIG    1        0.062  -5.094  -1.436  0.00  0.00    -0.210 A 
ATOM      6  C   LIG    1       -0.550  -5.950  -2.256  0.00  0.00    +0.030 A 
ATOM      7  C   LIG    1       -1.877  -6.199  -1.954  0.00  0.00    +0.000 A 
ATOM      8  C   LIG    1       -2.344  -5.546  -0.889  0.00  0.00    -0.030 A 
ATOM      9  S   LIG    1       -1.065  -4.556  -0.197  0.00  0.00    +0.090 S 
ENDBRANCH   4   5
ENDBRANCH   3   4
BRANCH   3  10
ATOM     10  C   LIG    1        1.770  -3.611  -3.844  0.00  0.00    +0.390 C 
BRANCH  10  11
ATOM     11  C   LIG    1        3.243  -3.634  -4.163  0.00  0.00    -0.210 A 
ATOM     12  C   LIG    1        4.001  -4.731  -4.218  0.00  0.00    +0.020 A 
ATOM     13  C   LIG    1        5.330  -4.506  -4.530  0.00  0.00    +0.000 A 
ATOM     14  C   LIG    1        5.652  -3.227  -4.730  0.00  0.00    -0.060 A 
ATOM     15  S   LIG    1        4.224  -2.220  -4.527  0.00  0.00    +0.140 S 
ENDBRANCH  10  11
ENDBRANCH   3  10
BRANCH   2  16
ATOM     16  C   LIG    1        1.304  -2.095  -0.360  0.00  0.00    +0.320 C 
BRANCH  16  17
ATOM     17  N   LIG    1        1.234  -0.673  -0.015  0.00  0.00    -0.530 N 
ATOM     18  C   LIG    1        2.356   0.014   0.292  0.00  0.00    +0.490 C 
ATOM     19  C   LIG    1        2.260   1.467   0.681  0.00  0.00    +0.310 C 
ATOM     20  O   LIG    1        1.158   2.075   0.002  0.00  0.00    -0.300 OA
ATOM     21  C   LIG    1       -0.017   1.390   0.010  0.00  0.00    +0.080 A 
ATOM     22  C   LIG    1       -1.226   2.063   0.031  0.00  0.00    +0.030 A 
ATOM     23  C   LIG    1       -2.411   1.349   0.036  0.00  0.00    +0.030 A 
ATOM     24  C   LIG    1       -2.392  -0.033   0.029  0.00  0.00    +0.020 A 
ATOM     25  C   LIG    1       -1.188  -0.712   0.012  0.00  0.00    +0.000 A 
ATOM     26  O   LIG    1        3.437  -0.536   0.254  0.00  0.00    -0.500 OA
ATOM     27  C   LIG    1        0.002  -0.004   0.002  0.00  0.00    +0.100 A 
ENDBRANCH  16  17
ENDBRANCH   2  16
TORSDOF 6
