REMARK  Name = ZINCrD00000hQ52K.0
REMARK                            x       y       z     vdW  Elec       q    Type
REMARK                         _______ _______ _______ _____ _____    ______ ____
ROOT
ATOM      1  C   LIG    1       -0.322  -1.326  -4.708  0.00  0.00    -0.020 C 
ATOM      2  C   LIG    1        0.689  -0.663  -5.646  0.00  0.00    +0.100 C 
ATOM      3  C   LIG    1       -0.227  -1.773  -6.168  0.00  0.00    -0.020 C 
ENDROOT
BRANCH   1   5
ATOM      4  O   LIG    1        0.699  -3.326  -3.983  0.00  0.00    -0.530 OA
ATOM      5  C   LIG    1        0.215  -2.263  -3.657  0.00  0.00    +0.550 C 
ATOM      6  N   LIG    1        0.157  -1.920  -2.355  0.00  0.00    -0.730 N 
ATOM      7  H   LIG    1       -0.230  -1.070  -2.094  0.00  0.00    +0.410 HD
BRANCH   6   8
ATOM      8  C   LIG    1        0.679  -2.832  -1.333  0.00  0.00    +0.320 C 
BRANCH   8   9
ATOM      9  C   LIG    1        0.372  -2.270   0.056  0.00  0.00    -0.160 C 
ATOM     10  C   LIG    1        1.208  -2.906   1.179  0.00  0.00    +0.070 C 
ATOM     11  C   LIG    1        2.256  -1.813   0.910  0.00  0.00    +0.040 C 
ATOM     12  C   LIG    1        1.104  -0.953   0.364  0.00  0.00    +0.070 C 
BRANCH   9  13
ATOM     13  C   LIG    1       -1.127  -2.223   0.360  0.00  0.00    +0.460 C 
ATOM     14  F   LIG    1       -1.319  -2.004   1.728  0.00  0.00    -0.180 F 
ATOM     15  F   LIG    1       -1.715  -3.438  -0.005  0.00  0.00    -0.180 F 
ATOM     16  F   LIG    1       -1.718  -1.182  -0.366  0.00  0.00    -0.180 F 
ENDBRANCH   9  13
ENDBRANCH   8   9
ENDBRANCH   6   8
ENDBRANCH   1   5
BRANCH   3  17
ATOM     17  C   LIG    1       -1.348  -1.372  -7.093  0.00  0.00    +0.550 C 
ATOM     18  N   LIG    1       -1.316  -1.739  -8.389  0.00  0.00    -0.730 N 
ATOM     19  H   LIG    1       -0.571  -2.261  -8.727  0.00  0.00    +0.410 HD
ATOM     20  O   LIG    1       -2.279  -0.720  -6.670  0.00  0.00    -0.530 OA
BRANCH  18  21
ATOM     21  C   LIG    1       -2.405  -1.350  -9.288  0.00  0.00    +0.320 C 
BRANCH  21  22
ATOM     22  C   LIG    1       -2.053  -1.754 -10.721  0.00  0.00    -0.160 C 
ATOM     23  C   LIG    1       -3.262  -1.772 -11.670  0.00  0.00    +0.070 C 
ATOM     24  C   LIG    1       -3.466  -3.240 -11.251  0.00  0.00    +0.040 C 
ATOM     25  C   LIG    1       -1.963  -3.275 -10.928  0.00  0.00    +0.070 C 
BRANCH  22  26
ATOM     26  C   LIG    1       -0.850  -0.987 -11.275  0.00  0.00    +0.460 C 
ATOM     27  F   LIG    1       -1.077   0.388 -11.153  0.00  0.00    -0.180 F 
ATOM     28  F   LIG    1       -0.672  -1.312 -12.624  0.00  0.00    -0.180 F 
ATOM     29  F   LIG    1        0.297  -1.337 -10.555  0.00  0.00    -0.180 F 
ENDBRANCH  22  26
ENDBRANCH  21  22
ENDBRANCH  18  21
ENDBRANCH   3  17
TORSDOF 8
