REMARK  Name = ZINCvU0000000GQ0.0
REMARK                            x       y       z     vdW  Elec       q    Type
REMARK                         _______ _______ _______ _____ _____    ______ ____
ROOT
ATOM      1  N   LIG    1       -3.379   5.352  -5.024  0.00  0.00    -0.630 N 
ATOM      2  H   LIG    1       -3.072   6.264  -5.142  0.00  0.00    +0.420 HD
ATOM      3  C   LIG    1       -4.114   4.759  -5.986  0.00  0.00    +0.560 C 
ATOM      4  O   LIG    1       -4.498   3.615  -5.839  0.00  0.00    -0.460 OA
ENDROOT
BRANCH   3   5
ATOM      5  C   LIG    1       -4.453   5.500  -7.219  0.00  0.00    -0.110 A 
ATOM      6  C   LIG    1       -4.018   6.816  -7.388  0.00  0.00    +0.030 A 
ATOM      7  C   LIG    1       -4.332   7.504  -8.543  0.00  0.00    +0.040 A 
ATOM      8  C   LIG    1       -5.086   6.898  -9.530  0.00  0.00    +0.030 A 
ATOM      9  C   LIG    1       -5.528   5.590  -9.370  0.00  0.00    +0.140 A 
ATOM     10  C   LIG    1       -5.214   4.889  -8.216  0.00  0.00    +0.090 A 
BRANCH   9  11
ATOM     11  N   LIG    1       -6.291   4.982 -10.372  0.00  0.00    -0.670 N 
ATOM     12  H   LIG    1       -6.132   5.202 -11.303  0.00  0.00    +0.410 HD
ATOM     13  C   LIG    1       -7.248   4.091 -10.044  0.00  0.00    +0.590 C 
ATOM     14  O   LIG    1       -7.514   3.887  -8.874  0.00  0.00    -0.500 OA
BRANCH  13  15
ATOM     15  C   LIG    1       -7.968   3.368 -11.096  0.00  0.00    -0.280 A 
ATOM     16  C   LIG    1       -8.954   2.445 -10.890  0.00  0.00    +0.120 A 
ATOM     17  C   LIG    1       -9.459   1.921 -12.057  0.00  0.00    +0.000 A 
ATOM     18  C   LIG    1       -8.908   2.397 -13.179  0.00  0.00    -0.050 A 
ATOM     19  S   LIG    1       -7.707   3.556 -12.824  0.00  0.00    +0.200 S 
ENDBRANCH  13  15
ENDBRANCH   9  11
ENDBRANCH   3   5
BRANCH   1  23
ATOM     20  C   LIG    1       -2.304   3.758  -1.701  0.00  0.00    -0.240 A 
ATOM     21  C   LIG    1       -3.028   2.928  -2.456  0.00  0.00    +0.260 A 
ATOM     22  N   LIG    1       -3.419   3.436  -3.609  0.00  0.00    -0.470 NA
ATOM     23  C   LIG    1       -3.060   4.655  -3.865  0.00  0.00    +0.270 A 
ATOM     24  S   LIG    1       -2.145   5.284  -2.566  0.00  0.00    +0.130 S 
BRANCH  20  25
ATOM     25  C   LIG    1       -1.729   3.445  -0.344  0.00  0.00    +0.190 C 
BRANCH  25  29
ATOM     26  C   LIG    1        2.188   1.791  -0.801  0.00  0.00    -0.030 A 
ATOM     27  C   LIG    1        1.071   0.954  -0.781  0.00  0.00    +0.060 A 
ATOM     28  C   LIG    1       -0.190   1.494  -0.638  0.00  0.00    +0.030 A 
ATOM     29  C   LIG    1       -0.349   2.862  -0.505  0.00  0.00    -0.050 A 
ATOM     30  C   LIG    1        0.754   3.698  -0.525  0.00  0.00    +0.020 A 
ATOM     31  C   LIG    1        2.020   3.171  -0.672  0.00  0.00    +0.060 A 
BRANCH  26  33
ATOM     32  N   LIG    1        4.540   0.798  -1.077  0.00  0.00    -0.410 NA
ATOM     33  C   LIG    1        3.499   1.238  -0.955  0.00  0.00    +0.250 C 
ENDBRANCH  26  33
ENDBRANCH  25  29
ENDBRANCH  20  25
ENDBRANCH   1  23
TORSDOF 7
