REMARK  Name = ZINCqH0000001xas.0
REMARK                            x       y       z     vdW  Elec       q    Type
REMARK                         _______ _______ _______ _____ _____    ______ ____
ROOT
ATOM      1  C   LIG    1        0.241   3.635   1.963  0.00  0.00    +0.190 A 
ATOM      2  C   LIG    1        0.216   4.995   2.091  0.00  0.00    -0.170 A 
ATOM      3  C   LIG    1        1.239   5.644   2.803  0.00  0.00    +0.010 A 
ATOM      4  C   LIG    1        1.246   7.041   2.956  0.00  0.00    -0.010 A 
ATOM      5  C   LIG    1        2.252   7.637   3.652  0.00  0.00    +0.040 A 
ATOM      6  C   LIG    1        3.279   6.882   4.216  0.00  0.00    +0.000 A 
ATOM      7  C   LIG    1        3.305   5.527   4.088  0.00  0.00    +0.050 A 
ATOM      8  C   LIG    1        2.283   4.876   3.377  0.00  0.00    -0.090 A 
ATOM      9  C   LIG    1        2.277   3.478   3.224  0.00  0.00    +0.100 A 
ATOM     10  C   LIG    1        1.270   2.879   2.535  0.00  0.00    -0.060 A 
ENDROOT
BRANCH   1  11
ATOM     11  O   LIG    1       -0.748   3.008   1.275  0.00  0.00    -0.300 OA
BRANCH  11  13
ATOM     12  C   LIG    1        0.197   1.073   0.178  0.00  0.00    +0.020 C 
ATOM     13  C   LIG    1       -0.737   1.579   1.280  0.00  0.00    +0.160 C 
ATOM     14  C   LIG    1       -2.153   1.057   1.028  0.00  0.00    +0.070 C 
ENDBRANCH  11  13
ENDBRANCH   1  11
BRANCH   2  15
ATOM     15  C   LIG    1       -0.903   5.793   1.474  0.00  0.00    +0.410 C 
BRANCH  15  16
ATOM     16  N   LIG    1       -1.997   5.928   2.439  0.00  0.00    -0.280 N 
ATOM     17  C   LIG    1       -2.547   7.093   2.851  0.00  0.00    +0.160 A 
ATOM     18  C   LIG    1       -3.523   6.753   3.742  0.00  0.00    +0.020 A 
ATOM     19  N   LIG    1       -3.510   5.411   3.820  0.00  0.00    -0.260 NA
ATOM     20  N   LIG    1       -2.599   4.959   3.033  0.00  0.00    -0.050 NA
BRANCH  18  21
ATOM     21  C   LIG    1       -4.419   7.680   4.479  0.00  0.00    -0.100 A 
ATOM     22  C   LIG    1       -4.319   9.063   4.307  0.00  0.00    +0.330 A 
ATOM     23  N   LIG    1       -5.141   9.852   4.978  0.00  0.00    -0.510 NA
ATOM     24  C   LIG    1       -6.035   9.352   5.807  0.00  0.00    +0.490 A 
ATOM     25  N   LIG    1       -6.159   8.054   6.003  0.00  0.00    -0.510 NA
ATOM     26  C   LIG    1       -5.381   7.194   5.367  0.00  0.00    +0.360 A 
ENDBRANCH  18  21
ENDBRANCH  15  16
ENDBRANCH   2  15
TORSDOF 5
