REMARK  Name = ZINCrg000015HBqD.0
REMARK                            x       y       z     vdW  Elec       q    Type
REMARK                         _______ _______ _______ _____ _____    ______ ____
ROOT
ATOM      1  C   LIG    1       -1.494   1.229   3.463  0.00  0.00    +0.080 C 
ATOM      2  N   LIG    1       -2.019   2.414   3.482  0.00  0.00    -0.200 NA
ATOM      3  N   LIG    1       -2.636   2.913   4.634  0.00  0.00    -0.460 N 
ATOM      4  C   LIG    1       -2.368   2.372   5.838  0.00  0.00    +0.500 C 
ATOM      5  C   LIG    1       -1.405   1.216   5.942  0.00  0.00    +0.090 C 
ATOM      6  O   LIG    1       -2.897   2.814   6.836  0.00  0.00    -0.500 OA
ATOM      7  C   LIG    1       -1.521   0.351   4.685  0.00  0.00    +0.130 C 
ENDROOT
BRANCH   1  15
ATOM      8  O   LIG    1       -0.763   6.176  -0.158  0.00  0.00    -0.520 OA
ATOM      9  C   LIG    1       -1.100   5.059   0.172  0.00  0.00    +0.530 C 
ATOM     10  N   LIG    1       -2.371   4.617   0.226  0.00  0.00    -0.730 N 
ATOM     11  H   LIG    1       -3.147   5.151  -0.008  0.00  0.00    +0.410 HD
ATOM     12  C   LIG    1       -2.429   3.221   0.683  0.00  0.00    +0.260 C 
ATOM     13  C   LIG    1       -1.054   2.962   1.332  0.00  0.00    +0.260 C 
ATOM     14  N   LIG    1       -0.662   1.577   1.197  0.00  0.00    -0.570 N 
ATOM     15  C   LIG    1       -0.858   0.740   2.234  0.00  0.00    +0.570 C 
ATOM     16  O   LIG    1       -0.508  -0.423   2.152  0.00  0.00    -0.510 OA
ATOM     17  C   LIG    1       -0.070   1.036  -0.012  0.00  0.00    +0.290 C 
ATOM     18  C   LIG    1        1.071   1.978  -0.420  0.00  0.00    +0.030 C 
ATOM     19  C   LIG    1        0.493   3.367  -0.657  0.00  0.00    +0.040 C 
ATOM     20  C   LIG    1       -0.152   3.946   0.588  0.00  0.00    -0.020 C 
ENDBRANCH   1  15
BRANCH   3  21
ATOM     21  C   LIG    1       -3.576   4.032   4.532  0.00  0.00    +0.380 C 
BRANCH  21  22
ATOM     22  C   LIG    1       -2.826   5.332   4.669  0.00  0.00    -0.130 A 
ATOM     23  C   LIG    1       -2.652   5.901   5.917  0.00  0.00    +0.070 A 
ATOM     24  C   LIG    1       -1.961   7.090   6.045  0.00  0.00    -0.020 A 
ATOM     25  C   LIG    1       -1.451   7.718   4.921  0.00  0.00    +0.110 A 
ATOM     26  C   LIG    1       -1.631   7.150   3.671  0.00  0.00    -0.020 A 
ATOM     27  F   LIG    1       -0.779   8.883   5.044  0.00  0.00    -0.140 F 
ATOM     28  C   LIG    1       -2.318   5.958   3.546  0.00  0.00    +0.060 A 
ENDBRANCH  21  22
ENDBRANCH   3  21
TORSDOF 3
