REMARK  Name = ZINCrH000004mD4b.0
REMARK                            x       y       z     vdW  Elec       q    Type
REMARK                         _______ _______ _______ _____ _____    ______ ____
ROOT
ATOM      1  C   LIG    1        4.282   0.310  -1.468  0.00  0.00    +0.170 C 
ATOM      2  C   LIG    1        4.330  -1.119  -0.922  0.00  0.00    +0.020 C 
ENDROOT
BRANCH   1   3
ATOM      3  C   LIG    1        4.755   0.316  -2.899  0.00  0.00    +0.520 C 
ATOM      4  N   LIG    1        6.000  -0.106  -3.200  0.00  0.00    -0.730 N 
ATOM      5  H   LIG    1        6.590  -0.413  -2.495  0.00  0.00    +0.400 HD
ATOM      6  O   LIG    1        4.016   0.701  -3.780  0.00  0.00    -0.510 OA
BRANCH   4   7
ATOM      7  C   LIG    1        6.459  -0.099  -4.590  0.00  0.00    +0.190 C 
ATOM      8  C   LIG    1        6.411   1.329  -5.137  0.00  0.00    +0.030 C 
ATOM      9  C   LIG    1        6.891   1.335  -6.590  0.00  0.00    -0.010 C 
ATOM     10  C   LIG    1        5.983   0.436  -7.431  0.00  0.00    +0.010 C 
ATOM     11  C   LIG    1        6.032  -0.992  -6.885  0.00  0.00    -0.010 C 
ATOM     12  C   LIG    1        7.468  -1.515  -6.949  0.00  0.00    +0.010 C 
ATOM     13  C   LIG    1        8.376  -0.616  -6.108  0.00  0.00    -0.010 C 
ATOM     14  C   LIG    1        8.328   0.813  -6.654  0.00  0.00    +0.010 C 
ATOM     15  C   LIG    1        5.551  -0.998  -5.432  0.00  0.00    +0.020 C 
ATOM     16  C   LIG    1        7.896  -0.622  -4.655  0.00  0.00    +0.030 C 
ENDBRANCH   4   7
ENDBRANCH   1   3
BRANCH   1  17
ATOM     17  N   LIG    1        2.903   0.811  -1.406  0.00  0.00    -0.510 NA
ATOM     18  C   LIG    1        1.978  -0.106  -2.084  0.00  0.00    +0.200 C 
BRANCH  17  19
ATOM     19  C   LIG    1        2.489   1.044  -0.016  0.00  0.00    +0.240 C 
BRANCH  19  23
ATOM     20  C   LIG    1       -1.239   3.136   0.031  0.00  0.00    +0.100 A 
ATOM     21  C   LIG    1       -1.219   1.750   0.017  0.00  0.00    -0.040 A 
ATOM     22  C   LIG    1       -0.013   1.076   0.008  0.00  0.00    +0.050 A 
ATOM     23  C   LIG    1        1.175   1.782   0.000  0.00  0.00    -0.090 A 
ATOM     24  C   LIG    1        1.161   3.165   0.007  0.00  0.00    +0.050 A 
ATOM     25  C   LIG    1       -0.043   3.844   0.023  0.00  0.00    +0.070 A 
ATOM     26  F   LIG    1       -0.058   5.195   0.031  0.00  0.00    -0.130 F 
BRANCH  20  28
ATOM     27  C   LIG    1       -3.613   3.007   0.054  0.00  0.00    +0.250 C 
ATOM     28  O   LIG    1       -2.425   3.800   0.046  0.00  0.00    -0.310 OA
ENDBRANCH  20  28
ENDBRANCH  19  23
ENDBRANCH  17  19
ENDBRANCH   1  17
TORSDOF 6
