REMARK  Name = ZINCvU0000000Bth.0
REMARK                            x       y       z     vdW  Elec       q    Type
REMARK                         _______ _______ _______ _____ _____    ______ ____
ROOT
ATOM      1  N   LIG    1        3.025  -4.897   2.311  0.00  0.00    -0.440 N 
ATOM      2  C   LIG    1        3.429  -6.001   1.612  0.00  0.00    +0.180 A 
ATOM      3  N   LIG    1        3.314  -5.721   0.345  0.00  0.00    -0.250 NA
ATOM      4  N   LIG    1        2.865  -4.526   0.196  0.00  0.00    -0.280 NA
ATOM      5  C   LIG    1        2.665  -3.975   1.371  0.00  0.00    +0.160 A 
ENDROOT
BRANCH   1   6
ATOM      6  C   LIG    1        2.983  -4.738   3.767  0.00  0.00    +0.310 C 
BRANCH   6   7
ATOM      7  C   LIG    1        1.619  -5.192   4.291  0.00  0.00    +0.020 C 
BRANCH   7   9
ATOM      8  C   LIG    1        0.172  -5.362   6.321  0.00  0.00    +0.030 C 
ATOM      9  C   LIG    1        1.576  -5.026   5.811  0.00  0.00    -0.010 C 
ATOM     10  C   LIG    1        2.592  -5.971   6.457  0.00  0.00    +0.020 C 
ENDBRANCH   7   9
ENDBRANCH   6   7
ENDBRANCH   1   6
BRANCH   2  11
ATOM     11  C   LIG    1        3.920  -7.299   2.199  0.00  0.00    +0.330 C 
BRANCH  11  12
ATOM     12  O   LIG    1        5.337  -7.236   2.376  0.00  0.00    -0.310 OA
BRANCH  12  13
ATOM     13  C   LIG    1        5.943  -8.334   2.899  0.00  0.00    +0.130 A 
ATOM     14  C   LIG    1        5.190  -9.447   3.241  0.00  0.00    -0.080 A 
ATOM     15  C   LIG    1        5.809 -10.563   3.768  0.00  0.00    +0.050 A 
ATOM     16  C   LIG    1        7.178 -10.568   3.965  0.00  0.00    -0.020 A 
ATOM     17  C   LIG    1        7.930  -9.458   3.630  0.00  0.00    +0.050 A 
ATOM     18  C   LIG    1        7.316  -8.341   3.098  0.00  0.00    -0.020 A 
ENDBRANCH  12  13
ENDBRANCH  11  12
ENDBRANCH   2  11
BRANCH   5  19
ATOM     19  S   LIG    1        2.057  -2.350   1.676  0.00  0.00    +0.050 S 
BRANCH  19  20
ATOM     20  C   LIG    1        1.828  -1.776  -0.025  0.00  0.00    +0.270 C 
BRANCH  20  21
ATOM     21  C   LIG    1        1.298  -0.365  -0.012  0.00  0.00    +0.180 A 
ATOM     22  N   LIG    1        2.013   0.725  -0.013  0.00  0.00    -0.240 NA
ATOM     23  N   LIG    1        1.235   1.750  -0.000  0.00  0.00    -0.240 NA
ATOM     24  C   LIG    1       -0.016   1.345   0.009  0.00  0.00    +0.250 A 
ATOM     25  O   LIG    1        0.002  -0.004   0.002  0.00  0.00    -0.200 OA
BRANCH  24  26
ATOM     26  C   LIG    1       -1.211   2.201   0.020  0.00  0.00    +0.050 A 
ATOM     27  C   LIG    1       -1.218   3.565   0.028  0.00  0.00    +0.070 A 
ATOM     28  C   LIG    1       -2.568   3.962   0.036  0.00  0.00    +0.020 A 
ATOM     29  C   LIG    1       -3.313   2.836   0.034  0.00  0.00    +0.000 A 
ATOM     30 BR   LIG    1       -5.202   2.765   0.044  0.00  0.00    +0.080 Br
ATOM     31  O   LIG    1       -2.490   1.776   0.018  0.00  0.00    -0.150 OA
ENDBRANCH  24  26
ENDBRANCH  20  21
ENDBRANCH  19  20
ENDBRANCH   5  19
TORSDOF 10
