REMARK  Name = ZINCrH000004rIh8.0
REMARK                            x       y       z     vdW  Elec       q    Type
REMARK                         _______ _______ _______ _____ _____    ______ ____
ROOT
ATOM      1  C   LIG    1        0.133   0.042  -0.467  0.00  0.00    +0.570 C 
ATOM      2  N   LIG    1       -0.993  -0.689  -0.595  0.00  0.00    -0.720 N 
ATOM      3  H   LIG    1       -1.860  -0.259  -0.526  0.00  0.00    +0.400 HD
ATOM      4  O   LIG    1        1.220  -0.496  -0.554  0.00  0.00    -0.520 OA
ENDROOT
BRANCH   1  10
ATOM      5  C   LIG    1       -3.705   6.349   0.221  0.00  0.00    +0.090 C 
ATOM      6  C   LIG    1       -2.409   5.580   0.229  0.00  0.00    -0.090 A 
ATOM      7  C   LIG    1       -2.421   4.240  -0.010  0.00  0.00    +0.040 A 
ATOM      8  C   LIG    1       -1.213   3.522  -0.003  0.00  0.00    -0.110 A 
ATOM      9  C   LIG    1       -1.186   2.139  -0.249  0.00  0.00    +0.130 A 
ATOM     10  C   LIG    1        0.046   1.496  -0.220  0.00  0.00    -0.190 A 
ATOM     11  C   LIG    1        1.209   2.241   0.041  0.00  0.00    +0.210 A 
ATOM     12  N   LIG    1        1.161   3.529   0.263  0.00  0.00    -0.480 NA
ATOM     13  C   LIG    1        2.543   1.539   0.066  0.00  0.00    +0.140 C 
ATOM     14  C   LIG    1        0.005   4.202   0.254  0.00  0.00    +0.150 A 
ATOM     15  C   LIG    1       -0.025   5.586   0.495  0.00  0.00    +0.040 A 
ATOM     16  C   LIG    1       -1.213   6.250   0.481  0.00  0.00    +0.050 A 
ENDBRANCH   1  10
BRANCH   2  17
ATOM     17  C   LIG    1       -0.906  -2.130  -0.840  0.00  0.00    +0.330 C 
BRANCH  17  18
ATOM     18  C   LIG    1       -2.295  -2.706  -0.944  0.00  0.00    -0.190 A 
ATOM     19  C   LIG    1       -2.937  -2.773  -2.173  0.00  0.00    +0.110 A 
ATOM     20  C   LIG    1       -4.211  -3.309  -2.224  0.00  0.00    -0.040 A 
ATOM     21  C   LIG    1       -4.804  -3.759  -1.049  0.00  0.00    +0.310 A 
ATOM     22  N   LIG    1       -4.159  -3.678   0.104  0.00  0.00    -0.520 NA
ATOM     23  C   LIG    1       -2.941  -3.177   0.182  0.00  0.00    +0.310 A 
BRANCH  21  24
ATOM     24  N   LIG    1       -6.084  -4.300  -1.086  0.00  0.00    -0.460 N 
ATOM     25  C   LIG    1       -6.119  -5.529  -1.919  0.00  0.00    +0.190 C 
ATOM     26  C   LIG    1       -7.400  -6.251  -1.432  0.00  0.00    +0.040 C 
ATOM     27  C   LIG    1       -7.400  -5.969   0.088  0.00  0.00    +0.020 C 
ATOM     28  C   LIG    1       -6.523  -4.715   0.264  0.00  0.00    +0.190 C 
ENDBRANCH  21  24
ENDBRANCH  17  18
ENDBRANCH   2  17
TORSDOF 4
