REMARK  Name = ZINCah0000001hRw.0
REMARK                            x       y       z     vdW  Elec       q    Type
REMARK                         _______ _______ _______ _____ _____    ______ ____
ROOT
ATOM      1  N   LIG    1        2.797   3.795  -0.004  0.00  0.00    -0.570 N 
ATOM      2  H   LIG    1        3.525   3.154  -0.015  0.00  0.00    +0.400 HD
ATOM      3  C   LIG    1        1.520   3.364   0.006  0.00  0.00    +0.590 C 
ATOM      4  O   LIG    1        0.606   4.168   0.019  0.00  0.00    -0.510 OA
ENDROOT
BRANCH   3   5
ATOM      5  C   LIG    1        1.231   1.928   0.001  0.00  0.00    -0.250 A 
ATOM      6  C   LIG    1       -0.017   1.370   0.010  0.00  0.00    +0.120 A 
ATOM      7  C   LIG    1        0.002  -0.004   0.002  0.00  0.00    +0.050 A 
ATOM      8  C   LIG    1        1.223  -0.555  -0.013  0.00  0.00    -0.220 A 
ATOM      9 BR   LIG    1        1.559  -2.416  -0.026  0.00  0.00    +0.020 Br
ATOM     10  S   LIG    1        2.434   0.646  -0.018  0.00  0.00    +0.250 S 
ENDBRANCH   3   5
BRANCH   1  11
ATOM     11  N   LIG    1        3.066   5.134   0.000  0.00  0.00    -0.600 NA
ATOM     12  H   LIG    1        2.614   5.596  -0.774  0.00  0.00    +0.350 HD
ATOM     13  H   LIG    1        4.061   5.303  -0.008  0.00  0.00    +0.360 HD
ENDBRANCH   1  11
TORSDOF 2
