REMARK  Name = ZINCvU00000003Qf.0
REMARK                            x       y       z     vdW  Elec       q    Type
REMARK                         _______ _______ _______ _____ _____    ______ ____
ROOT
ATOM      1  C   LIG    1       -2.454   7.804   0.389  0.00  0.00    +0.160 A 
ATOM      2  N   LIG    1       -3.138   6.689   0.312  0.00  0.00    -0.450 NA
ATOM      3  C   LIG    1       -2.224   5.711   0.176  0.00  0.00    +0.180 A 
ATOM      4  N   LIG    1       -1.052   6.273   0.170  0.00  0.00    -0.360 NA
ATOM      5  O   LIG    1       -1.162   7.475   0.291  0.00  0.00    +0.080 OA
ENDROOT
BRANCH   3   6
ATOM      6  C   LIG    1       -2.507   4.237   0.047  0.00  0.00    +0.070 C 
ATOM      7  C   LIG    1       -3.348   3.773   1.239  0.00  0.00    +0.070 C 
ATOM      8  C   LIG    1       -3.275   3.976  -1.250  0.00  0.00    +0.070 C 
BRANCH   6   9
ATOM      9  C   LIG    1       -1.207   3.476   0.023  0.00  0.00    -0.080 A 
ATOM     10  C   LIG    1       -0.348   3.649  -1.019  0.00  0.00    +0.040 A 
ATOM     11  C   LIG    1        0.863   2.937  -1.047  0.00  0.00    -0.050 A 
ATOM     12  C   LIG    1        1.772   3.087  -2.108  0.00  0.00    +0.030 A 
ATOM     13  C   LIG    1        2.939   2.385  -2.099  0.00  0.00    +0.000 A 
ATOM     14  C   LIG    1        3.246   1.517  -1.052  0.00  0.00    +0.010 A 
ATOM     15  C   LIG    1        2.389   1.347  -0.009  0.00  0.00    +0.020 A 
ATOM     16  C   LIG    1        1.176   2.055   0.018  0.00  0.00    -0.050 A 
ATOM     17  C   LIG    1        0.266   1.907   1.079  0.00  0.00    +0.030 A 
ATOM     18  C   LIG    1       -0.899   2.609   1.070  0.00  0.00    +0.020 A 
ENDBRANCH   6   9
ENDBRANCH   3   6
BRANCH   1  20
ATOM     19  C   LIG    1       -2.932   9.937  -0.782  0.00  0.00    +0.090 C 
ATOM     20  C   LIG    1       -3.016   9.193   0.552  0.00  0.00    +0.380 C 
BRANCH  20  21
ATOM     21  N   LIG    1       -2.243   9.917   1.565  0.00  0.00    -0.520 N 
ATOM     22  C   LIG    1       -0.906  10.108   1.361  0.00  0.00    +0.260 A 
ATOM     23  C   LIG    1       -0.130  10.761   2.241  0.00  0.00    -0.040 A 
ATOM     24  C   LIG    1       -0.725  11.293   3.469  0.00  0.00    +0.000 A 
ATOM     25  C   LIG    1        0.031  11.980   4.419  0.00  0.00    +0.010 A 
ATOM     26  C   LIG    1       -0.574  12.457   5.549  0.00  0.00    +0.050 A 
ATOM     27  C   LIG    1       -1.933  12.267   5.764  0.00  0.00    -0.010 A 
ATOM     28  C   LIG    1       -2.704  11.592   4.843  0.00  0.00    +0.090 A 
ATOM     29  C   LIG    1       -2.109  11.097   3.683  0.00  0.00    -0.150 A 
ATOM     30  C   LIG    1       -2.877  10.376   2.662  0.00  0.00    +0.550 A 
ATOM     31  O   LIG    1       -4.071  10.190   2.806  0.00  0.00    -0.520 OA
ENDBRANCH  20  21
ENDBRANCH   1  20
TORSDOF 4
