REMARK  Name = ZINCkj000005h6Az.0
REMARK                            x       y       z     vdW  Elec       q    Type
REMARK                         _______ _______ _______ _____ _____    ______ ____
ROOT
ATOM      1  C   LIG    1       -1.686   4.285   0.039  0.00  0.00    +0.410 C 
ENDROOT
BRANCH   1   2
ATOM      2  C   LIG    1       -2.647   4.178  -1.117  0.00  0.00    -0.120 A 
ATOM      3  C   LIG    1       -3.745   3.343  -1.027  0.00  0.00    +0.070 A 
ATOM      4  C   LIG    1       -4.630   3.248  -2.084  0.00  0.00    -0.010 A 
ATOM      5  C   LIG    1       -4.410   3.981  -3.238  0.00  0.00    +0.120 A 
ATOM      6  C   LIG    1       -3.307   4.813  -3.329  0.00  0.00    -0.010 A 
ATOM      7  F   LIG    1       -5.272   3.886  -4.274  0.00  0.00    -0.130 F 
ATOM      8  C   LIG    1       -2.427   4.910  -2.268  0.00  0.00    +0.070 A 
ENDBRANCH   1   2
BRANCH   1   9
ATOM      9  C   LIG    1       -0.750   3.104   0.025  0.00  0.00    +0.170 A 
ATOM     10  N   LIG    1       -1.108   1.849   0.017  0.00  0.00    -0.460 NA
ATOM     11  C   LIG    1       -0.013   1.076   0.008  0.00  0.00    +0.150 A 
ATOM     12  C   LIG    1        1.066   1.882   0.002  0.00  0.00    +0.150 A 
ATOM     13  N   LIG    1        0.599   3.169   0.013  0.00  0.00    -0.550 N 
ATOM     14  H   LIG    1        1.137   3.976   0.011  0.00  0.00    +0.420 HD
ENDBRANCH   1   9
BRANCH   1  16
ATOM     15  C   LIG    1       -1.901   4.873   2.394  0.00  0.00    +0.510 C 
ATOM     16  N   LIG    1       -2.435   4.299   1.298  0.00  0.00    -0.690 N 
ATOM     17  H   LIG    1       -3.316   3.895   1.342  0.00  0.00    +0.420 HD
ATOM     18  O   LIG    1       -0.799   5.379   2.338  0.00  0.00    -0.530 OA
BRANCH  15  19
ATOM     19  C   LIG    1       -2.671   4.888   3.688  0.00  0.00    +0.290 C 
BRANCH  19  21
ATOM     20  C   LIG    1       -1.705   6.979   4.358  0.00  0.00    +0.330 C 
ATOM     21  N   LIG    1       -1.879   5.566   4.723  0.00  0.00    -0.370 N 
ATOM     22  C   LIG    1       -2.576   5.476   6.012  0.00  0.00    +0.340 C 
ATOM     23  H   LIG    1       -0.975   5.125   4.797  0.00  0.00    +0.430 HD
ENDBRANCH  19  21
ENDBRANCH  15  19
ENDBRANCH   1  16
TORSDOF 5
