REMARK  Name = ZINCtV000002P9Ly.0
REMARK                            x       y       z     vdW  Elec       q    Type
REMARK                         _______ _______ _______ _____ _____    ______ ____
ROOT
ATOM      1  C   LIG    1        6.073  -0.410  -0.283  0.00  0.00    -0.070 A 
ATOM      2  C   LIG    1        6.221  -1.786  -0.401  0.00  0.00    +0.070 A 
ATOM      3  C   LIG    1        7.507  -2.332  -0.526  0.00  0.00    +0.200 A 
ATOM      4  N   LIG    1        8.591  -1.585  -0.536  0.00  0.00    -0.440 NA
ATOM      5  C   LIG    1        8.543  -0.257  -0.428  0.00  0.00    +0.130 A 
ATOM      6  C   LIG    1        9.719   0.516  -0.443  0.00  0.00    +0.050 A 
ATOM      7  C   LIG    1        9.636   1.871  -0.350  0.00  0.00    +0.040 A 
ATOM      8  C   LIG    1        8.405   2.510  -0.221  0.00  0.00    +0.030 A 
ATOM      9  C   LIG    1        7.245   1.793  -0.197  0.00  0.00    +0.050 A 
ATOM     10  C   LIG    1        7.292   0.400  -0.303  0.00  0.00    -0.060 A 
ENDROOT
BRANCH   3  11
ATOM     11  C   LIG    1        7.650  -3.803  -0.652  0.00  0.00    -0.060 A 
ATOM     12  C   LIG    1        6.521  -4.620  -0.638  0.00  0.00    +0.030 A 
ATOM     13  C   LIG    1        6.660  -5.987  -0.761  0.00  0.00    +0.010 A 
ATOM     14  C   LIG    1        7.918  -6.548  -0.886  0.00  0.00    +0.030 A 
ATOM     15  C   LIG    1        9.043  -5.743  -0.894  0.00  0.00    +0.000 A 
ATOM     16  C   LIG    1        8.916  -4.374  -0.778  0.00  0.00    +0.070 A 
ENDBRANCH   3  11
BRANCH   1  18
ATOM     17  O   LIG    1        4.630   1.421  -0.153  0.00  0.00    -0.470 OA
ATOM     18  C   LIG    1        4.739   0.211  -0.148  0.00  0.00    +0.510 C 
BRANCH  18  19
ATOM     19  O   LIG    1        3.645  -0.564  -0.020  0.00  0.00    -0.280 OA
BRANCH  19  20
ATOM     20  C   LIG    1        2.442   0.065  -0.010  0.00  0.00    +0.090 A 
ATOM     21  C   LIG    1        1.808   0.320   1.174  0.00  0.00    +0.030 A 
ATOM     22  C   LIG    1        0.574   0.964   1.201  0.00  0.00    +0.030 A 
ATOM     23  C   LIG    1       -0.037   1.359   0.050  0.00  0.00    +0.050 A 
ATOM     24  C   LIG    1        0.582   1.116  -1.188  0.00  0.00    -0.040 A 
ATOM     25  C   LIG    1       -0.021   1.510  -2.395  0.00  0.00    +0.030 A 
ATOM     26  C   LIG    1        0.607   1.256  -3.576  0.00  0.00    +0.020 A 
ATOM     27  C   LIG    1        1.842   0.612  -3.607  0.00  0.00    +0.030 A 
ATOM     28  C   LIG    1        2.455   0.217  -2.458  0.00  0.00    +0.010 A 
ATOM     29  C   LIG    1        1.837   0.460  -1.221  0.00  0.00    -0.050 A 
ENDBRANCH  19  20
ENDBRANCH  18  19
ENDBRANCH   1  18
TORSDOF 4
