REMARK  Name = ZINCrD00000l3smu.0
REMARK                            x       y       z     vdW  Elec       q    Type
REMARK                         _______ _______ _______ _____ _____    ______ ____
ROOT
ATOM      1  C   LIG    1       -1.311   3.380  -5.615  0.00  0.00    +0.400 C 
ENDROOT
BRANCH   1   2
ATOM      2  C   LIG    1       -1.960   4.742  -5.362  0.00  0.00    -0.020 C 
ATOM      3  C   LIG    1       -1.215   5.820  -6.155  0.00  0.00    +0.000 C 
ATOM      4  C   LIG    1       -1.820   7.189  -5.833  0.00  0.00    +0.210 C 
ATOM      5  O   LIG    1       -1.746   7.424  -4.425  0.00  0.00    -0.380 OA
ATOM      6  C   LIG    1       -2.466   6.474  -3.637  0.00  0.00    +0.210 C 
ATOM      7  C   LIG    1       -1.886   5.076  -3.869  0.00  0.00    +0.020 C 
ENDBRANCH   1   2
BRANCH   1  11
ATOM      8  C   LIG    1       -0.919   2.735  -9.124  0.00  0.00    +0.180 A 
ATOM      9  N   LIG    1       -2.178   2.483  -8.927  0.00  0.00    -0.370 NA
ATOM     10  O   LIG    1       -2.464   2.661  -7.762  0.00  0.00    +0.080 OA
ATOM     11  C   LIG    1       -1.381   3.055  -7.085  0.00  0.00    +0.170 A 
ATOM     12  N   LIG    1       -0.393   3.110  -7.945  0.00  0.00    -0.460 NA
BRANCH   8  14
ATOM     13  C   LIG    1       -0.266   1.194 -10.954  0.00  0.00    +0.040 C 
ATOM     14  C   LIG    1       -0.183   2.631 -10.436  0.00  0.00    +0.090 C 
ATOM     15  C   LIG    1       -0.821   3.578 -11.454  0.00  0.00    +0.040 C 
ENDBRANCH   8  14
ENDBRANCH   1  11
BRANCH   1  16
ATOM     16  N   LIG    1       -2.023   2.351  -4.852  0.00  0.00    -0.730 N 
ATOM     17  H   LIG    1       -2.727   1.834  -5.275  0.00  0.00    +0.410 HD
ATOM     18  C   LIG    1       -1.699   2.122  -3.564  0.00  0.00    +0.570 C 
ATOM     19  O   LIG    1       -0.817   2.769  -3.035  0.00  0.00    -0.500 OA
BRANCH  18  20
ATOM     20  C   LIG    1       -2.417   1.083  -2.795  0.00  0.00    -0.190 A 
ATOM     21  C   LIG    1       -3.352   0.252  -3.423  0.00  0.00    +0.100 A 
ATOM     22  C   LIG    1       -3.997  -0.705  -2.658  0.00  0.00    -0.050 A 
ATOM     23  C   LIG    1       -3.701  -0.806  -1.311  0.00  0.00    +0.300 A 
ATOM     24  N   LIG    1       -2.811  -0.012  -0.747  0.00  0.00    -0.480 NA
ATOM     25  C   LIG    1       -2.175   0.916  -1.431  0.00  0.00    +0.230 A 
BRANCH  25  26
ATOM     26  C   LIG    1       -1.172   1.801  -0.736  0.00  0.00    +0.020 C 
ATOM     27  C   LIG    1        0.138   1.158  -0.275  0.00  0.00    +0.040 C 
ATOM     28  C   LIG    1       -0.923   1.554   0.754  0.00  0.00    +0.040 C 
ENDBRANCH  25  26
ENDBRANCH  18  20
ENDBRANCH   1  16
TORSDOF 6
