REMARK  Name = ZINCnE000001Oy9X.0
REMARK                            x       y       z     vdW  Elec       q    Type
REMARK                         _______ _______ _______ _____ _____    ______ ____
ROOT
ATOM      1  S   LIG    1        4.042  -0.831  -0.018  0.00  0.00    +2.690 S 
ATOM      2  O   LIG    1        3.770  -2.115   0.527  0.00  0.00    -0.950 OA
ATOM      3  O   LIG    1        5.074   0.017   0.467  0.00  0.00    -0.950 OA
ENDROOT
BRANCH   1   4
ATOM      4  C   LIG    1        2.544   0.089   0.104  0.00  0.00    -0.690 A 
ATOM      5  C   LIG    1        1.332  -0.572   0.180  0.00  0.00    +0.120 A 
ATOM      6  C   LIG    1        0.156   0.150   0.275  0.00  0.00    -0.010 A 
ATOM      7  C   LIG    1        0.193   1.532   0.294  0.00  0.00    +0.000 A 
ATOM      8  C   LIG    1        1.405   2.192   0.218  0.00  0.00    -0.010 A 
ATOM      9  C   LIG    1        2.580   1.470   0.122  0.00  0.00    +0.130 A 
BRANCH   7  10
ATOM     10  C   LIG    1       -1.089   2.318   0.391  0.00  0.00    +0.090 C 
BRANCH  10  11
ATOM     11  C   LIG    1       -1.427   2.562   1.863  0.00  0.00    -0.060 C 
BRANCH  11  12
ATOM     12  C   LIG    1       -2.709   3.349   1.960  0.00  0.00    +0.490 C 
ATOM     13  O   LIG    1       -3.158   3.651   3.052  0.00  0.00    -0.700 OA
ATOM     14  O   LIG    1       -3.297   3.683   0.945  0.00  0.00    -0.700 OA
ENDBRANCH  11  12
ENDBRANCH  10  11
ENDBRANCH   7  10
ENDBRANCH   1   4
BRANCH   1  15
ATOM     15  N   LIG    1        4.345  -1.062  -1.630  0.00  0.00    -1.050 N 
ATOM     16  H   LIG    1        4.399  -1.961  -1.989  0.00  0.00    +0.430 HD
BRANCH  15  24
ATOM     17  C   LIG    1        3.355  -1.234  -4.291  0.00  0.00    +0.110 C 
ATOM     18  C   LIG    1        4.056  -0.002  -3.779  0.00  0.00    -0.100 A 
ATOM     19  C   LIG    1        4.235   1.089  -4.608  0.00  0.00    -0.020 A 
ATOM     20  C   LIG    1        4.879   2.220  -4.138  0.00  0.00    +0.020 A 
ATOM     21  C   LIG    1        5.346   2.262  -2.837  0.00  0.00    +0.060 A 
ATOM     22  C   LIG    1        5.166   1.177  -2.001  0.00  0.00    +0.000 A 
ATOM     23 CL   LIG    1        3.650   1.040  -6.242  0.00  0.00    -0.060 Cl
ATOM     24  C   LIG    1        4.524   0.038  -2.471  0.00  0.00    +0.170 A 
ENDBRANCH  15  24
ENDBRANCH   1  15
TORSDOF 6
