REMARK  Name = ZINCpe000000UFnq.0
REMARK                            x       y       z     vdW  Elec       q    Type
REMARK                         _______ _______ _______ _____ _____    ______ ____
ROOT
ATOM      1  C   LIG    1       -3.304   3.599   1.704  0.00  0.00    +0.290 C 
ATOM      2  N   LIG    1       -2.092   3.711   2.520  0.00  0.00    -0.590 N 
ATOM      3  C   LIG    1       -0.879   3.646   1.937  0.00  0.00    +0.540 C 
ATOM      4  O   LIG    1        0.124   3.738   2.613  0.00  0.00    -0.520 OA
ENDROOT
BRANCH   3   5
ATOM      5  C   LIG    1       -0.768   3.460   0.446  0.00  0.00    +0.010 C 
ATOM      6  C   LIG    1       -1.266   2.058   0.019  0.00  0.00    +0.080 C 
ATOM      7  C   LIG    1       -0.014   1.209   0.009  0.00  0.00    +0.520 C 
ATOM      8  N   LIG    1        1.077   1.993   0.003  0.00  0.00    -0.590 N 
ATOM      9  O   LIG    1        0.002  -0.004   0.002  0.00  0.00    -0.520 OA
ATOM     10  C   LIG    1        0.711   3.415   0.003  0.00  0.00    +0.310 C 
BRANCH   8  11
ATOM     11  C   LIG    1        2.454   1.494  -0.004  0.00  0.00    +0.210 C 
ATOM     12  C   LIG    1        2.660  -0.008  -0.210  0.00  0.00    +0.040 C 
ATOM     13  C   LIG    1        2.892   0.615   1.169  0.00  0.00    +0.000 C 
ENDBRANCH   8  11
ENDBRANCH   3   5
BRANCH   2  14
ATOM     14  C   LIG    1       -2.200   3.892   3.970  0.00  0.00    +0.400 C 
BRANCH  14  15
ATOM     15  C   LIG    1       -2.247   5.364   4.290  0.00  0.00    +0.430 A 
ATOM     16  N   LIG    1       -2.189   6.213   3.302  0.00  0.00    -0.580 NA
ATOM     17  C   LIG    1       -2.226   7.543   3.508  0.00  0.00    +0.530 A 
ATOM     18  C   LIG    1       -2.334   8.027   4.896  0.00  0.00    -0.210 A 
ATOM     19  C   LIG    1       -2.379   9.385   5.205  0.00  0.00    +0.110 A 
ATOM     20  C   LIG    1       -2.481   9.777   6.522  0.00  0.00    -0.010 A 
ATOM     21  C   LIG    1       -2.539   8.831   7.535  0.00  0.00    +0.080 A 
ATOM     22  C   LIG    1       -2.496   7.484   7.245  0.00  0.00    -0.020 A 
ATOM     23  C   LIG    1       -2.393   7.069   5.924  0.00  0.00    +0.180 A 
ATOM     24  O   LIG    1       -2.171   8.325   2.574  0.00  0.00    -0.480 OA
ATOM     25  N   LIG    1       -2.352   5.732   5.579  0.00  0.00    -0.620 N 
ATOM     26  H   LIG    1       -2.395   5.055   6.271  0.00  0.00    +0.420 HD
ENDBRANCH  14  15
ENDBRANCH   2  14
TORSDOF 4
