REMARK  Name = ZINCtj00000rYUj5.0
REMARK                            x       y       z     vdW  Elec       q    Type
REMARK                         _______ _______ _______ _____ _____    ______ ____
ROOT
ATOM      1  C   LIG    1       -1.023   3.249   1.389  0.00  0.00    +0.740 C 
ENDROOT
BRANCH   1   2
ATOM      2  N   LIG    1       -1.628   3.725   2.529  0.00  0.00    -0.620 NA
ATOM      3  C   LIG    1       -1.593   5.157   2.861  0.00  0.00    +0.330 C 
ATOM      4  C   LIG    1       -3.029   5.621   3.148  0.00  0.00    +0.210 C 
ATOM      5  N   LIG    1       -3.619   4.759   4.182  0.00  0.00    -0.470 N 
ATOM      6  C   LIG    1       -3.726   3.369   3.718  0.00  0.00    +0.230 C 
ATOM      7  C   LIG    1       -2.323   2.814   3.451  0.00  0.00    +0.300 C 
BRANCH   5   8
ATOM      8  C   LIG    1       -4.856   5.245   4.590  0.00  0.00    +0.300 A 
ATOM      9  C   LIG    1       -4.961   6.547   5.069  0.00  0.00    -0.040 A 
ATOM     10  C   LIG    1       -6.199   7.019   5.468  0.00  0.00    +0.090 A 
ATOM     11  C   LIG    1       -7.292   6.167   5.382  0.00  0.00    -0.050 A 
ATOM     12  C   LIG    1       -7.114   4.886   4.901  0.00  0.00    +0.290 A 
ATOM     13  N   LIG    1       -5.922   4.463   4.523  0.00  0.00    -0.520 NA
ENDBRANCH   5   8
ENDBRANCH   1   2
BRANCH   1  14
ATOM     14  N   LIG    1       -1.093   3.932   0.281  0.00  0.00    -0.630 NA
ATOM     15  H   LIG    1       -1.540   4.792   0.269  0.00  0.00    +0.440 HD
BRANCH  14  16
ATOM     16  C   LIG    1       -0.495   3.399  -0.946  0.00  0.00    +0.240 C 
ATOM     17  C   LIG    1        0.978   3.804  -1.014  0.00  0.00    +0.080 C 
BRANCH  16  18
ATOM     18  C   LIG    1       -1.236   3.962  -2.160  0.00  0.00    +0.210 C 
BRANCH  18  20
ATOM     19  C   LIG    1       -1.690   6.005  -3.330  0.00  0.00    +0.230 C 
ATOM     20  O   LIG    1       -1.037   5.376  -2.226  0.00  0.00    -0.390 OA
ENDBRANCH  18  20
ENDBRANCH  16  18
ENDBRANCH  14  16
ENDBRANCH   1  14
BRANCH   1  21
ATOM     21  N   LIG    1       -0.344   2.054   1.419  0.00  0.00    -0.700 NA
ATOM     22  H   LIG    1        0.371   1.887   0.786  0.00  0.00    +0.440 HD
BRANCH  21  23
ATOM     23  C   LIG    1       -0.701   1.034   2.408  0.00  0.00    +0.310 C 
BRANCH  23  24
ATOM     24  C   LIG    1        0.334  -0.092   2.375  0.00  0.00    +0.140 C 
ATOM     25  O   LIG    1        0.357  -0.683   1.072  0.00  0.00    -0.380 OA
ATOM     26  C   LIG    1        1.265  -1.782   0.958  0.00  0.00    +0.210 C 
ATOM     27  C   LIG    1        0.891  -2.852   1.988  0.00  0.00    +0.200 C 
ATOM     28  O   LIG    1        0.868  -2.262   3.291  0.00  0.00    -0.360 OA
ATOM     29  C   LIG    1       -0.039  -1.161   3.406  0.00  0.00    +0.090 C 
ATOM     30  C   LIG    1       -1.466  -1.647   3.145  0.00  0.00    +0.040 C 
ATOM     31  C   LIG    1        0.051  -0.568   4.814  0.00  0.00    +0.070 C 
ENDBRANCH  23  24
ENDBRANCH  21  23
ENDBRANCH   1  21
TORSDOF 9
