REMARK  Name = ZINCrH000004mtr2.0
REMARK                            x       y       z     vdW  Elec       q    Type
REMARK                         _______ _______ _______ _____ _____    ______ ____
ROOT
ATOM      1  C   LIG    1        1.028  10.185   0.150  0.00  0.00    +0.510 C 
ATOM      2  N   LIG    1       -0.127   9.496   0.055  0.00  0.00    -0.670 N 
ATOM      3  H   LIG    1       -0.970   9.970  -0.012  0.00  0.00    +0.420 HD
ATOM      4  O   LIG    1        2.088   9.596   0.137  0.00  0.00    -0.510 OA
ENDROOT
BRANCH   2   5
ATOM      5  C   LIG    1       -0.108   8.098   0.052  0.00  0.00    +0.140 A 
ATOM      6  C   LIG    1        0.849   7.415   0.793  0.00  0.00    +0.020 A 
ATOM      7  C   LIG    1        0.870   6.037   0.792  0.00  0.00    +0.040 A 
ATOM      8  C   LIG    1       -0.071   5.327   0.047  0.00  0.00    -0.060 A 
ATOM      9  C   LIG    1       -1.028   6.014  -0.699  0.00  0.00    +0.040 A 
ATOM     10  C   LIG    1       -1.047   7.393  -0.691  0.00  0.00    -0.010 A 
BRANCH   8  11
ATOM     11  C   LIG    1       -0.051   3.844   0.044  0.00  0.00    -0.040 A 
ATOM     12  C   LIG    1       -0.991   3.133  -0.700  0.00  0.00    +0.020 A 
ATOM     13  C   LIG    1       -0.968   1.753  -0.699  0.00  0.00    +0.000 A 
ATOM     14  C   LIG    1       -0.014   1.076   0.039  0.00  0.00    +0.000 A 
ATOM     15  C   LIG    1        0.918   1.776   0.783  0.00  0.00    +0.000 A 
ATOM     16  C   LIG    1        0.908   3.156   0.785  0.00  0.00    +0.020 A 
ENDBRANCH   8  11
ENDBRANCH   2   5
BRANCH   1  17
ATOM     17  C   LIG    1        1.001  11.687   0.272  0.00  0.00    +0.320 C 
BRANCH  17  19
ATOM     18  C   LIG    1        2.595  13.518   0.475  0.00  0.00    +0.570 C 
ATOM     19  N   LIG    1        2.373  12.194   0.359  0.00  0.00    -0.720 N 
ATOM     20  H   LIG    1        3.120  11.577   0.333  0.00  0.00    +0.410 HD
ATOM     21  O   LIG    1        1.657  14.292   0.508  0.00  0.00    -0.540 OA
BRANCH  18  25
ATOM     22  C   LIG    1        6.571  14.989   0.728  0.00  0.00    +0.160 A 
ATOM     23  C   LIG    1        5.500  15.875   0.765  0.00  0.00    -0.020 A 
ATOM     24  C   LIG    1        4.210  15.402   0.683  0.00  0.00    +0.130 A 
ATOM     25  C   LIG    1        3.977  14.029   0.563  0.00  0.00    -0.180 A 
ATOM     26  C   LIG    1        5.056  13.142   0.532  0.00  0.00    +0.090 A 
ATOM     27  C   LIG    1        6.343  13.623   0.609  0.00  0.00    -0.080 A 
BRANCH  22  29
ATOM     28  C   LIG    1        8.894  14.493   0.766  0.00  0.00    +0.240 C 
ATOM     29  O   LIG    1        7.841  15.459   0.809  0.00  0.00    -0.310 OA
ENDBRANCH  22  29
ENDBRANCH  18  25
ENDBRANCH  17  19
ENDBRANCH   1  17
TORSDOF 6
