REMARK  Name = ZINCrH000004jLuc.0
REMARK                            x       y       z     vdW  Elec       q    Type
REMARK                         _______ _______ _______ _____ _____    ______ ____
ROOT
ATOM      1  C   LIG    1       -3.779   5.915   0.284  0.00  0.00    -0.010 C 
ATOM      2  C   LIG    1       -4.642   5.643  -0.950  0.00  0.00    +0.070 C 
ATOM      3  C   LIG    1       -5.945   6.438  -0.841  0.00  0.00    +0.230 C 
ATOM      4  N   LIG    1       -5.639   7.871  -0.742  0.00  0.00    -0.420 N 
ATOM      5  C   LIG    1       -4.851   8.163   0.462  0.00  0.00    +0.210 C 
ATOM      6  C   LIG    1       -3.515   7.419   0.392  0.00  0.00    +0.080 C 
ENDROOT
BRANCH   4   7
ATOM      7  C   LIG    1       -6.790   8.624  -0.773  0.00  0.00    +0.430 A 
ATOM      8  N   LIG    1       -7.690   8.581  -1.722  0.00  0.00    -0.490 NA
ATOM      9  C   LIG    1       -8.687   9.458  -1.419  0.00  0.00    +0.040 A 
ATOM     10  C   LIG    1       -9.874   9.823  -2.054  0.00  0.00    +0.070 A 
ATOM     11  C   LIG    1      -10.695  10.768  -1.477  0.00  0.00    +0.030 A 
ATOM     12  C   LIG    1      -10.347  11.357  -0.272  0.00  0.00    +0.040 A 
ATOM     13  C   LIG    1       -9.174  11.005   0.367  0.00  0.00    +0.040 A 
ATOM     14  C   LIG    1       -8.338  10.056  -0.199  0.00  0.00    +0.000 A 
ATOM     15  O   LIG    1       -7.157   9.509   0.171  0.00  0.00    -0.230 OA
ENDBRANCH   4   7
BRANCH   1  18
ATOM     16  N   LIG    1       -2.456   3.838   0.046  0.00  0.00    -0.660 N 
ATOM     17  H   LIG    1       -3.292   3.349  -0.014  0.00  0.00    +0.420 HD
ATOM     18  C   LIG    1       -2.469   5.181   0.155  0.00  0.00    +0.520 C 
ATOM     19  O   LIG    1       -1.425   5.800   0.148  0.00  0.00    -0.520 OA
BRANCH  16  25
ATOM     20  C   LIG    1       -1.134   1.886   0.602  0.00  0.00    +0.060 A 
ATOM     21  C   LIG    1        0.078   1.212   0.577  0.00  0.00    -0.010 A 
ATOM     22  C   LIG    1        1.176   1.786  -0.035  0.00  0.00    +0.000 A 
ATOM     23  C   LIG    1        1.073   3.035  -0.618  0.00  0.00    +0.030 A 
ATOM     24  C   LIG    1       -0.130   3.717  -0.593  0.00  0.00    +0.020 A 
ATOM     25  C   LIG    1       -1.236   3.149   0.019  0.00  0.00    +0.170 A 
BRANCH  20  27
ATOM     26  C   LIG    1       -2.595   0.028   0.576  0.00  0.00    +0.190 C 
ATOM     27  N   LIG    1       -2.248   1.304   1.216  0.00  0.00    -0.510 N 
ATOM     28  C   LIG    1       -2.023   1.126   2.657  0.00  0.00    +0.200 C 
ENDBRANCH  20  27
ENDBRANCH  16  25
ENDBRANCH   1  18
TORSDOF 4
