REMARK  Name = ZINCrg000000tSIl.0
REMARK                            x       y       z     vdW  Elec       q    Type
REMARK                         _______ _______ _______ _____ _____    ______ ____
ROOT
ATOM      1  C   LIG    1        4.394  -0.410   1.991  0.00  0.00    -0.160 A 
ATOM      2  C   LIG    1        4.673   0.766   1.320  0.00  0.00    +0.080 A 
ATOM      3  C   LIG    1        3.667   1.442   0.657  0.00  0.00    -0.050 A 
ATOM      4  C   LIG    1        2.372   0.938   0.666  0.00  0.00    +0.220 A 
ATOM      5  C   LIG    1        2.094  -0.241   1.346  0.00  0.00    -0.060 A 
ATOM      6  C   LIG    1        3.106  -0.914   2.001  0.00  0.00    +0.070 A 
ENDROOT
BRANCH   1  10
ATOM      7  O   LIG    1        6.889  -1.434   5.956  0.00  0.00    -0.500 OA
ATOM      8  C   LIG    1        6.297  -1.797   4.963  0.00  0.00    +0.520 C 
ATOM      9  C   LIG    1        5.423  -0.827   4.208  0.00  0.00    +0.100 C 
ATOM     10  C   LIG    1        5.494  -1.144   2.713  0.00  0.00    +0.280 C 
ATOM     11  N   LIG    1        5.334  -2.585   2.510  0.00  0.00    -0.720 N 
ATOM     12  H   LIG    1        4.853  -2.908   1.732  0.00  0.00    +0.430 HD
ATOM     13  C   LIG    1        5.845  -3.466   3.386  0.00  0.00    +0.710 C 
ATOM     14  O   LIG    1        5.785  -4.654   3.135  0.00  0.00    -0.560 OA
ATOM     15  N   LIG    1        6.419  -3.066   4.532  0.00  0.00    -0.680 N 
ATOM     16  H   LIG    1        6.931  -3.701   5.057  0.00  0.00    +0.430 HD
ENDBRANCH   1  10
BRANCH   4  17
ATOM     17  N   LIG    1        1.352   1.619  -0.002  0.00  0.00    -0.730 N 
ATOM     18  H   LIG    1        1.547   2.444  -0.473  0.00  0.00    +0.410 HD
BRANCH  17  19
ATOM     19  C   LIG    1       -0.013   1.086   0.008  0.00  0.00    +0.270 C 
ATOM     20  C   LIG    1       -0.815   1.624  -1.194  0.00  0.00    +0.110 C 
ATOM     21  C   LIG    1       -1.951   2.388  -0.549  0.00  0.00    +0.530 C 
ATOM     22  N   LIG    1       -1.834   2.309   0.782  0.00  0.00    -0.580 N 
ATOM     23  O   LIG    1       -2.828   2.976  -1.144  0.00  0.00    -0.460 OA
ATOM     24  C   LIG    1       -0.777   1.601   1.208  0.00  0.00    +0.510 C 
ATOM     25  O   LIG    1       -0.480   1.404   2.367  0.00  0.00    -0.440 OA
BRANCH  22  26
ATOM     26  C   LIG    1       -2.782   2.946   1.700  0.00  0.00    +0.340 C 
BRANCH  26  27
ATOM     27  C   LIG    1       -3.917   1.971   2.018  0.00  0.00    +0.440 C 
ATOM     28  F   LIG    1       -4.577   1.620   0.836  0.00  0.00    -0.170 F 
ATOM     29  F   LIG    1       -4.822   2.579   2.895  0.00  0.00    -0.170 F 
ATOM     30  F   LIG    1       -3.390   0.822   2.617  0.00  0.00    -0.170 F 
ENDBRANCH  26  27
ENDBRANCH  22  26
ENDBRANCH  17  19
ENDBRANCH   4  17
TORSDOF 5
