REMARK  Name = ZINCqH00000014Fj.0
REMARK                            x       y       z     vdW  Elec       q    Type
REMARK                         _______ _______ _______ _____ _____    ______ ____
ROOT
ATOM      1  N   LIG    1        2.318   3.899   0.001  0.00  0.00    -0.690 N 
ATOM      2  H   LIG    1        3.164   3.424  -0.010  0.00  0.00    +0.420 HD
ENDROOT
BRANCH   1   9
ATOM      3  C   LIG    1       -2.524   3.525   0.044  0.00  0.00    +0.220 A 
ATOM      4  N   LIG    1       -3.258   2.439   0.046  0.00  0.00    -0.260 NA
ATOM      5  N   LIG    1       -2.505   1.395   0.033  0.00  0.00    -0.250 NA
ATOM      6  C   LIG    1       -1.236   1.772   0.018  0.00  0.00    +0.110 A 
ATOM      7  C   LIG    1       -0.013   1.076   0.008  0.00  0.00    +0.190 A 
ATOM      8  C   LIG    1        1.150   1.780   0.001  0.00  0.00    -0.020 A 
ATOM      9  C   LIG    1        1.123   3.188   0.008  0.00  0.00    +0.420 A 
ATOM     10  N   LIG    1       -0.017   3.839   0.022  0.00  0.00    -0.330 NA
ATOM     11  N   LIG    1       -1.229   3.145   0.030  0.00  0.00    -0.270 N 
BRANCH   3  13
ATOM     12  C   LIG    1       -2.541   5.674  -1.192  0.00  0.00    +0.050 C 
ATOM     13  C   LIG    1       -3.035   4.943   0.057  0.00  0.00    +0.030 C 
ATOM     14  C   LIG    1       -2.517   5.660   1.306  0.00  0.00    +0.050 C 
ATOM     15  C   LIG    1       -4.565   4.934   0.072  0.00  0.00    +0.080 C 
ENDBRANCH   3  13
ENDBRANCH   1   9
BRANCH   1  16
ATOM     16  C   LIG    1        2.300   5.364   0.009  0.00  0.00    +0.240 C 
ATOM     17  C   LIG    1        2.155   5.882  -1.425  0.00  0.00    -0.010 C 
ATOM     18  C   LIG    1        2.216   7.412  -1.415  0.00  0.00    +0.230 C 
ATOM     19  O   LIG    1        3.448   7.834  -0.826  0.00  0.00    -0.370 OA
ATOM     20  C   LIG    1        3.618   7.418   0.531  0.00  0.00    +0.210 C 
ATOM     21  C   LIG    1        3.613   5.889   0.599  0.00  0.00    +0.010 C 
BRANCH  20  22
ATOM     22  C   LIG    1        4.931   7.941   1.056  0.00  0.00    -0.090 A 
ATOM     23  C   LIG    1        6.026   8.025   0.216  0.00  0.00    +0.040 A 
ATOM     24  C   LIG    1        7.229   8.509   0.697  0.00  0.00    +0.000 A 
ATOM     25  C   LIG    1        7.339   8.898   2.018  0.00  0.00    +0.000 A 
ATOM     26  C   LIG    1        6.245   8.809   2.859  0.00  0.00    +0.000 A 
ATOM     27  C   LIG    1        5.041   8.329   2.378  0.00  0.00    +0.010 A 
ENDBRANCH  20  22
ENDBRANCH   1  16
TORSDOF 4
