REMARK  Name = ZINCrD000000fnFA.0
REMARK                            x       y       z     vdW  Elec       q    Type
REMARK                         _______ _______ _______ _____ _____    ______ ____
ROOT
ATOM      1  C   LIG    1        0.666  -0.813   0.894  0.00  0.00    +0.200 A 
ATOM      2  N   LIG    1        0.302  -2.047   0.647  0.00  0.00    -0.310 NA
ATOM      3  N   LIG    1       -0.467  -2.047  -0.524  0.00  0.00    -0.320 NA
ATOM      4  C   LIG    1       -0.554  -0.812  -0.953  0.00  0.00    +0.410 A 
ATOM      5  N   LIG    1        0.149  -0.015  -0.091  0.00  0.00    -0.420 N 
ENDROOT
BRANCH   5   6
ATOM      6  C   LIG    1        0.308   1.375  -0.195  0.00  0.00    +0.100 A 
ATOM      7  C   LIG    1       -0.789   2.213  -0.050  0.00  0.00    +0.050 A 
ATOM      8  C   LIG    1       -0.629   3.582  -0.147  0.00  0.00    +0.020 A 
ATOM      9  C   LIG    1        0.621   4.116  -0.401  0.00  0.00    -0.070 A 
ATOM     10  C   LIG    1        1.714   3.284  -0.552  0.00  0.00    +0.020 A 
ATOM     11  C   LIG    1        0.791   5.609  -0.512  0.00  0.00    +0.100 C 
ATOM     12  C   LIG    1        1.561   1.915  -0.450  0.00  0.00    +0.040 A 
ENDBRANCH   5   6
BRANCH   4  13
ATOM     13  N   LIG    1       -1.237  -0.386  -2.085  0.00  0.00    -0.460 N 
ATOM     14  C   LIG    1       -2.667  -0.707  -1.988  0.00  0.00    +0.210 C 
ATOM     15  C   LIG    1       -3.410  -0.098  -3.179  0.00  0.00    +0.030 C 
ATOM     16  C   LIG    1       -2.828  -0.661  -4.479  0.00  0.00    +0.010 C 
ATOM     17  C   LIG    1       -1.329  -0.355  -4.532  0.00  0.00    +0.030 C 
ATOM     18  C   LIG    1       -0.646  -0.957  -3.302  0.00  0.00    +0.200 C 
ENDBRANCH   4  13
BRANCH   1  19
ATOM     19  S   LIG    1        1.648  -0.275   2.255  0.00  0.00    +0.080 S 
BRANCH  19  20
ATOM     20  C   LIG    1        1.984  -1.816   3.150  0.00  0.00    +0.010 C 
ATOM     21  C   LIG    1        0.673  -2.383   3.699  0.00  0.00    +0.080 C 
BRANCH  20  24
ATOM     22  N   LIG    1        3.709  -2.526   4.775  0.00  0.00    -0.720 N 
ATOM     23  H   LIG    1        3.662  -3.414   4.389  0.00  0.00    +0.410 HD
ATOM     24  C   LIG    1        2.929  -1.539   4.291  0.00  0.00    +0.540 C 
ATOM     25  O   LIG    1        2.987  -0.428   4.774  0.00  0.00    -0.520 OA
BRANCH  22  26
ATOM     26  C   LIG    1        4.627  -2.256   5.885  0.00  0.00    +0.310 C 
BRANCH  26  28
ATOM     27  C   LIG    1        6.687  -3.515   6.248  0.00  0.00    +0.050 C 
ATOM     28  C   LIG    1        5.377  -3.515   6.233  0.00  0.00    -0.060 C 
ENDBRANCH  26  28
ENDBRANCH  22  26
ENDBRANCH  20  24
ENDBRANCH  19  20
ENDBRANCH   1  19
TORSDOF 7
