REMARK  Name = ZINCvU00000004SX.0
REMARK                            x       y       z     vdW  Elec       q    Type
REMARK                         _______ _______ _______ _____ _____    ______ ____
ROOT
ATOM      1  C   LIG    1        2.836   3.881   0.117  0.00  0.00    +0.070 C 
ATOM      2  C   LIG    1        1.367   3.496  -0.076  0.00  0.00    +0.180 C 
ENDROOT
BRANCH   2   3
ATOM      3  N   LIG    1        1.242   2.032  -0.082  0.00  0.00    -0.510 NA
ATOM      4  C   LIG    1       -0.159   1.625  -0.259  0.00  0.00    +0.190 C 
ATOM      5  C   LIG    1       -0.236   0.098  -0.340  0.00  0.00    +0.180 C 
ATOM      6  N   LIG    1        0.328  -0.484   0.886  0.00  0.00    -0.530 NA
ATOM      7  C   LIG    1        1.728  -0.076   1.063  0.00  0.00    +0.180 C 
ATOM      8  C   LIG    1        1.806   1.450   1.143  0.00  0.00    +0.190 C 
BRANCH   6   9
ATOM      9  C   LIG    1        0.202  -1.948   0.880  0.00  0.00    +0.210 C 
BRANCH   9  10
ATOM     10  C   LIG    1        1.001  -2.525   2.020  0.00  0.00    -0.030 C 
ATOM     11  C   LIG    1        0.415  -3.324   2.901  0.00  0.00    +0.010 C 
BRANCH  11  12
ATOM     12  C   LIG    1        1.198  -3.890   4.020  0.00  0.00    -0.060 A 
ATOM     13  C   LIG    1        2.555  -3.591   4.147  0.00  0.00    +0.000 A 
ATOM     14  C   LIG    1        3.279  -4.117   5.197  0.00  0.00    +0.000 A 
ATOM     15  C   LIG    1        2.665  -4.951   6.115  0.00  0.00    +0.000 A 
ATOM     16  C   LIG    1        1.322  -5.256   5.991  0.00  0.00    +0.000 A 
ATOM     17  C   LIG    1        0.585  -4.731   4.949  0.00  0.00    +0.010 A 
ENDBRANCH  11  12
ENDBRANCH   9  10
ENDBRANCH   6   9
ENDBRANCH   2   3
BRANCH   2  18
ATOM     18  C   LIG    1        0.546   4.066   1.052  0.00  0.00    +0.490 C 
ATOM     19  N   LIG    1        0.357   5.397   1.143  0.00  0.00    -0.680 N 
ATOM     20  H   LIG    1        0.686   5.982   0.442  0.00  0.00    +0.410 HD
ATOM     21  O   LIG    1        0.056   3.326   1.879  0.00  0.00    -0.500 OA
BRANCH  19  22
ATOM     22  C   LIG    1       -0.313   5.935   2.247  0.00  0.00    +0.200 A 
ATOM     23  C   LIG    1       -1.345   5.227   2.848  0.00  0.00    +0.050 A 
ATOM     24  C   LIG    1       -2.004   5.760   3.938  0.00  0.00    +0.090 A 
ATOM     25  C   LIG    1       -1.637   6.999   4.432  0.00  0.00    -0.060 A 
ATOM     26  C   LIG    1       -0.609   7.708   3.834  0.00  0.00    +0.110 A 
ATOM     27 CL   LIG    1       -2.468   7.667   5.802  0.00  0.00    -0.050 Cl
ATOM     28  C   LIG    1        0.057   7.177   2.748  0.00  0.00    -0.210 A 
BRANCH  28  29
ATOM     29  C   LIG    1        1.181   7.946   2.102  0.00  0.00    +0.510 C 
ATOM     30  F   LIG    1        0.862   8.203   0.764  0.00  0.00    -0.180 F 
ATOM     31  F   LIG    1        2.358   7.193   2.164  0.00  0.00    -0.170 F 
ATOM     32  F   LIG    1        1.365   9.157   2.778  0.00  0.00    -0.170 F 
ENDBRANCH  28  29
ENDBRANCH  19  22
ENDBRANCH   2  18
TORSDOF 7
