REMARK  Name = ZINCb80000006lfd.0
REMARK                            x       y       z     vdW  Elec       q    Type
REMARK                         _______ _______ _______ _____ _____    ______ ____
ROOT
ATOM      1  N   LIG    1       -2.103   1.072   1.277  0.00  0.00    -0.120 N 
ATOM      2  N   LIG    1       -3.164   1.800   1.297  0.00  0.00    -0.050 NA
ATOM      3  N   LIG    1       -4.201   1.033   1.297  0.00  0.00    -0.240 NA
ATOM      4  C   LIG    1       -3.758  -0.235   1.286  0.00  0.00    +0.070 A 
ATOM      5  N   LIG    1       -2.438  -0.172   1.274  0.00  0.00    -0.250 NA
ENDROOT
BRANCH   1   7
ATOM      6  C   LIG    1       -0.013   1.086   0.008  0.00  0.00    +0.080 C 
ATOM      7  C   LIG    1       -0.729   1.579   1.267  0.00  0.00    +0.170 C 
ATOM      8  C   LIG    1       -0.750   3.109   1.275  0.00  0.00    +0.100 C 
ATOM      9  C   LIG    1        0.011   1.072   2.506  0.00  0.00    +0.080 C 
ENDBRANCH   1   7
BRANCH   4  10
ATOM     10  C   LIG    1       -4.582  -1.457   1.287  0.00  0.00    +0.590 C 
ATOM     11  O   LIG    1       -4.051  -2.546   1.275  0.00  0.00    -0.430 OA
ENDBRANCH   4  10
TORSDOF 2
