REMARK  Name = ZINCpe000000YyKn.2
REMARK                            x       y       z     vdW  Elec       q    Type
REMARK                         _______ _______ _______ _____ _____    ______ ____
ROOT
ATOM      1  C   LIG    1       -8.569  -0.040  -1.146  0.00  0.00    +0.120 C 
ATOM      2  C   LIG    1       -7.824   1.222  -1.589  0.00  0.00    +0.070 C 
ATOM      3  C   LIG    1       -7.278   1.947  -0.356  0.00  0.00    +0.300 C 
ATOM      4  N   LIG    1       -6.461   1.007   0.423  0.00  0.00    -0.610 N 
ATOM      5  C   LIG    1       -7.050  -0.280   0.820  0.00  0.00    +0.280 C 
ATOM      6  C   LIG    1       -5.194   1.316   0.763  0.00  0.00    +0.520 C 
ATOM      7  O   LIG    1       -4.749   2.415   0.509  0.00  0.00    -0.510 OA
ATOM      8  C   LIG    1       -7.601  -0.978  -0.422  0.00  0.00    +0.020 C 
ENDROOT
BRANCH   6   9
ATOM      9  C   LIG    1       -4.331   0.296   1.460  0.00  0.00    +0.130 C 
ATOM     10  C   LIG    1       -4.554   0.385   2.971  0.00  0.00    +0.040 C 
ATOM     11  C   LIG    1       -3.660  -0.639   3.675  0.00  0.00    +0.010 C 
ATOM     12  C   LIG    1       -2.199  -0.371   3.304  0.00  0.00    +0.020 C 
ATOM     13  C   LIG    1       -2.044  -0.438   1.783  0.00  0.00    +0.170 C 
ATOM     14  N   LIG    1       -2.919   0.561   1.156  0.00  0.00    -0.510 NA
BRANCH  14  15
ATOM     15  C   LIG    1       -2.695   0.620  -0.295  0.00  0.00    +0.220 C 
BRANCH  15  16
ATOM     16  C   LIG    1       -1.361   1.266  -0.571  0.00  0.00    -0.070 A 
ATOM     17  C   LIG    1       -0.222   0.487  -0.660  0.00  0.00    +0.000 A 
ATOM     18  C   LIG    1        1.001   1.078  -0.919  0.00  0.00    +0.000 A 
ATOM     19  C   LIG    1        1.085   2.448  -1.083  0.00  0.00    +0.000 A 
ATOM     20  C   LIG    1       -0.053   3.227  -0.989  0.00  0.00    +0.000 A 
ATOM     21  C   LIG    1       -1.276   2.636  -0.730  0.00  0.00    +0.040 A 
ENDBRANCH  15  16
ENDBRANCH  14  15
ENDBRANCH   6   9
BRANCH   1  25
ATOM     22  N   LIG    1      -10.213  -1.541  -2.225  0.00  0.00    -0.850 N 
ATOM     23  H   LIG    1      -10.579  -1.990  -3.003  0.00  0.00    +0.410 HD
ATOM     24  H   LIG    1      -10.621  -1.668  -1.354  0.00  0.00    +0.400 HD
ATOM     25  C   LIG    1       -9.138  -0.738  -2.354  0.00  0.00    +0.500 C 
ATOM     26  O   LIG    1       -8.627  -0.579  -3.442  0.00  0.00    -0.530 OA
ENDBRANCH   1  25
BRANCH   1  27
ATOM     27  O   LIG    1       -9.632   0.321  -0.261  0.00  0.00    -0.540 OA
ATOM     28  H   LIG    1      -10.149  -0.430   0.061  0.00  0.00    +0.380 HD
ENDBRANCH   1  27
TORSDOF 5
