REMARK  Name = ZINC550000002IKd.0
REMARK                            x       y       z     vdW  Elec       q    Type
REMARK                         _______ _______ _______ _____ _____    ______ ____
ROOT
ATOM      1  C   LIG    1        1.145   3.085   0.008  0.00  0.00    +0.030 C 
ENDROOT
BRANCH   1   2
ATOM      2  C   LIG    1        1.286   1.562  -0.002  0.00  0.00    +0.180 C 
BRANCH   2   3
ATOM      3  O   LIG    1       -0.011   0.963   0.007  0.00  0.00    -0.570 OA
ATOM      4  H   LIG    1        0.002  -0.004   0.002  0.00  0.00    +0.380 HD
ENDBRANCH   2   3
ENDBRANCH   1   2
BRANCH   1   5
ATOM      5  C   LIG    1        2.534   3.726  -0.002  0.00  0.00    +0.180 C 
BRANCH   5   6
ATOM      6  O   LIG    1        2.402   5.149   0.007  0.00  0.00    -0.570 OA
ATOM      7  H   LIG    1        3.245   5.623   0.001  0.00  0.00    +0.380 HD
ENDBRANCH   5   6
ENDBRANCH   1   5
TORSDOF 4
