REMARK  Name = ZINCnE00000dNJgw.0
REMARK                            x       y       z     vdW  Elec       q    Type
REMARK                         _______ _______ _______ _____ _____    ______ ____
ROOT
ATOM      1  O   LIG    1        1.121  -4.736  -0.035  0.00  0.00    -0.540 OA
ATOM      2  C   LIG    1        0.058  -4.145  -0.022  0.00  0.00    +0.610 C 
ATOM      3  N   LIG    1        0.036  -2.797  -0.014  0.00  0.00    -0.520 N 
ATOM      4  H   LIG    1       -0.812  -2.326  -0.004  0.00  0.00    +0.420 HD
ENDROOT
BRANCH   2   5
ATOM      5  C   LIG    1       -1.206  -4.902  -0.015  0.00  0.00    -0.330 A 
ATOM      6  C   LIG    1       -1.825  -5.252  -1.223  0.00  0.00    +0.340 A 
ATOM      7  C   LIG    1       -3.010  -5.970  -1.206  0.00  0.00    -0.170 A 
ATOM      8  C   LIG    1       -3.587  -6.329   0.000  0.00  0.00    +0.180 A 
ATOM      9  C   LIG    1       -2.982  -5.980   1.199  0.00  0.00    -0.190 A 
ATOM     10  F   LIG    1       -4.745  -7.024   0.010  0.00  0.00    -0.150 F 
ATOM     11  O   LIG    1       -1.263  -4.895  -2.405  0.00  0.00    -0.680 OA
ATOM     12  C   LIG    1       -1.798  -5.270   1.200  0.00  0.00    +0.210 A 
ATOM     13  F   LIG    1       -1.212  -4.933   2.369  0.00  0.00    -0.150 F 
ENDBRANCH   2   5
BRANCH   3  14
ATOM     14  N   LIG    1        1.238  -2.077  -0.021  0.00  0.00    -0.530 N 
ATOM     15  H   LIG    1        2.085  -2.548  -0.032  0.00  0.00    +0.430 HD
BRANCH  14  16
ATOM     16  C   LIG    1        1.215  -0.680  -0.013  0.00  0.00    +0.270 A 
ATOM     17  C   LIG    1        0.002  -0.004   0.002  0.00  0.00    -0.070 A 
ATOM     18  C   LIG    1       -0.017   1.377   0.010  0.00  0.00    +0.100 A 
ATOM     19  C   LIG    1        1.170   2.086   0.002  0.00  0.00    -0.060 A 
ATOM     20  C   LIG    1        2.380   1.416  -0.013  0.00  0.00    +0.120 A 
ATOM     21  C   LIG    1        2.406   0.035  -0.021  0.00  0.00    -0.270 A 
BRANCH  21  22
ATOM     22  C   LIG    1        3.724  -0.695  -0.038  0.00  0.00    +0.510 C 
ATOM     23  F   LIG    1        3.802  -1.491  -1.185  0.00  0.00    -0.180 F 
ATOM     24  F   LIG    1        3.824  -1.504   1.099  0.00  0.00    -0.180 F 
ATOM     25  F   LIG    1        4.771   0.234  -0.043  0.00  0.00    -0.180 F 
ENDBRANCH  21  22
ENDBRANCH  14  16
ENDBRANCH   3  14
TORSDOF 4
