REMARK  Name = ZINCrg00000SjSJO.0
REMARK                            x       y       z     vdW  Elec       q    Type
REMARK                         _______ _______ _______ _____ _____    ______ ____
ROOT
ATOM      1  N   LIG    1       -2.491  -2.706   0.324  0.00  0.00    -0.540 N 
ATOM      2  C   LIG    1       -3.176  -3.021  -0.793  0.00  0.00    +0.560 A 
ATOM      3  C   LIG    1       -4.491  -3.509  -0.688  0.00  0.00    -0.100 A 
ATOM      4  C   LIG    1       -5.048  -3.652   0.554  0.00  0.00    +0.450 A 
ATOM      5  N   LIG    1       -4.310  -3.318   1.667  0.00  0.00    -0.540 N 
ATOM      6  C   LIG    1       -4.896  -3.468   3.001  0.00  0.00    +0.330 C 
ATOM      7  O   LIG    1       -2.658  -2.885  -1.889  0.00  0.00    -0.510 OA
ATOM      8  C   LIG    1       -3.052  -2.859   1.537  0.00  0.00    +0.710 A 
ATOM      9  O   LIG    1       -2.413  -2.573   2.531  0.00  0.00    -0.540 OA
ENDROOT
BRANCH   3  10
ATOM     10  N   LIG    1       -5.227  -3.845  -1.848  0.00  0.00    -0.620 N 
ATOM     11  C   LIG    1       -6.438  -3.095  -2.209  0.00  0.00    +0.260 C 
ATOM     12  C   LIG    1       -6.292  -2.598  -3.655  0.00  0.00    -0.010 C 
ATOM     13  C   LIG    1       -5.994  -3.789  -4.570  0.00  0.00    +0.010 C 
ATOM     14  C   LIG    1       -4.674  -4.440  -4.149  0.00  0.00    -0.010 C 
ATOM     15  C   LIG    1       -4.799  -4.954  -2.711  0.00  0.00    +0.270 C 
ENDBRANCH   3  10
BRANCH   4  16
ATOM     16  N   LIG    1       -6.332  -4.127   0.689  0.00  0.00    -0.840 N 
ATOM     17  H   LIG    1       -6.697  -4.296   1.572  0.00  0.00    +0.400 HD
ATOM     18  H   LIG    1       -6.873  -4.292  -0.099  0.00  0.00    +0.420 HD
ENDBRANCH   4  16
BRANCH   1  19
ATOM     19  C   LIG    1       -1.121  -2.198   0.216  0.00  0.00    +0.360 C 
BRANCH  19  22
ATOM     20  N   LIG    1        0.003  -0.005   0.001  0.00  0.00    -0.670 N 
ATOM     21  H   LIG    1        0.844  -0.479  -0.095  0.00  0.00    +0.410 HD
ATOM     22  C   LIG    1       -1.150  -0.695   0.110  0.00  0.00    +0.510 C 
ATOM     23  O   LIG    1       -2.210  -0.106   0.123  0.00  0.00    -0.510 OA
BRANCH  20  28
ATOM     24  C   LIG    1       -0.064   5.666   0.099  0.00  0.00    +0.100 C 
ATOM     25  C   LIG    1       -0.046   4.160   0.073  0.00  0.00    -0.100 A 
ATOM     26  C   LIG    1       -1.056   3.447   0.694  0.00  0.00    +0.020 A 
ATOM     27  C   LIG    1       -1.042   2.066   0.671  0.00  0.00    +0.020 A 
ATOM     28  C   LIG    1       -0.014   1.393   0.024  0.00  0.00    +0.140 A 
ATOM     29  C   LIG    1        1.001   2.112  -0.594  0.00  0.00    -0.010 A 
ATOM     30  C   LIG    1        0.979   3.493  -0.573  0.00  0.00    +0.030 A 
ENDBRANCH  20  28
ENDBRANCH  19  22
ENDBRANCH   1  19
TORSDOF 5
