REMARK  Name = ZINCvU0000000996.0
REMARK                            x       y       z     vdW  Elec       q    Type
REMARK                         _______ _______ _______ _____ _____    ______ ____
ROOT
ATOM      1  C   LIG    1       -0.382   3.487  -0.354  0.00  0.00    +0.100 A 
ATOM      2  C   LIG    1        0.876   2.984  -0.092  0.00  0.00    +0.000 A 
ATOM      3  C   LIG    1        1.138   1.621  -0.291  0.00  0.00    -0.090 A 
ATOM      4  C   LIG    1        0.120   0.778  -0.755  0.00  0.00    +0.060 A 
ATOM      5  C   LIG    1       -1.131   1.291  -1.019  0.00  0.00    -0.040 A 
ATOM      6  C   LIG    1       -1.390   2.640  -0.817  0.00  0.00    +0.120 A 
ENDROOT
BRANCH   3   7
ATOM      7  C   LIG    1        2.472   1.081  -0.015  0.00  0.00    +0.190 C 
ATOM      8  C   LIG    1        2.604  -0.100   0.656  0.00  0.00    -0.160 C 
ATOM      9  C   LIG    1        3.829  -0.897   0.837  0.00  0.00    +0.560 C 
ATOM     10  N   LIG    1        3.513  -1.985   1.560  0.00  0.00    -0.650 N 
ATOM     11  H   LIG    1        4.147  -2.672   1.818  0.00  0.00    +0.420 HD
ATOM     12  C   LIG    1        2.164  -2.000   1.892  0.00  0.00    +0.160 A 
ATOM     13  C   LIG    1        1.400  -2.908   2.616  0.00  0.00    +0.010 A 
ATOM     14  C   LIG    1        0.050  -2.682   2.805  0.00  0.00    +0.000 A 
ATOM     15  C   LIG    1       -0.557  -1.553   2.279  0.00  0.00    +0.010 A 
ATOM     16  C   LIG    1        0.186  -0.641   1.558  0.00  0.00    +0.090 A 
ATOM     17 CL   LIG    1       -0.894  -3.823   3.711  0.00  0.00    -0.060 Cl
ATOM     18  O   LIG    1        4.933  -0.619   0.406  0.00  0.00    -0.500 OA
ATOM     19  C   LIG    1        1.547  -0.856   1.367  0.00  0.00    -0.100 A 
ENDBRANCH   3   7
BRANCH   1  21
ATOM     20  C   LIG    1        0.439   5.617   0.312  0.00  0.00    +0.240 C 
ATOM     21  O   LIG    1       -0.640   4.808  -0.162  0.00  0.00    -0.300 OA
ENDBRANCH   1  21
BRANCH   6  22
ATOM     22  O   LIG    1       -2.627   3.138  -1.074  0.00  0.00    -0.290 OA
BRANCH  22  23
ATOM     23  C   LIG    1       -3.612   2.216  -1.545  0.00  0.00    +0.250 C 
BRANCH  23  24
ATOM     24  C   LIG    1       -4.912   2.943  -1.774  0.00  0.00    -0.040 A 
ATOM     25  C   LIG    1       -5.837   3.045  -0.751  0.00  0.00    +0.060 A 
ATOM     26  C   LIG    1       -7.027   3.716  -0.960  0.00  0.00    +0.100 A 
ATOM     27  C   LIG    1       -7.297   4.277  -2.194  0.00  0.00    -0.030 A 
ATOM     28  C   LIG    1       -6.374   4.172  -3.218  0.00  0.00    +0.100 A 
ATOM     29  C   LIG    1       -5.181   3.505  -3.008  0.00  0.00    +0.060 A 
BRANCH  27  30
ATOM     30  N   LIG    1       -8.574   4.991  -2.420  0.00  0.00    +0.020 N 
ATOM     31  O   LIG    1       -9.387   5.084  -1.518  0.00  0.00    -0.150 OA
ATOM     32  O   LIG    1       -8.811   5.486  -3.507  0.00  0.00    -0.150 OA
ENDBRANCH  27  30
ENDBRANCH  23  24
ENDBRANCH  22  23
ENDBRANCH   6  22
TORSDOF 6
