REMARK  Name = ZINCrH000004tXGZ.0
REMARK                            x       y       z     vdW  Elec       q    Type
REMARK                         _______ _______ _______ _____ _____    ______ ____
ROOT
ATOM      1  O   LIG    1        2.401   7.741  -1.031  0.00  0.00    -0.510 OA
ATOM      2  C   LIG    1        2.565   7.149   0.015  0.00  0.00    +0.520 C 
ATOM      3  N   LIG    1        2.904   5.844   0.004  0.00  0.00    -0.620 N 
ATOM      4  C   LIG    1        3.079   5.127  -1.266  0.00  0.00    +0.290 C 
ATOM      5  C   LIG    1        2.200   3.873  -1.249  0.00  0.00    +0.030 C 
ATOM      6  C   LIG    1        2.527   3.041  -0.006  0.00  0.00    +0.100 C 
ATOM      7  C   LIG    1        2.226   3.859   1.251  0.00  0.00    +0.030 C 
ATOM      8  C   LIG    1        3.106   5.113   1.263  0.00  0.00    +0.280 C 
ENDROOT
BRANCH   6   9
ATOM      9  C   LIG    1        1.688   1.789  -0.004  0.00  0.00    +0.060 A 
ATOM     10  N   LIG    1        2.155   0.587  -0.015  0.00  0.00    -0.440 NA
ATOM     11  C   LIG    1        1.279  -0.398  -0.012  0.00  0.00    -0.020 A 
ATOM     12  C   LIG    1        0.002  -0.004   0.002  0.00  0.00    -0.020 A 
ATOM     13  S   LIG    1       -0.022   1.758   0.012  0.00  0.00    +0.190 S 
BRANCH  11  14
ATOM     14  C   LIG    1        1.684  -1.849  -0.024  0.00  0.00    +0.550 C 
ATOM     15  F   LIG    1        2.357  -2.155   1.164  0.00  0.00    -0.170 F 
ATOM     16  F   LIG    1        2.529  -2.089  -1.113  0.00  0.00    -0.170 F 
ATOM     17  F   LIG    1        0.543  -2.651  -0.133  0.00  0.00    -0.170 F 
ENDBRANCH  11  14
ENDBRANCH   6   9
BRANCH   2  18
ATOM     18  C   LIG    1        2.388   7.871   1.326  0.00  0.00    +0.160 C 
BRANCH  18  19
ATOM     19  C   LIG    1        2.013   9.306   1.062  0.00  0.00    +0.070 A 
ATOM     20  C   LIG    1        0.921   9.937   1.547  0.00  0.00    +0.090 A 
ATOM     21  N   LIG    1        0.953  11.221   1.075  0.00  0.00    -0.360 N 
ATOM     22  C   LIG    1        0.118  12.288   1.243  0.00  0.00    +0.210 A 
ATOM     23  C   LIG    1        0.385  13.469   0.648  0.00  0.00    +0.010 A 
ATOM     24  C   LIG    1        1.528  13.617  -0.154  0.00  0.00    +0.040 A 
ATOM     25  C   LIG    1        2.368  12.562  -0.331  0.00  0.00    +0.070 A 
ATOM     26  C   LIG    1        2.077  11.334   0.298  0.00  0.00    +0.220 A 
ATOM     27  N   LIG    1        2.700  10.165   0.305  0.00  0.00    -0.460 NA
ENDBRANCH  18  19
ENDBRANCH   2  18
TORSDOF 4
