REMARK  Name = ZINCnE00000rhmr1.0
REMARK                            x       y       z     vdW  Elec       q    Type
REMARK                         _______ _______ _______ _____ _____    ______ ____
ROOT
ATOM      1  C   LIG    1       -3.540  -0.903   0.131  0.00  0.00    -0.120 C 
ATOM      2  C   LIG    1       -3.410  -2.276   0.063  0.00  0.00    +0.100 C 
ENDROOT
BRANCH   1   3
ATOM      3  C   LIG    1       -2.339  -0.053   0.296  0.00  0.00    +0.260 A 
ATOM      4  N   LIG    1       -1.927   0.684  -0.719  0.00  0.00    -0.460 NA
ATOM      5  C   LIG    1       -0.849   1.465  -0.614  0.00  0.00    +0.150 A 
ATOM      6  C   LIG    1       -0.414   2.248  -1.699  0.00  0.00    +0.040 A 
ATOM      7  C   LIG    1        0.688   3.035  -1.565  0.00  0.00    +0.010 A 
ATOM      8  C   LIG    1        1.398   3.080  -0.368  0.00  0.00    -0.010 A 
ATOM      9  C   LIG    1        1.008   2.335   0.704  0.00  0.00    +0.030 A 
ATOM     10  C   LIG    1       -0.124   1.513   0.603  0.00  0.00    -0.110 A 
ATOM     11  C   LIG    1       -0.555   0.725   1.690  0.00  0.00    +0.070 A 
ATOM     12  C   LIG    1       -1.664  -0.049   1.528  0.00  0.00    -0.010 A 
ENDBRANCH   1   3
BRANCH   2  13
ATOM     13  C   LIG    1       -2.078  -2.883  -0.004  0.00  0.00    -0.060 A 
ATOM     14  C   LIG    1       -1.036  -2.225  -0.672  0.00  0.00    +0.040 A 
ATOM     15  C   LIG    1        0.215  -2.801  -0.725  0.00  0.00    +0.000 A 
ATOM     16  C   LIG    1        0.441  -4.032  -0.131  0.00  0.00    +0.000 A 
ATOM     17  C   LIG    1       -0.585  -4.692   0.526  0.00  0.00    -0.010 A 
ATOM     18  C   LIG    1       -1.840  -4.128   0.595  0.00  0.00    +0.030 A 
ENDBRANCH   2  13
BRANCH   1  19
ATOM     19  C   LIG    1       -4.864  -0.288   0.042  0.00  0.00    +0.340 C 
ATOM     20  O   LIG    1       -5.840  -0.977  -0.181  0.00  0.00    -0.450 OA
BRANCH  19  22
ATOM     21  O   LIG    1       -6.092   1.720   0.002  0.00  0.00    -0.650 OA
ATOM     22  C   LIG    1       -5.017   1.185   0.224  0.00  0.00    +0.470 C 
ATOM     23  O   LIG    1       -4.067   1.856   0.595  0.00  0.00    -0.650 OA
ENDBRANCH  19  22
ENDBRANCH   1  19
TORSDOF 4
