REMARK  Name = ZINCnE00000rhmR1.1
REMARK                            x       y       z     vdW  Elec       q    Type
REMARK                         _______ _______ _______ _____ _____    ______ ____
ROOT
ATOM      1  C   LIG    1        2.917  -0.488   2.470  0.00  0.00    +0.140 C 
ENDROOT
BRANCH   1   2
ATOM      2  C   LIG    1        4.353   0.041   2.459  0.00  0.00    +0.020 C 
ATOM      3  C   LIG    1        5.069  -0.452   1.200  0.00  0.00    +0.020 C 
ATOM      4  C   LIG    1        6.504   0.078   1.190  0.00  0.00    -0.010 C 
ATOM      5  C   LIG    1        7.244  -0.429   2.429  0.00  0.00    +0.000 C 
ATOM      6  C   LIG    1        6.528   0.064   3.688  0.00  0.00    +0.010 C 
ATOM      7  C   LIG    1        5.093  -0.465   3.699  0.00  0.00    +0.010 C 
ENDBRANCH   1   2
BRANCH   1   8
ATOM      8  C   LIG    1        2.178   0.019   1.231  0.00  0.00    -0.010 C 
ATOM      9  C   LIG    1        0.742  -0.511   1.242  0.00  0.00    +0.020 C 
ATOM     10  C   LIG    1        0.002  -0.004   0.002  0.00  0.00    +0.000 C 
ATOM     11  C   LIG    1       -0.019   1.526   0.010  0.00  0.00    +0.000 C 
ATOM     12  C   LIG    1        1.417   2.055  -0.000  0.00  0.00    +0.000 C 
ATOM     13  C   LIG    1        2.157   1.548   1.239  0.00  0.00    +0.020 C 
ENDBRANCH   1   8
BRANCH   1  15
ATOM     14  N   LIG    1        1.877  -2.588   2.562  0.00  0.00    -0.160 NA
ATOM     15  N   LIG    1        2.937  -1.953   2.462  0.00  0.00    -0.170 NA
BRANCH  14  20
ATOM     16  C   LIG    1        2.157  -8.127   2.513  0.00  0.00    +0.130 C 
ATOM     17  C   LIG    1        2.043  -6.624   2.530  0.00  0.00    -0.100 A 
ATOM     18  N   LIG    1        3.116  -5.877   2.428  0.00  0.00    -0.210 NA
ATOM     19  N   LIG    1        3.043  -4.594   2.435  0.00  0.00    -0.390 NA
ATOM     20  C   LIG    1        1.895  -3.957   2.555  0.00  0.00    +0.410 A 
ATOM     21  N   LIG    1        0.726  -4.650   2.666  0.00  0.00    -0.600 NA
ATOM     22  C   LIG    1        0.773  -6.003   2.655  0.00  0.00    +0.470 A 
ATOM     23  O   LIG    1       -0.244  -6.667   2.752  0.00  0.00    -0.590 OA
ENDBRANCH  14  20
ENDBRANCH   1  15
TORSDOF 4
