REMARK  Name = ZINCpe00000VVGIK.0
REMARK                            x       y       z     vdW  Elec       q    Type
REMARK                         _______ _______ _______ _____ _____    ______ ____
ROOT
ATOM      1  C   LIG    1       -4.982   4.181   1.598  0.00  0.00    +0.290 C 
ENDROOT
BRANCH   1  11
ATOM      2  C   LIG    1       -4.354  -0.642  -0.852  0.00  0.00    +0.370 C 
ATOM      3  N   LIG    1       -5.564  -0.395  -0.063  0.00  0.00    -0.350 N 
ATOM      4  N   LIG    1       -6.614  -1.301   0.134  0.00  0.00    -0.270 NA
ATOM      5  C   LIG    1       -7.527  -0.752   0.887  0.00  0.00    +0.330 A 
ATOM      6  C   LIG    1       -7.105   0.550   1.216  0.00  0.00    -0.350 A 
ATOM      7  C   LIG    1       -7.668   1.643   2.009  0.00  0.00    +0.580 A 
ATOM      8  O   LIG    1       -8.745   1.529   2.567  0.00  0.00    -0.520 OA
ATOM      9  N   LIG    1       -6.947   2.785   2.100  0.00  0.00    -0.650 N 
ATOM     10  H   LIG    1       -7.289   3.531   2.617  0.00  0.00    +0.420 HD
ATOM     11  C   LIG    1       -5.750   2.890   1.470  0.00  0.00    +0.430 A 
ATOM     12  N   LIG    1       -5.237   1.931   0.757  0.00  0.00    -0.500 NA
ATOM     13  C   LIG    1       -5.859   0.752   0.602  0.00  0.00    +0.340 A 
ENDBRANCH   1  11
BRANCH   1  14
ATOM     14  N   LIG    1       -3.725   4.079   0.845  0.00  0.00    -0.500 NA
BRANCH  14  15
ATOM     15  C   LIG    1       -2.831   3.079   1.445  0.00  0.00    +0.260 C 
BRANCH  15  16
ATOM     16  C   LIG    1       -2.653   3.382   2.934  0.00  0.00    +0.100 C 
ATOM     17  C   LIG    1       -1.738   2.324   3.606  0.00  0.00    +0.020 C 
ATOM     18  C   LIG    1       -1.182   3.105   4.821  0.00  0.00    -0.010 C 
ATOM     19  C   LIG    1       -1.373   4.587   4.442  0.00  0.00    +0.180 C 
ATOM     20  O   LIG    1       -1.932   4.620   3.118  0.00  0.00    -0.370 OA
ENDBRANCH  15  16
ENDBRANCH  14  15
BRANCH  14  21
ATOM     21  C   LIG    1       -3.062   5.386   0.748  0.00  0.00    +0.180 C 
BRANCH  21  22
ATOM     22  C   LIG    1       -1.963   5.323  -0.315  0.00  0.00    +0.170 C 
ATOM     23  C   LIG    1       -1.268   6.697  -0.431  0.00  0.00    +0.010 C 
ATOM     24  C   LIG    1       -1.044   6.824  -1.963  0.00  0.00    +0.000 C 
ATOM     25  C   LIG    1       -2.303   6.102  -2.505  0.00  0.00    +0.190 C 
ATOM     26  O   LIG    1       -2.538   5.019  -1.591  0.00  0.00    -0.360 OA
ENDBRANCH  21  22
ENDBRANCH  14  21
ENDBRANCH   1  14
TORSDOF 6
