REMARK  Name = ZINCnE000001T8Bx.0
REMARK                            x       y       z     vdW  Elec       q    Type
REMARK                         _______ _______ _______ _____ _____    ______ ____
ROOT
ATOM      1  O   LIG    1        0.413   0.542  -5.481  0.00  0.00    -0.590 OA
ATOM      2  C   LIG    1       -0.537   1.266  -5.247  0.00  0.00    +0.580 C 
ATOM      3  N   LIG    1       -0.861   1.561  -3.972  0.00  0.00    -1.120 NA
ENDROOT
BRANCH   2   4
ATOM      4  C   LIG    1       -1.330   1.817  -6.352  0.00  0.00    -0.130 A 
ATOM      5  C   LIG    1       -1.089   1.590  -7.649  0.00  0.00    -0.030 A 
ATOM      6  C   LIG    1       -1.973   2.211  -8.547  0.00  0.00    -0.060 A 
ATOM      7  C   LIG    1       -1.982   2.160  -9.961  0.00  0.00    +0.080 A 
ATOM      8  C   LIG    1       -2.922   2.840 -10.671  0.00  0.00    +0.020 A 
ATOM      9  C   LIG    1       -3.892   3.595 -10.021  0.00  0.00    -0.020 A 
ATOM     10  C   LIG    1       -3.909   3.664  -8.647  0.00  0.00    +0.070 A 
ATOM     11 CL   LIG    1       -5.083   4.455 -10.946  0.00  0.00    -0.070 Cl
ATOM     12  C   LIG    1       -2.952   2.974  -7.897  0.00  0.00    -0.160 A 
ATOM     13 CL   LIG    1        0.226   0.590  -8.186  0.00  0.00    -0.020 Cl
ATOM     14  S   LIG    1       -2.719   2.870  -6.156  0.00  0.00    +0.230 S 
ENDBRANCH   2   4
BRANCH   3  15
ATOM     15  S   LIG    1        0.034   0.940  -2.725  0.00  0.00    +2.580 S 
ATOM     16  O   LIG    1       -0.163  -0.465  -2.819  0.00  0.00    -1.010 OA
ATOM     17  O   LIG    1        1.323   1.512  -2.899  0.00  0.00    -1.010 OA
BRANCH  15  18
ATOM     18  C   LIG    1       -0.757   1.595  -1.230  0.00  0.00    -0.470 C 
ATOM     19  C   LIG    1       -0.013   1.086   0.008  0.00  0.00    +0.040 C 
ATOM     20  C   LIG    1       -0.733   1.582   1.266  0.00  0.00    -0.010 C 
ATOM     21  C   LIG    1       -2.191   1.109   1.226  0.00  0.00    +0.200 C 
ATOM     22  O   LIG    1       -2.816   1.591   0.035  0.00  0.00    -0.380 OA
ATOM     23  C   LIG    1       -2.212   1.122  -1.172  0.00  0.00    +0.270 C 
ENDBRANCH  15  18
ENDBRANCH   3  15
TORSDOF 3
