REMARK  Name = ZINCtV00000L6jQV.0
REMARK                            x       y       z     vdW  Elec       q    Type
REMARK                         _______ _______ _______ _____ _____    ______ ____
ROOT
ATOM      1  O   LIG    1        1.674   8.026  -1.936  0.00  0.00    -0.510 OA
ATOM      2  C   LIG    1        0.992   7.578  -1.031  0.00  0.00    +0.530 A 
ATOM      3  N   LIG    1        0.576   8.402  -0.054  0.00  0.00    -0.620 N 
ATOM      4  H   LIG    1        0.826   9.338  -0.086  0.00  0.00    +0.420 HD
ATOM      5  C   LIG    1       -0.198   7.944   0.994  0.00  0.00    +0.190 A 
ATOM      6  C   LIG    1       -0.620   8.811   1.996  0.00  0.00    +0.000 A 
ATOM      7  C   LIG    1       -1.407   8.341   3.025  0.00  0.00    +0.100 A 
ATOM      8  C   LIG    1       -1.772   7.003   3.083  0.00  0.00    -0.060 A 
ATOM      9  C   LIG    1       -1.360   6.126   2.103  0.00  0.00    +0.110 A 
ATOM     10 CL   LIG    1       -2.752   6.430   4.397  0.00  0.00    -0.050 Cl
ATOM     11  C   LIG    1       -0.572   6.590   1.048  0.00  0.00    -0.100 A 
ATOM     12  C   LIG    1       -0.115   5.681  -0.015  0.00  0.00    +0.060 A 
ATOM     13  C   LIG    1        0.658   6.204  -1.035  0.00  0.00    -0.010 A 
ENDROOT
BRANCH  12  14
ATOM     14  C   LIG    1       -0.477   4.247   0.004  0.00  0.00    -0.070 A 
ATOM     15  C   LIG    1        0.510   3.276   0.182  0.00  0.00    +0.050 A 
ATOM     16  C   LIG    1        0.165   1.941   0.199  0.00  0.00    +0.010 A 
ATOM     17  C   LIG    1       -1.157   1.562   0.038  0.00  0.00    +0.030 A 
ATOM     18  C   LIG    1       -2.139   2.519  -0.144  0.00  0.00    +0.010 A 
ATOM     19  C   LIG    1       -1.808   3.858  -0.157  0.00  0.00    +0.030 A 
ENDBRANCH  12  14
BRANCH  13  20
ATOM     20  O   LIG    1        1.096   5.400  -2.039  0.00  0.00    -0.200 OA
BRANCH  20  21
ATOM     21  C   LIG    1        0.605   5.614  -3.287  0.00  0.00    +0.160 A 
ATOM     22  C   LIG    1       -0.392   6.541  -3.490  0.00  0.00    -0.070 A 
ATOM     23  C   LIG    1       -0.903   6.771  -4.765  0.00  0.00    +0.060 A 
ATOM     24  C   LIG    1       -0.432   6.087  -5.843  0.00  0.00    +0.000 A 
ATOM     25  C   LIG    1        0.586   5.133  -5.676  0.00  0.00    -0.070 A 
ATOM     26  C   LIG    1        1.095   4.409  -6.770  0.00  0.00    +0.070 A 
ATOM     27  C   LIG    1        2.096   3.509  -6.537  0.00  0.00    -0.020 A 
ATOM     28  C   LIG    1        2.572   3.318  -5.242  0.00  0.00    +0.280 A 
ATOM     29  N   LIG    1        2.090   3.991  -4.225  0.00  0.00    -0.450 NA
ATOM     30  C   LIG    1        1.119   4.893  -4.386  0.00  0.00    +0.120 A 
ENDBRANCH  20  21
ENDBRANCH  13  20
TORSDOF 3
