REMARK  Name = ZINCvU0000000A5m.0
REMARK                            x       y       z     vdW  Elec       q    Type
REMARK                         _______ _______ _______ _____ _____    ______ ____
ROOT
ATOM      1  C   LIG    1        0.386  -3.433   7.262  0.00  0.00    +0.250 C 
ATOM      2  C   LIG    1       -0.296  -4.526   6.417  0.00  0.00    +0.020 C 
ATOM      3  C   LIG    1       -0.037  -5.910   6.949  0.00  0.00    +0.020 C 
ATOM      4  C   LIG    1        1.181  -6.499   6.208  0.00  0.00    +0.000 C 
ATOM      5  C   LIG    1        2.444  -6.009   6.739  0.00  0.00    +0.000 C 
ATOM      6  C   LIG    1        2.591  -4.481   6.590  0.00  0.00    +0.030 C 
ATOM      7  C   LIG    1        1.815  -3.816   7.694  0.00  0.00    +0.020 C 
ENDROOT
BRANCH   7   8
ATOM      8  C   LIG    1        2.545  -2.569   8.121  0.00  0.00    -0.020 A 
ATOM      9  C   LIG    1        2.855  -1.596   7.190  0.00  0.00    +0.020 A 
ATOM     10  C   LIG    1        3.522  -0.450   7.582  0.00  0.00    +0.040 A 
ATOM     11  C   LIG    1        3.886  -0.282   8.905  0.00  0.00    +0.010 A 
ATOM     12  C   LIG    1        3.581  -1.257   9.836  0.00  0.00    +0.070 A 
ATOM     13  C   LIG    1        2.911  -2.401   9.444  0.00  0.00    -0.180 A 
BRANCH  13  14
ATOM     14  C   LIG    1        2.578  -3.464  10.459  0.00  0.00    +0.510 C 
ATOM     15  F   LIG    1        3.188  -4.668  10.090  0.00  0.00    -0.170 F 
ATOM     16  F   LIG    1        1.191  -3.641  10.511  0.00  0.00    -0.170 F 
ATOM     17  F   LIG    1        3.045  -3.071  11.717  0.00  0.00    -0.180 F 
ENDBRANCH  13  14
ENDBRANCH   7   8
BRANCH   1  19
ATOM     18  C   LIG    1       -0.342  -1.154   6.802  0.00  0.00    +0.520 C 
ATOM     19  N   LIG    1        0.445  -2.198   6.476  0.00  0.00    -0.730 N 
ATOM     20  H   LIG    1        1.051  -2.131   5.721  0.00  0.00    +0.400 HD
ATOM     21  O   LIG    1       -1.099  -1.237   7.746  0.00  0.00    -0.530 OA
BRANCH  18  26
ATOM     22  C   LIG    1       -2.330   2.784   3.636  0.00  0.00    +0.510 C 
ATOM     23  N   LIG    1       -1.389   2.132   4.346  0.00  0.00    -0.620 N 
ATOM     24  C   LIG    1       -0.557   1.097   3.716  0.00  0.00    +0.270 C 
ATOM     25  C   LIG    1       -0.650  -0.186   4.540  0.00  0.00    +0.030 C 
ATOM     26  C   LIG    1       -0.281   0.117   5.994  0.00  0.00    -0.010 C 
ATOM     27  C   LIG    1       -1.268   1.135   6.571  0.00  0.00    +0.050 C 
ATOM     28  C   LIG    1       -1.179   2.437   5.768  0.00  0.00    +0.280 C 
ATOM     29  O   LIG    1       -3.013   3.633   4.169  0.00  0.00    -0.540 OA
BRANCH  22  30
ATOM     30  C   LIG    1       -2.533   2.460   2.178  0.00  0.00    +0.040 C 
BRANCH  30  32
ATOM     31  C   LIG    1       -3.859   3.006   0.132  0.00  0.00    +0.010 C 
ATOM     32  C   LIG    1       -3.652   3.336   1.612  0.00  0.00    +0.030 C 
ENDBRANCH  30  32
ENDBRANCH  22  30
ENDBRANCH  18  26
ENDBRANCH   1  19
TORSDOF 6
