REMARK  Name = ZINCkj000005hlAy.1
REMARK                            x       y       z     vdW  Elec       q    Type
REMARK                         _______ _______ _______ _____ _____    ______ ____
ROOT
ATOM      1  C   LIG    1        1.057   6.001   0.430  0.00  0.00    +0.320 C 
ATOM      2  N   LIG    1        0.375   5.589  -0.804  0.00  0.00    -0.390 N 
ATOM      3  C   LIG    1        1.020   6.234  -1.969  0.00  0.00    +0.250 C 
ATOM      4  C   LIG    1        0.959   5.171  -3.095  0.00  0.00    +0.080 C 
ATOM      5  C   LIG    1        1.195   3.859  -2.300  0.00  0.00    +0.070 C 
ATOM      6  C   LIG    1        0.476   4.130  -0.964  0.00  0.00    +0.050 C 
ATOM      7  C   LIG    1        1.287   3.531   0.184  0.00  0.00    +0.070 C 
ATOM      8  C   LIG    1        1.346   2.010   0.021  0.00  0.00    +0.210 C 
ATOM      9  N   LIG    1       -0.018   1.465   0.010  0.00  0.00    -0.520 NA
ATOM     10  C   LIG    1       -0.791   1.987  -1.124  0.00  0.00    +0.200 C 
ATOM     11  C   LIG    1       -0.919   3.507  -0.998  0.00  0.00    +0.060 C 
ATOM     12  H   LIG    1       -0.597   5.860  -0.763  0.00  0.00    +0.420 HD
ENDROOT
BRANCH   9  13
ATOM     13  C   LIG    1        0.002  -0.004   0.002  0.00  0.00    +0.130 C 
ATOM     14  C   LIG    1       -1.414  -0.566   0.266  0.00  0.00    +0.060 C 
ATOM     15  C   LIG    1       -1.383  -0.780   1.799  0.00  0.00    +0.280 C 
ATOM     16  N   LIG    1        0.032  -0.961   2.141  0.00  0.00    -0.580 N 
ATOM     17  C   LIG    1        0.833  -0.529   1.152  0.00  0.00    +0.530 C 
ATOM     18  O   LIG    1        2.045  -0.554   1.178  0.00  0.00    -0.520 OA
BRANCH  16  19
ATOM     19  C   LIG    1        0.511  -1.540   3.399  0.00  0.00    +0.200 C 
ATOM     20  C   LIG    1        2.014  -1.472   3.681  0.00  0.00    +0.040 C 
ATOM     21  C   LIG    1        1.364  -2.807   3.315  0.00  0.00    +0.000 C 
ENDBRANCH  16  19
ENDBRANCH   9  13
TORSDOF 2
