REMARK  Name = ZINCkj000005hlAy.0
REMARK                            x       y       z     vdW  Elec       q    Type
REMARK                         _______ _______ _______ _____ _____    ______ ____
ROOT
ATOM      1  C   LIG    1       -0.710   1.485   1.208  0.00  0.00    +0.320 C 
ATOM      2  N   LIG    1       -0.012   1.005   0.008  0.00  0.00    -0.390 N 
ATOM      3  C   LIG    1        1.374   1.522  -0.003  0.00  0.00    +0.250 C 
ATOM      4  C   LIG    1        1.679   1.809  -1.495  0.00  0.00    +0.080 C 
ATOM      5  C   LIG    1        0.309   2.337  -1.999  0.00  0.00    +0.070 C 
ATOM      6  C   LIG    1       -0.702   1.498  -1.195  0.00  0.00    +0.050 C 
ATOM      7  C   LIG    1       -1.891   2.371  -0.797  0.00  0.00    +0.060 C 
ATOM      8  C   LIG    1       -2.620   2.839  -2.059  0.00  0.00    +0.200 C 
ATOM      9  N   LIG    1       -3.069   1.671  -2.828  0.00  0.00    -0.520 NA
ATOM     10  C   LIG    1       -1.931   0.854  -3.268  0.00  0.00    +0.220 C 
ATOM     11  C   LIG    1       -1.181   0.321  -2.045  0.00  0.00    +0.060 C 
ATOM     12  H   LIG    1        0.002  -0.004   0.002  0.00  0.00    +0.430 HD
ENDROOT
BRANCH   9  13
ATOM     13  C   LIG    1       -3.898   2.079  -3.970  0.00  0.00    +0.140 C 
ATOM     14  C   LIG    1       -5.117   2.899  -3.488  0.00  0.00    +0.070 C 
ATOM     15  C   LIG    1       -6.219   2.428  -4.462  0.00  0.00    +0.270 C 
ATOM     16  N   LIG    1       -5.808   1.089  -4.900  0.00  0.00    -0.580 N 
ATOM     17  C   LIG    1       -4.505   0.868  -4.643  0.00  0.00    +0.530 C 
ATOM     18  O   LIG    1       -3.905  -0.152  -4.909  0.00  0.00    -0.520 OA
BRANCH  16  19
ATOM     19  C   LIG    1       -6.701   0.117  -5.537  0.00  0.00    +0.200 C 
ATOM     20  C   LIG    1       -6.168  -1.302  -5.745  0.00  0.00    +0.040 C 
ATOM     21  C   LIG    1       -6.333  -0.363  -6.943  0.00  0.00    +0.000 C 
ENDBRANCH  16  19
ENDBRANCH   9  13
TORSDOF 2
