REMARK  Name = ZINCqH0000038Ajf.0
REMARK                            x       y       z     vdW  Elec       q    Type
REMARK                         _______ _______ _______ _____ _____    ______ ____
ROOT
ATOM      1  N   LIG    1       -1.191   1.870   0.018  0.00  0.00    -0.680 N 
ATOM      2  H   LIG    1       -1.205   2.836   0.099  0.00  0.00    +0.410 HD
ATOM      3  C   LIG    1       -0.014   1.212   0.005  0.00  0.00    +0.700 C 
ATOM      4  N   LIG    1        1.143   1.902  -0.015  0.00  0.00    -0.640 N 
ATOM      5  H   LIG    1        1.130   2.872  -0.016  0.00  0.00    +0.420 HD
ATOM      6  O   LIG    1        0.003  -0.004   0.007  0.00  0.00    -0.520 OA
ENDROOT
BRANCH   1  13
ATOM      7  C   LIG    1       -3.542   3.045   1.100  0.00  0.00    +0.090 C 
ATOM      8  C   LIG    1       -3.565   1.696   0.429  0.00  0.00    -0.100 A 
ATOM      9  C   LIG    1       -4.753   0.998   0.324  0.00  0.00    +0.030 A 
ATOM     10  C   LIG    1       -4.779  -0.241  -0.284  0.00  0.00    +0.050 A 
ATOM     11  C   LIG    1       -3.606  -0.790  -0.798  0.00  0.00    -0.000 A 
ATOM     12  C   LIG    1       -2.409  -0.086  -0.698  0.00  0.00    +0.070 A 
ATOM     13  C   LIG    1       -2.391   1.158  -0.086  0.00  0.00    +0.160 A 
BRANCH  11  14
ATOM     14  C   LIG    1       -3.633  -2.122  -1.453  0.00  0.00    +0.270 A 
ATOM     15  N   LIG    1       -2.597  -2.738  -1.979  0.00  0.00    -0.290 NA
ATOM     16  N   LIG    1       -3.068  -3.962  -2.482  0.00  0.00    -0.480 N 
ATOM     17  H   LIG    1       -2.545  -4.645  -2.930  0.00  0.00    +0.440 HD
ATOM     18  C   LIG    1       -4.388  -3.998  -2.226  0.00  0.00    +0.280 A 
ATOM     19  C   LIG    1       -5.327  -5.121  -2.586  0.00  0.00    +0.190 C 
ATOM     20  N   LIG    1       -4.717  -2.893  -1.610  0.00  0.00    -0.530 NA
ENDBRANCH  11  14
ENDBRANCH   1  13
BRANCH   4  21
ATOM     21  C   LIG    1        2.367   1.218  -0.034  0.00  0.00    +0.320 A 
ATOM     22  N   LIG    1        2.521  -0.085  -0.034  0.00  0.00    -0.270 NA
ATOM     23  N   LIG    1        3.894  -0.362  -0.057  0.00  0.00    -0.470 N 
ATOM     24  H   LIG    1        4.298  -1.244  -0.063  0.00  0.00    +0.440 HD
ATOM     25  C   LIG    1        4.558   0.813  -0.070  0.00  0.00    +0.260 A 
ATOM     26  C   LIG    1        3.641   1.807  -0.061  0.00  0.00    -0.240 A 
BRANCH  26  27
ATOM     27  C   LIG    1        3.934   3.285  -0.075  0.00  0.00    +0.060 C 
ATOM     28  C   LIG    1        5.135   3.666  -0.958  0.00  0.00    +0.020 C 
ATOM     29  C   LIG    1        5.527   4.666   0.143  0.00  0.00    +0.000 C 
ATOM     30  C   LIG    1        4.768   3.759   1.127  0.00  0.00    +0.020 C 
ENDBRANCH  26  27
ENDBRANCH   4  21
TORSDOF 4
