REMARK  Name = ZINCrH000001kHYK.0
REMARK                            x       y       z     vdW  Elec       q    Type
REMARK                         _______ _______ _______ _____ _____    ______ ____
ROOT
ATOM      1  O   LIG    1        0.021   0.269   2.346  0.00  0.00    -0.520 OA
ATOM      2  C   LIG    1        0.022  -0.514   1.420  0.00  0.00    +0.520 C 
ATOM      3  N   LIG    1        0.043  -1.840   1.659  0.00  0.00    -0.620 N 
ATOM      4  C   LIG    1        0.039  -2.807   0.551  0.00  0.00    +0.300 C 
ATOM      5  C   LIG    1        1.193  -3.798   0.772  0.00  0.00    +0.200 C 
ATOM      6  N   LIG    1        1.075  -4.389   2.111  0.00  0.00    -0.470 N 
ATOM      7  C   LIG    1        1.210  -3.368   3.158  0.00  0.00    +0.210 C 
ATOM      8  C   LIG    1        0.063  -2.359   3.035  0.00  0.00    +0.290 C 
ENDROOT
BRANCH   6   9
ATOM      9  C   LIG    1        2.001  -5.410   2.289  0.00  0.00    +0.340 A 
ATOM     10  C   LIG    1        2.028  -6.479   1.399  0.00  0.00    -0.040 A 
ATOM     11  C   LIG    1        2.957  -7.486   1.585  0.00  0.00    +0.150 A 
ATOM     12  C   LIG    1        3.825  -7.396   2.665  0.00  0.00    -0.270 A 
ATOM     13  C   LIG    1        3.739  -6.309   3.512  0.00  0.00    +0.360 A 
ATOM     14  N   LIG    1        2.845  -5.360   3.307  0.00  0.00    -0.520 NA
BRANCH  12  15
ATOM     15  C   LIG    1        4.850  -8.473   2.910  0.00  0.00    +0.520 C 
ATOM     16  F   LIG    1        5.702  -8.566   1.804  0.00  0.00    -0.180 F 
ATOM     17  F   LIG    1        4.203  -9.697   3.104  0.00  0.00    -0.170 F 
ATOM     18  F   LIG    1        5.598  -8.155   4.049  0.00  0.00    -0.170 F 
ENDBRANCH  12  15
ENDBRANCH   6   9
BRANCH   2  19
ATOM     19  C   LIG    1        0.002  -0.004   0.002  0.00  0.00    +0.110 C 
BRANCH  19  20
ATOM     20  C   LIG    1       -0.018   1.503   0.010  0.00  0.00    -0.100 A 
ATOM     21  C   LIG    1        1.171   2.212   0.003  0.00  0.00    +0.120 A 
ATOM     22  C   LIG    1        1.150   3.596   0.010  0.00  0.00    -0.010 A 
ATOM     23  C   LIG    1       -0.056   4.270   0.026  0.00  0.00    +0.080 A 
ATOM     24  C   LIG    1       -1.244   3.562   0.033  0.00  0.00    +0.020 A 
ATOM     25  F   LIG    1        2.350   1.553  -0.012  0.00  0.00    -0.130 F 
ATOM     26  C   LIG    1       -1.225   2.179   0.020  0.00  0.00    +0.000 A 
ATOM     27 CL   LIG    1       -2.717   1.291   0.021  0.00  0.00    -0.050 Cl
ENDBRANCH  19  20
ENDBRANCH   2  19
TORSDOF 4
