REMARK  Name = ZINCvU00000007Es.0
REMARK                            x       y       z     vdW  Elec       q    Type
REMARK                         _______ _______ _______ _____ _____    ______ ____
ROOT
ATOM      1  C   LIG    1       -4.652   4.232  -0.102  0.00  0.00    +0.300 A 
ATOM      2  N   LIG    1       -3.732   3.305  -0.059  0.00  0.00    -0.510 NA
ATOM      3  C   LIG    1       -2.532   3.865   0.149  0.00  0.00    +0.270 A 
ATOM      4  N   LIG    1       -2.683   5.169   0.232  0.00  0.00    -0.290 NA
ATOM      5  N   LIG    1       -4.054   5.428   0.071  0.00  0.00    -0.330 N 
ENDROOT
BRANCH   3   6
ATOM      6  C   LIG    1       -1.245   3.135   0.262  0.00  0.00    -0.020 A 
ATOM      7  C   LIG    1       -1.217   1.746   0.150  0.00  0.00    +0.090 A 
ATOM      8  C   LIG    1       -0.019   1.071   0.260  0.00  0.00    +0.030 A 
ATOM      9  C   LIG    1        1.156   1.772   0.471  0.00  0.00    -0.020 A 
ATOM     10  C   LIG    1        1.134   3.153   0.577  0.00  0.00    +0.030 A 
ATOM     11 CL   LIG    1        2.662   0.918   0.602  0.00  0.00    -0.060 Cl
ATOM     12  C   LIG    1       -0.060   3.836   0.473  0.00  0.00    +0.070 A 
ENDBRANCH   3   6
BRANCH   5  13
ATOM     13  C   LIG    1       -4.678   6.683   0.087  0.00  0.00    +0.090 A 
ATOM     14  C   LIG    1       -5.866   6.872   0.789  0.00  0.00    +0.060 A 
ATOM     15  C   LIG    1       -6.445   8.131   0.775  0.00  0.00    +0.000 A 
ATOM     16  C   LIG    1       -5.830   9.149   0.071  0.00  0.00    +0.280 A 
ATOM     17  N   LIG    1       -4.705   8.937  -0.583  0.00  0.00    -0.460 NA
ATOM     18  C   LIG    1       -4.118   7.757  -0.591  0.00  0.00    +0.300 A 
ENDBRANCH   5  13
BRANCH   1  19
ATOM     19  C   LIG    1       -6.126   4.004  -0.314  0.00  0.00    +0.130 C 
BRANCH  19  20
ATOM     20  C   LIG    1       -6.417   3.908  -1.813  0.00  0.00    +0.320 C 
BRANCH  20  21
ATOM     21  N   LIG    1       -7.863   3.805  -2.024  0.00  0.00    -0.590 N 
ATOM     22  C   LIG    1       -8.454   2.594  -2.061  0.00  0.00    +0.650 C 
ATOM     23  O   LIG    1       -7.786   1.588  -1.920  0.00  0.00    -0.560 OA
BRANCH  21  25
ATOM     24  C   LIG    1       -9.357   4.984  -3.559  0.00  0.00    +0.040 C 
ATOM     25  C   LIG    1       -8.668   5.017  -2.194  0.00  0.00    +0.230 C 
ATOM     26  C   LIG    1       -9.725   5.087  -1.090  0.00  0.00    +0.030 C 
ENDBRANCH  21  25
BRANCH  22  27
ATOM     27  O   LIG    1       -9.782   2.498  -2.255  0.00  0.00    -0.350 OA
BRANCH  27  28
ATOM     28  C   LIG    1      -10.350   1.162  -2.284  0.00  0.00    +0.130 C 
ATOM     29  C   LIG    1       -9.710   0.361  -3.420  0.00  0.00    +0.040 C 
ATOM     30  C   LIG    1      -11.860   1.254  -2.513  0.00  0.00    +0.080 C 
ATOM     31  C   LIG    1      -10.078   0.463  -0.951  0.00  0.00    +0.040 C 
ENDBRANCH  27  28
ENDBRANCH  22  27
ENDBRANCH  20  21
ENDBRANCH  19  20
ENDBRANCH   1  19
TORSDOF 8
