REMARK  Name = ZINCqH0000050RDx.0
REMARK                            x       y       z     vdW  Elec       q    Type
REMARK                         _______ _______ _______ _____ _____    ______ ____
ROOT
ATOM      1  C   LIG    1        5.391   0.651  -1.570  0.00  0.00    +0.130 A 
ATOM      2  C   LIG    1        6.246   0.663  -0.476  0.00  0.00    -0.050 A 
ATOM      3  C   LIG    1        7.616   0.677  -0.664  0.00  0.00    +0.050 A 
ATOM      4  C   LIG    1        8.142   0.691  -1.939  0.00  0.00    +0.010 A 
ATOM      5  C   LIG    1        7.290   0.685  -3.045  0.00  0.00    -0.100 A 
ATOM      6  C   LIG    1        5.909   0.665  -2.854  0.00  0.00    +0.060 A 
ENDROOT
BRANCH   5   7
ATOM      7  C   LIG    1        7.850   0.700  -4.413  0.00  0.00    +0.560 C 
ATOM      8  N   LIG    1        9.186   0.719  -4.595  0.00  0.00    -0.720 N 
ATOM      9  H   LIG    1        9.779   0.723  -3.828  0.00  0.00    +0.400 HD
ATOM     10  O   LIG    1        7.106   0.695  -5.375  0.00  0.00    -0.530 OA
BRANCH   8  11
ATOM     11  C   LIG    1        9.741   0.734  -5.950  0.00  0.00    +0.290 C 
ATOM     12  C   LIG    1        9.837  -0.699  -6.478  0.00  0.00    +0.040 C 
BRANCH  11  13
ATOM     13  C   LIG    1       11.114   1.353  -5.924  0.00  0.00    -0.150 A 
ATOM     14  C   LIG    1       11.519   2.207  -6.939  0.00  0.00    +0.080 A 
ATOM     15  C   LIG    1       12.789   2.758  -6.870  0.00  0.00    -0.030 A 
ATOM     16  C   LIG    1       13.609   2.431  -5.807  0.00  0.00    +0.260 A 
ATOM     17  N   LIG    1       13.192   1.611  -4.862  0.00  0.00    -0.480 NA
ATOM     18  C   LIG    1       11.989   1.073  -4.891  0.00  0.00    +0.250 A 
ENDBRANCH  11  13
ENDBRANCH   8  11
ENDBRANCH   5   7
BRANCH   1  19
ATOM     19  O   LIG    1        4.046   0.632  -1.380  0.00  0.00    -0.310 OA
BRANCH  19  20
ATOM     20  C   LIG    1        3.582   0.619  -0.028  0.00  0.00    +0.300 C 
BRANCH  20  27
ATOM     21  C   LIG    1        1.565   3.160   0.003  0.00  0.00    +0.160 C 
ATOM     22  C   LIG    1        1.189   1.701  -0.000  0.00  0.00    +0.040 A 
ATOM     23  N   LIG    1       -0.014   1.205   0.009  0.00  0.00    -0.360 NA
ATOM     24  O   LIG    1        0.002  -0.004   0.002  0.00  0.00    +0.100 OA
ATOM     25  C   LIG    1        1.255  -0.480  -0.013  0.00  0.00    +0.010 A 
ATOM     26  C   LIG    1        1.670  -1.928  -0.024  0.00  0.00    +0.200 C 
ATOM     27  C   LIG    1        2.075   0.599  -0.015  0.00  0.00    -0.220 A 
ENDBRANCH  20  27
ENDBRANCH  19  20
ENDBRANCH   1  19
TORSDOF 6
