REMARK  Name = ZINCnE000001QXay.0
REMARK                            x       y       z     vdW  Elec       q    Type
REMARK                         _______ _______ _______ _____ _____    ______ ____
ROOT
ATOM      1  C   LIG    1        2.190   5.943  -2.321  0.00  0.00    -0.040 A 
ATOM      2  C   LIG    1        2.865   6.962  -2.950  0.00  0.00    +0.090 A 
ATOM      3  C   LIG    1        1.922   7.700  -3.693  0.00  0.00    -0.260 A 
ATOM      4  C   LIG    1        0.688   7.122  -3.498  0.00  0.00    +0.140 A 
ATOM      5  C   LIG    1       -0.357   7.826  -4.229  0.00  0.00    -0.150 A 
ATOM      6  C   LIG    1        0.102   8.890  -4.939  0.00  0.00    -0.150 A 
ATOM      7  C   LIG    1       -0.772   9.786  -5.780  0.00  0.00    +0.150 C 
ATOM      8  S   LIG    1        1.782   9.088  -4.763  0.00  0.00    +0.140 S 
ATOM      9  N   LIG    1        0.855   6.040  -2.652  0.00  0.00    -0.530 N 
ATOM     10  H   LIG    1        0.151   5.448  -2.344  0.00  0.00    +0.420 HD
ENDROOT
BRANCH   1  13
ATOM     11  N   LIG    1        2.009   3.985  -0.883  0.00  0.00    -0.730 N 
ATOM     12  H   LIG    1        1.055   3.973  -1.059  0.00  0.00    +0.400 HD
ATOM     13  C   LIG    1        2.786   4.931  -1.445  0.00  0.00    +0.600 C 
ATOM     14  O   LIG    1        3.983   4.946  -1.225  0.00  0.00    -0.530 OA
BRANCH  11  15
ATOM     15  C   LIG    1        2.604   2.973  -0.007  0.00  0.00    +0.340 C 
ATOM     16  C   LIG    1        2.705   3.526   1.416  0.00  0.00    +0.040 C 
BRANCH  15  21
ATOM     17  C   LIG    1       -1.222  -0.883   0.009  0.00  0.00    +0.180 C 
ATOM     18  C   LIG    1        0.002  -0.004   0.002  0.00  0.00    +0.050 A 
ATOM     19  N   LIG    1        1.219  -0.432  -0.012  0.00  0.00    -0.470 NA
ATOM     20  C   LIG    1        2.175   0.474  -0.016  0.00  0.00    +0.230 A 
ATOM     21  C   LIG    1        1.740   1.738  -0.005  0.00  0.00    -0.240 A 
ATOM     22  S   LIG    1       -0.021   1.706   0.011  0.00  0.00    +0.140 S 
ENDBRANCH  15  21
ENDBRANCH  11  15
ENDBRANCH   1  13
BRANCH   5  23
ATOM     23  C   LIG    1       -1.766   7.426  -4.201  0.00  0.00    +0.540 C 
ATOM     24  O   LIG    1       -2.596   8.062  -4.838  0.00  0.00    -0.680 OA
ATOM     25  O   LIG    1       -2.114   6.457  -3.540  0.00  0.00    -0.700 OA
ENDBRANCH   5  23
TORSDOF 4
