REMARK  Name = ZINCvU0000000A0p.0
REMARK                            x       y       z     vdW  Elec       q    Type
REMARK                         _______ _______ _______ _____ _____    ______ ____
ROOT
ATOM      1  N   LIG    1        0.940   3.266  -1.928  0.00  0.00    -0.690 N 
ATOM      2  H   LIG    1        0.223   2.635  -2.098  0.00  0.00    +0.410 HD
ATOM      3  C   LIG    1        1.496   3.338  -0.702  0.00  0.00    +0.710 C 
ATOM      4  N   LIG    1        1.162   2.438   0.244  0.00  0.00    -0.620 N 
ATOM      5  C   LIG    1        0.125   1.431  -0.014  0.00  0.00    +0.270 C 
ATOM      6  C   LIG    1        0.701   0.043   0.281  0.00  0.00    +0.010 C 
ATOM      7  C   LIG    1        1.259   0.019   1.706  0.00  0.00    +0.060 C 
ATOM      8  C   LIG    1        2.386   1.047   1.831  0.00  0.00    -0.020 C 
ATOM      9  C   LIG    1        1.829   2.446   1.553  0.00  0.00    +0.320 C 
ATOM     10  O   LIG    1        2.300   4.215  -0.451  0.00  0.00    -0.570 OA
ENDROOT
BRANCH   1  16
ATOM     11  C   LIG    1        0.009   5.881  -5.986  0.00  0.00    +0.090 C 
ATOM     12  C   LIG    1        0.967   5.382  -4.934  0.00  0.00    -0.070 A 
ATOM     13  C   LIG    1        2.299   5.749  -4.984  0.00  0.00    -0.020 A 
ATOM     14  C   LIG    1        3.181   5.294  -4.021  0.00  0.00    +0.030 A 
ATOM     15  C   LIG    1        2.734   4.471  -3.007  0.00  0.00    +0.000 A 
ATOM     16  C   LIG    1        1.396   4.100  -2.954  0.00  0.00    +0.170 A 
ATOM     17  C   LIG    1        0.514   4.555  -3.925  0.00  0.00    -0.030 A 
ENDBRANCH   1  16
BRANCH   8  18
ATOM     18  C   LIG    1        2.957   1.000   3.225  0.00  0.00    +0.520 C 
ATOM     19  N   LIG    1        3.968   1.824   3.567  0.00  0.00    -0.720 N 
ATOM     20  H   LIG    1        4.328   2.446   2.916  0.00  0.00    +0.400 HD
ATOM     21  O   LIG    1        2.507   0.222   4.039  0.00  0.00    -0.530 OA
BRANCH  19  22
ATOM     22  C   LIG    1        4.523   1.778   4.922  0.00  0.00    +0.280 C 
ATOM     23  C   LIG    1        5.585   0.680   5.002  0.00  0.00    +0.040 C 
BRANCH  22  24
ATOM     24  C   LIG    1        5.149   3.108   5.253  0.00  0.00    -0.090 A 
ATOM     25  C   LIG    1        4.994   3.631   6.500  0.00  0.00    +0.040 A 
ATOM     26  C   LIG    1        5.577   4.871   6.813  0.00  0.00    -0.050 A 
ATOM     27  C   LIG    1        5.439   5.441   8.089  0.00  0.00    +0.020 A 
ATOM     28  C   LIG    1        6.018   6.644   8.355  0.00  0.00    +0.010 A 
ATOM     29  C   LIG    1        6.747   7.321   7.380  0.00  0.00    +0.010 A 
ATOM     30  C   LIG    1        6.902   6.799   6.132  0.00  0.00    +0.020 A 
ATOM     31  C   LIG    1        6.319   5.559   5.820  0.00  0.00    -0.050 A 
ATOM     32  C   LIG    1        6.457   4.988   4.543  0.00  0.00    +0.030 A 
ATOM     33  C   LIG    1        5.883   3.783   4.279  0.00  0.00    +0.010 A 
ENDBRANCH  22  24
ENDBRANCH  19  22
ENDBRANCH   8  18
TORSDOF 4
