REMARK  Name = ZINCtV000002NVh2.0
REMARK                            x       y       z     vdW  Elec       q    Type
REMARK                         _______ _______ _______ _____ _____    ______ ____
ROOT
ATOM      1  C   LIG    1       -0.781   4.077  -0.119  0.00  0.00    +0.060 C 
ENDROOT
BRANCH   1   2
ATOM      2  C   LIG    1       -1.541   3.517  -1.293  0.00  0.00    -0.090 A 
ATOM      3  C   LIG    1       -1.327   4.026  -2.561  0.00  0.00    +0.030 A 
ATOM      4  C   LIG    1       -2.021   3.509  -3.639  0.00  0.00    +0.000 A 
ATOM      5  C   LIG    1       -2.935   2.490  -3.449  0.00  0.00    +0.010 A 
ATOM      6  C   LIG    1       -3.153   1.985  -2.180  0.00  0.00    +0.000 A 
ATOM      7  C   LIG    1       -2.456   2.498  -1.103  0.00  0.00    +0.060 A 
ENDBRANCH   1   2
BRANCH   1   9
ATOM      8  O   LIG    1       -0.340   6.367  -0.482  0.00  0.00    -0.490 OA
ATOM      9  C   LIG    1       -1.081   5.548   0.018  0.00  0.00    +0.540 C 
ATOM     10  N   LIG    1       -2.173   5.952   0.697  0.00  0.00    -0.660 N 
ATOM     11  H   LIG    1       -2.807   5.298   1.031  0.00  0.00    +0.420 HD
BRANCH  10  12
ATOM     12  C   LIG    1       -2.393   7.316   0.919  0.00  0.00    +0.170 A 
ATOM     13  C   LIG    1       -1.316   8.173   1.107  0.00  0.00    +0.040 A 
ATOM     14  C   LIG    1       -1.536   9.521   1.320  0.00  0.00    -0.000 A 
ATOM     15  C   LIG    1       -2.828  10.015   1.359  0.00  0.00    +0.030 A 
ATOM     16  C   LIG    1       -3.903   9.163   1.177  0.00  0.00    -0.000 A 
ATOM     17 CL   LIG    1       -5.522   9.787   1.225  0.00  0.00    -0.050 Cl
ATOM     18 CL   LIG    1       -0.190  10.594   1.548  0.00  0.00    -0.050 Cl
ATOM     19  C   LIG    1       -3.689   7.815   0.957  0.00  0.00    +0.020 A 
ENDBRANCH  10  12
ENDBRANCH   1   9
BRANCH   1  20
ATOM     20  S   LIG    1        0.994   3.845  -0.382  0.00  0.00    +0.060 S 
BRANCH  20  21
ATOM     21  C   LIG    1        1.080   2.086  -0.355  0.00  0.00    +0.190 A 
ATOM     22  N   LIG    1       -0.011   1.352  -0.173  0.00  0.00    -0.530 NA
ATOM     23  C   LIG    1        0.041   0.030  -0.150  0.00  0.00    +0.510 A 
ATOM     24  N   LIG    1        1.156  -0.644  -0.303  0.00  0.00    -0.510 NA
ATOM     25  C   LIG    1        2.319  -0.002  -0.494  0.00  0.00    +0.170 A 
ATOM     26  C   LIG    1        3.528  -0.689  -0.661  0.00  0.00    +0.040 A 
ATOM     27  C   LIG    1        4.681   0.013  -0.853  0.00  0.00    +0.060 A 
ATOM     28  C   LIG    1        4.676   1.404  -0.884  0.00  0.00    +0.030 A 
ATOM     29  C   LIG    1        3.516   2.105  -0.724  0.00  0.00    +0.060 A 
ATOM     30  C   LIG    1        2.317   1.414  -0.526  0.00  0.00    -0.140 A 
ENDBRANCH  20  21
ENDBRANCH   1  20
TORSDOF 5
