REMARK  Name = ZINCqH0000008qV6.0
REMARK                            x       y       z     vdW  Elec       q    Type
REMARK                         _______ _______ _______ _____ _____    ______ ____
ROOT
ATOM      1  N   LIG    1        2.873   0.631   6.046  0.00  0.00    -0.720 N 
ATOM      2  H   LIG    1        2.353  -0.174   6.198  0.00  0.00    +0.400 HD
ATOM      3  C   LIG    1        2.578   1.436   5.006  0.00  0.00    +0.600 C 
ATOM      4  O   LIG    1        3.229   2.445   4.814  0.00  0.00    -0.540 OA
ENDROOT
BRANCH   3   5
ATOM      5  C   LIG    1        1.467   1.093   4.100  0.00  0.00    -0.300 A 
ATOM      6  C   LIG    1        1.052   1.818   3.001  0.00  0.00    +0.320 A 
ATOM      7  N   LIG    1        0.015   1.163   2.455  0.00  0.00    -0.350 N 
ATOM      8  N   LIG    1       -0.235   0.016   3.216  0.00  0.00    -0.290 NA
ATOM      9  C   LIG    1        0.626  -0.039   4.194  0.00  0.00    +0.270 A 
BRANCH   7  10
ATOM     10  C   LIG    1       -0.732   1.581   1.266  0.00  0.00    +0.270 C 
ATOM     11  C   LIG    1       -0.013   1.086   0.008  0.00  0.00    -0.000 C 
ATOM     12  C   LIG    1       -0.756   1.594  -1.230  0.00  0.00    +0.230 C 
ATOM     13  O   LIG    1       -0.824   3.021  -1.191  0.00  0.00    -0.380 OA
ATOM     14  C   LIG    1       -1.528   3.540  -0.061  0.00  0.00    +0.240 C 
ATOM     15  C   LIG    1       -0.817   3.110   1.224  0.00  0.00    +0.010 C 
ENDBRANCH   7  10
ENDBRANCH   3   5
BRANCH   1  17
ATOM     16  C   LIG    1        5.291   0.451   6.360  0.00  0.00    +0.040 C 
ATOM     17  C   LIG    1        3.977   0.972   6.946  0.00  0.00    +0.290 C 
BRANCH  17  18
ATOM     18  C   LIG    1        3.741   0.338   8.293  0.00  0.00    -0.090 A 
ATOM     19  C   LIG    1        3.224  -0.942   8.373  0.00  0.00    +0.050 A 
ATOM     20  C   LIG    1        3.013  -1.525   9.609  0.00  0.00    +0.030 A 
ATOM     21  C   LIG    1        3.308  -0.825  10.763  0.00  0.00    +0.070 A 
ATOM     22  C   LIG    1        3.820   0.457  10.683  0.00  0.00    -0.180 A 
ATOM     23  C   LIG    1        4.037   1.038   9.447  0.00  0.00    +0.080 A 
BRANCH  22  24
ATOM     24  C   LIG    1        4.142   1.220  11.941  0.00  0.00    +0.510 C 
ATOM     25  F   LIG    1        5.201   2.100  11.695  0.00  0.00    -0.180 F 
ATOM     26  F   LIG    1        4.506   0.323  12.951  0.00  0.00    -0.180 F 
ATOM     27  F   LIG    1        3.017   1.946  12.347  0.00  0.00    -0.180 F 
ENDBRANCH  22  24
ENDBRANCH  17  18
ENDBRANCH   1  17
TORSDOF 5
