REMARK  Name = ZINCvU0000000DeO.0
REMARK                            x       y       z     vdW  Elec       q    Type
REMARK                         _______ _______ _______ _____ _____    ______ ____
ROOT
ATOM      1  N   LIG    1       -0.017   1.394   0.010  0.00  0.00    -0.670 N 
ATOM      2  H   LIG    1       -0.907   1.762   0.126  0.00  0.00    +0.410 HD
ATOM      3  C   LIG    1        1.034   2.218  -0.171  0.00  0.00    +0.570 C 
ATOM      4  O   LIG    1        2.132   1.758  -0.417  0.00  0.00    -0.510 OA
ENDROOT
BRANCH   3   5
ATOM      5  C   LIG    1        0.853   3.680  -0.070  0.00  0.00    -0.150 A 
ATOM      6  C   LIG    1       -0.414   4.208   0.214  0.00  0.00    +0.070 A 
ATOM      7  C   LIG    1       -0.595   5.558   0.311  0.00  0.00    +0.020 A 
ATOM      8  C   LIG    1        0.478   6.422   0.127  0.00  0.00    +0.080 A 
ATOM      9  N   LIG    1        0.613   7.793   0.159  0.00  0.00    -0.590 N 
ATOM     10  H   LIG    1       -0.092   8.437   0.332  0.00  0.00    +0.430 HD
ATOM     11  C   LIG    1        1.927   8.079  -0.100  0.00  0.00    +0.330 A 
ATOM     12  N   LIG    1        2.595   6.968  -0.286  0.00  0.00    -0.460 NA
ATOM     13  C   LIG    1        1.758   5.909  -0.160  0.00  0.00    +0.040 A 
ATOM     14  C   LIG    1        1.940   4.529  -0.251  0.00  0.00    +0.170 A 
BRANCH  11  15
ATOM     15  C   LIG    1        2.505   9.439  -0.159  0.00  0.00    -0.030 A 
ATOM     16  C   LIG    1        1.694  10.555   0.052  0.00  0.00    +0.040 A 
ATOM     17  C   LIG    1        2.240  11.821   0.001  0.00  0.00    +0.030 A 
ATOM     18  C   LIG    1        3.588  11.986  -0.271  0.00  0.00    -0.020 A 
ATOM     19  C   LIG    1        4.397  10.882  -0.486  0.00  0.00    +0.030 A 
ATOM     20 CL   LIG    1        4.267  13.582  -0.341  0.00  0.00    -0.060 Cl
ATOM     21  C   LIG    1        3.863   9.612  -0.432  0.00  0.00    +0.100 A 
ENDBRANCH  11  15
ENDBRANCH   3   5
BRANCH   1  25
ATOM     22  C   LIG    1        0.554  -2.732   0.053  0.00  0.00    -0.090 A 
ATOM     23  C   LIG    1        1.536  -1.894   0.547  0.00  0.00    +0.040 A 
ATOM     24  C   LIG    1        1.351  -0.526   0.534  0.00  0.00    +0.020 A 
ATOM     25  C   LIG    1        0.175   0.009   0.024  0.00  0.00    +0.140 A 
ATOM     26  C   LIG    1       -0.813  -0.835  -0.467  0.00  0.00    -0.010 A 
ATOM     27  C   LIG    1       -0.618  -2.203  -0.456  0.00  0.00    +0.040 A 
BRANCH  22  29
ATOM     28  C   LIG    1       -0.338  -4.883   0.905  0.00  0.00    +0.040 C 
ATOM     29  C   LIG    1        0.760  -4.224   0.068  0.00  0.00    +0.060 C 
BRANCH  29  30
ATOM     30  C   LIG    1        0.702  -4.762  -1.363  0.00  0.00    +0.060 C 
BRANCH  30  31
ATOM     31  C   LIG    1        1.029  -6.233  -1.361  0.00  0.00    +0.520 C 
ATOM     32  O   LIG    1        1.285  -6.796  -0.317  0.00  0.00    -0.540 OA
ATOM     33  N   LIG    1        1.039  -6.923  -2.519  0.00  0.00    -0.860 N 
ATOM     34  H   LIG    1        1.250  -7.870  -2.517  0.00  0.00    +0.400 HD
ATOM     35  H   LIG    1        0.835  -6.473  -3.353  0.00  0.00    +0.400 HD
ENDBRANCH  30  31
ENDBRANCH  29  30
ENDBRANCH  22  29
ENDBRANCH   1  25
TORSDOF 6
