REMARK  Name = ZINCqH0000031EB0.0
REMARK                            x       y       z     vdW  Elec       q    Type
REMARK                         _______ _______ _______ _____ _____    ______ ____
ROOT
ATOM      1  C   LIG    1        2.050   4.143   0.729  0.00  0.00    +0.530 C 
ATOM      2  N   LIG    1        0.778   3.698   0.752  0.00  0.00    -0.620 N 
ATOM      3  H   LIG    1        0.044   4.320   0.627  0.00  0.00    +0.430 HD
ATOM      4  O   LIG    1        2.967   3.365   0.885  0.00  0.00    -0.460 OA
ENDROOT
BRANCH   1   9
ATOM      5  C   LIG    1        0.099   7.759  -2.306  0.00  0.00    +0.110 C 
ATOM      6  C   LIG    1        1.369   8.282  -1.688  0.00  0.00    +0.520 C 
ATOM      7  N   LIG    1        2.225   7.434  -1.085  0.00  0.00    -0.560 N 
ATOM      8  C   LIG    1        1.883   6.012  -0.900  0.00  0.00    +0.290 C 
ATOM      9  C   LIG    1        2.332   5.607   0.510  0.00  0.00    +0.190 C 
ATOM     10  O   LIG    1        3.735   5.848   0.638  0.00  0.00    -0.280 OA
ATOM     11  C   LIG    1        4.206   7.064   0.255  0.00  0.00    +0.090 A 
ATOM     12  C   LIG    1        5.433   7.505   0.727  0.00  0.00    +0.020 A 
ATOM     13  C   LIG    1        5.921   8.739   0.340  0.00  0.00    +0.030 A 
ATOM     14  C   LIG    1        5.191   9.540  -0.518  0.00  0.00    +0.010 A 
ATOM     15  C   LIG    1        3.965   9.110  -0.993  0.00  0.00    +0.050 A 
ATOM     16  C   LIG    1        3.471   7.874  -0.607  0.00  0.00    +0.080 A 
ATOM     17  O   LIG    1        1.622   9.468  -1.734  0.00  0.00    -0.510 OA
ENDBRANCH   1   9
BRANCH   2  18
ATOM     18  C   LIG    1        0.518   2.352   0.953  0.00  0.00    +0.310 A 
ATOM     19  N   LIG    1       -0.658   1.828   0.991  0.00  0.00    -0.500 NA
ATOM     20  C   LIG    1       -0.750   0.499   1.196  0.00  0.00    +0.110 A 
ATOM     21  C   LIG    1       -1.907  -0.304   1.278  0.00  0.00    +0.090 A 
ATOM     22  C   LIG    1       -1.803  -1.655   1.492  0.00  0.00    +0.060 A 
ATOM     23  C   LIG    1       -0.558  -2.254   1.633  0.00  0.00    -0.030 A 
ATOM     24  C   LIG    1        0.586  -1.489   1.557  0.00  0.00    +0.090 A 
ATOM     25 CL   LIG    1       -0.444  -3.964   1.905  0.00  0.00    -0.050 Cl
ATOM     26  C   LIG    1        0.498  -0.117   1.339  0.00  0.00    -0.210 A 
ATOM     27  S   LIG    1        1.747   1.117   1.192  0.00  0.00    +0.200 S 
ENDBRANCH   2  18
TORSDOF 2
