REMARK  Name = ZINCrg00000c8hia.0
REMARK                            x       y       z     vdW  Elec       q    Type
REMARK                         _______ _______ _______ _____ _____    ______ ____
ROOT
ATOM      1  O   LIG    1        2.097   3.788  -2.338  0.00  0.00    -0.520 OA
ATOM      2  C   LIG    1        2.760   4.231  -1.424  0.00  0.00    +0.520 C 
ATOM      3  N   LIG    1        3.855   4.972  -1.683  0.00  0.00    -0.620 N 
ATOM      4  C   LIG    1        4.676   5.519  -0.591  0.00  0.00    +0.250 C 
ATOM      5  C   LIG    1        6.140   5.153  -0.856  0.00  0.00    +0.210 C 
ATOM      6  O   LIG    1        6.495   5.559  -2.180  0.00  0.00    -0.360 OA
ATOM      7  C   LIG    1        5.752   4.907  -3.212  0.00  0.00    +0.110 C 
ATOM      8  C   LIG    1        5.931   3.392  -3.092  0.00  0.00    +0.000 C 
ATOM      9  C   LIG    1        7.419   3.046  -3.209  0.00  0.00    +0.280 C 
ATOM     10  N   LIG    1        7.941   3.619  -4.457  0.00  0.00    -0.610 N 
ATOM     11  C   LIG    1        7.744   5.053  -4.712  0.00  0.00    +0.280 C 
ATOM     12  C   LIG    1        8.588   2.845  -5.351  0.00  0.00    +0.520 C 
ATOM     13  O   LIG    1        8.816   1.682  -5.093  0.00  0.00    -0.520 OA
ATOM     14  C   LIG    1        6.253   5.377  -4.579  0.00  0.00    +0.060 C 
ATOM     15  C   LIG    1        4.271   5.252  -3.067  0.00  0.00    +0.270 C 
ENDROOT
BRANCH  12  16
ATOM     16  C   LIG    1        9.028   3.424  -6.670  0.00  0.00    +0.160 C 
ATOM     17  C   LIG    1       10.220   4.391  -6.462  0.00  0.00    +0.030 C 
ATOM     18  C   LIG    1       10.890   4.337  -7.864  0.00  0.00    +0.020 C 
ATOM     19  C   LIG    1       10.635   2.877  -8.294  0.00  0.00    +0.200 C 
ATOM     20  O   LIG    1        9.529   2.387  -7.528  0.00  0.00    -0.350 OA
ENDBRANCH  12  16
BRANCH   2  21
ATOM     21  C   LIG    1        2.358   3.952   0.002  0.00  0.00    +0.120 C 
BRANCH  21  22
ATOM     22  C   LIG    1        1.109   3.109   0.017  0.00  0.00    -0.120 A 
ATOM     23  C   LIG    1        1.196   1.726   0.018  0.00  0.00    +0.070 A 
ATOM     24  C   LIG    1        0.021   0.991   0.032  0.00  0.00    -0.030 A 
ATOM     25  C   LIG    1       -1.190   1.657   0.038  0.00  0.00    +0.260 A 
ATOM     26  N   LIG    1       -1.235   2.975   0.042  0.00  0.00    -0.480 NA
ATOM     27  C   LIG    1       -0.138   3.706   0.029  0.00  0.00    +0.270 A 
ENDBRANCH  21  22
ENDBRANCH   2  21
TORSDOF 3
