REMARK  Name = ZINCpe00000ReoMy.0
REMARK                            x       y       z     vdW  Elec       q    Type
REMARK                         _______ _______ _______ _____ _____    ______ ____
ROOT
ATOM      1  C   LIG    1        0.955  -2.164  -0.086  0.00  0.00    +0.300 C 
ENDROOT
BRANCH   1   2
ATOM      2  N   LIG    1        1.627  -2.588  -1.317  0.00  0.00    -0.690 N 
ATOM      3  H   LIG    1        1.104  -2.804  -2.106  0.00  0.00    +0.420 HD
ATOM      4  C   LIG    1        2.971  -2.678  -1.355  0.00  0.00    +0.600 C 
ATOM      5  O   LIG    1        3.621  -2.498  -0.342  0.00  0.00    -0.530 OA
BRANCH   4   6
ATOM      6  C   LIG    1        3.653  -2.993  -2.620  0.00  0.00    -0.040 A 
ATOM      7  C   LIG    1        3.057  -3.325  -3.824  0.00  0.00    -0.020 A 
ATOM      8  C   LIG    1        4.113  -3.531  -4.715  0.00  0.00    +0.020 A 
ATOM      9  N   LIG    1        5.231  -3.338  -4.064  0.00  0.00    -0.270 NA
ATOM     10  C   LIG    1        3.986  -3.913  -6.168  0.00  0.00    +0.150 C 
ATOM     11  N   LIG    1        5.001  -3.023  -2.840  0.00  0.00    -0.240 N 
BRANCH  11  12
ATOM     12  C   LIG    1        6.027  -2.740  -1.833  0.00  0.00    +0.180 C 
ATOM     13  C   LIG    1        5.825  -1.326  -1.284  0.00  0.00    +0.050 C 
ATOM     14  C   LIG    1        7.412  -2.845  -2.474  0.00  0.00    +0.080 C 
ATOM     15  C   LIG    1        5.915  -3.751  -0.691  0.00  0.00    +0.060 C 
ENDBRANCH  11  12
ENDBRANCH   4   6
ENDBRANCH   1   2
BRANCH   1  16
ATOM     16  C   LIG    1        0.945  -0.659  -0.012  0.00  0.00    +0.450 C 
ATOM     17  O   LIG    1        1.448  -0.007  -0.896  0.00  0.00    -0.490 OA
BRANCH  16  19
ATOM     18  C   LIG    1        0.405   1.409   1.042  0.00  0.00    +0.260 C 
ATOM     19  O   LIG    1        0.378  -0.043   1.037  0.00  0.00    -0.360 OA
ENDBRANCH  16  19
ENDBRANCH   1  16
BRANCH   1  20
ATOM     20  C   LIG    1       -0.484  -2.684  -0.086  0.00  0.00    +0.170 C 
BRANCH  20  21
ATOM     21  C   LIG    1       -0.474  -4.190  -0.022  0.00  0.00    -0.320 A 
ATOM     22  C   LIG    1       -0.550  -4.936   1.099  0.00  0.00    +0.380 A 
ATOM     23  N   LIG    1       -0.511  -6.254   0.744  0.00  0.00    -0.490 N 
ATOM     24  H   LIG    1       -0.549  -7.008   1.353  0.00  0.00    +0.450 HD
ATOM     25  N   LIG    1       -0.407  -6.329  -0.651  0.00  0.00    -0.520 N 
ATOM     26  H   LIG    1       -0.360  -7.142  -1.179  0.00  0.00    +0.440 HD
ATOM     27  C   LIG    1       -0.390  -5.068  -1.129  0.00  0.00    +0.540 A 
ATOM     28  O   LIG    1       -0.312  -4.743  -2.300  0.00  0.00    -0.550 OA
ENDBRANCH  20  21
ENDBRANCH   1  20
TORSDOF 7
