REMARK  Name = ZINCrD000000C0uP.0
REMARK                            x       y       z     vdW  Elec       q    Type
REMARK                         _______ _______ _______ _____ _____    ______ ____
ROOT
ATOM      1  O   LIG    1       -1.513   6.540  -3.133  0.00  0.00    -0.510 OA
ATOM      2  C   LIG    1       -1.403   5.877  -2.118  0.00  0.00    +0.590 C 
ATOM      3  N   LIG    1       -2.189   4.798  -1.929  0.00  0.00    -0.660 N 
ATOM      4  H   LIG    1       -2.147   4.308  -1.094  0.00  0.00    +0.410 HD
ENDROOT
BRANCH   3   5
ATOM      5  C   LIG    1       -3.067   4.386  -2.940  0.00  0.00    +0.120 A 
ATOM      6  C   LIG    1       -3.694   5.331  -3.742  0.00  0.00    +0.050 A 
ATOM      7  C   LIG    1       -4.555   4.924  -4.742  0.00  0.00    +0.020 A 
ATOM      8  C   LIG    1       -4.802   3.572  -4.938  0.00  0.00    +0.150 A 
ATOM      9  C   LIG    1       -4.179   2.628  -4.132  0.00  0.00    -0.010 A 
ATOM     10  C   LIG    1       -3.314   3.034  -3.136  0.00  0.00    +0.020 A 
BRANCH   8  11
ATOM     11  N   LIG    1       -5.680   3.159  -5.949  0.00  0.00    -0.560 N 
ATOM     12  C   LIG    1       -6.099   1.770  -6.166  0.00  0.00    +0.260 C 
ATOM     13  C   LIG    1       -6.681   1.733  -7.596  0.00  0.00    +0.060 C 
ATOM     14  C   LIG    1       -7.127   3.201  -7.792  0.00  0.00    +0.070 C 
ATOM     15  C   LIG    1       -6.251   3.986  -6.841  0.00  0.00    +0.510 C 
ATOM     16  O   LIG    1       -6.086   5.188  -6.880  0.00  0.00    -0.510 OA
ENDBRANCH   8  11
ENDBRANCH   3   5
BRANCH   2  17
ATOM     17  C   LIG    1       -0.416   6.252  -1.100  0.00  0.00    -0.090 A 
ATOM     18  C   LIG    1       -0.112   5.562   0.041  0.00  0.00    +0.230 A 
ATOM     19  N   LIG    1        0.835   6.241   0.688  0.00  0.00    -0.490 NA
ATOM     20  C   LIG    1        1.146   7.318   0.013  0.00  0.00    +0.450 A 
ATOM     21  N   LIG    1        0.393   7.373  -1.103  0.00  0.00    -0.380 N 
BRANCH  21  22
ATOM     22  C   LIG    1        0.428   8.374  -2.084  0.00  0.00    +0.090 A 
ATOM     23  C   LIG    1        0.220   9.701  -1.731  0.00  0.00    +0.060 A 
ATOM     24  C   LIG    1        0.255  10.685  -2.699  0.00  0.00    +0.000 A 
ATOM     25  C   LIG    1        0.498  10.350  -4.021  0.00  0.00    +0.120 A 
ATOM     26  C   LIG    1        0.701   9.027  -4.375  0.00  0.00    +0.010 A 
ATOM     27  F   LIG    1        0.531  11.315  -4.966  0.00  0.00    -0.130 F 
ATOM     28  C   LIG    1        0.672   8.040  -3.409  0.00  0.00    +0.100 A 
ENDBRANCH  21  22
ENDBRANCH   2  17
TORSDOF 4
