REMARK  Name = ZINCbw0000000HbY.0
REMARK                            x       y       z     vdW  Elec       q    Type
REMARK                         _______ _______ _______ _____ _____    ______ ____
ROOT
ATOM      1  C   LIG    1        1.175   1.783   0.000  0.00  0.00    -0.100 A 
ATOM      2  C   LIG    1       -0.013   1.076   0.008  0.00  0.00    +0.040 A 
ATOM      3  C   LIG    1       -1.219   1.750   0.017  0.00  0.00    +0.040 A 
ATOM      4  C   LIG    1       -1.238   3.134   0.029  0.00  0.00    -0.090 A 
ATOM      5  C   LIG    1       -0.049   3.841   0.021  0.00  0.00    +0.040 A 
ATOM      6 BR   LIG    1       -2.888   4.057   0.049  0.00  0.00    -0.050 Br
ATOM      7  C   LIG    1        1.157   3.165   0.007  0.00  0.00    +0.030 A 
ENDROOT
BRANCH   1   9
ATOM      8  C   LIG    1        3.538   1.892  -0.742  0.00  0.00    +0.020 C 
ATOM      9  C   LIG    1        2.490   1.047  -0.016  0.00  0.00    +0.170 C 
ATOM     10  C   LIG    1        2.949   0.791   1.421  0.00  0.00    +0.070 C 
BRANCH   9  11
ATOM     11  O   LIG    1        2.330  -0.200  -0.694  0.00  0.00    -0.550 OA
ATOM     12  H   LIG    1        2.040  -0.114  -1.613  0.00  0.00    +0.380 HD
ENDBRANCH   9  11
ENDBRANCH   1   9
TORSDOF 2
