REMARK  Name = ZINCqH0000005kAu.2
REMARK                            x       y       z     vdW  Elec       q    Type
REMARK                         _______ _______ _______ _____ _____    ______ ____
ROOT
ATOM      1  C   LIG    1        4.611   1.090  -0.183  0.00  0.00    +0.210 A 
ATOM      2  C   LIG    1        5.456   1.252   0.907  0.00  0.00    +0.000 A 
ATOM      3  C   LIG    1        6.378   2.279   0.921  0.00  0.00    +0.040 A 
ATOM      4  C   LIG    1        6.460   3.163  -0.143  0.00  0.00    +0.000 A 
ATOM      5  C   LIG    1        5.626   3.022  -1.231  0.00  0.00    +0.040 A 
ATOM      6  C   LIG    1        4.692   1.984  -1.263  0.00  0.00    -0.140 A 
ENDROOT
BRANCH   6   7
ATOM      7  C   LIG    1        3.796   1.828  -2.424  0.00  0.00    +0.550 C 
ATOM      8  N   LIG    1        4.184   2.265  -3.638  0.00  0.00    -0.600 N 
ATOM      9  C   LIG    1        3.333   1.966  -4.806  0.00  0.00    +0.260 C 
ATOM     10  C   LIG    1        3.223   3.188  -5.741  0.00  0.00    +0.030 C 
ATOM     11  C   LIG    1        3.103   4.452  -4.919  0.00  0.00    +0.200 C 
ATOM     12  N   LIG    1        4.436   5.009  -4.699  0.00  0.00    -0.530 NA
ATOM     13  C   LIG    1        5.145   4.519  -3.578  0.00  0.00    +0.180 C 
ATOM     14  C   LIG    1        5.425   3.006  -3.748  0.00  0.00    +0.280 C 
ATOM     15  O   LIG    1        2.707   1.304  -2.286  0.00  0.00    -0.510 OA
BRANCH  12  16
ATOM     16  C   LIG    1        4.400   6.478  -4.698  0.00  0.00    +0.100 C 
ATOM     17  C   LIG    1        4.637   7.191  -6.030  0.00  0.00    +0.030 C 
ATOM     18  C   LIG    1        5.716   7.217  -4.945  0.00  0.00    +0.030 C 
ENDBRANCH  12  16
ENDBRANCH   6   7
BRANCH   1  20
ATOM     19  C   LIG    1        4.055  -1.246  -0.772  0.00  0.00    +0.280 C 
ATOM     20  N   LIG    1        3.687   0.053  -0.203  0.00  0.00    -0.590 N 
BRANCH  20  21
ATOM     21  C   LIG    1        2.406   0.249   0.320  0.00  0.00    +0.240 A 
ATOM     22  C   LIG    1        1.480  -0.787   0.301  0.00  0.00    -0.070 A 
ATOM     23  C   LIG    1        0.214  -0.589   0.815  0.00  0.00    +0.040 A 
ATOM     24  C   LIG    1       -0.130   0.637   1.356  0.00  0.00    -0.060 A 
ATOM     25  C   LIG    1        0.788   1.670   1.376  0.00  0.00    +0.040 A 
ATOM     26  C   LIG    1        2.055   1.480   0.860  0.00  0.00    -0.070 A 
ENDBRANCH  20  21
ENDBRANCH   1  20
TORSDOF 4
