REMARK  Name = ZINCpe000000WqXL.1
REMARK                            x       y       z     vdW  Elec       q    Type
REMARK                         _______ _______ _______ _____ _____    ______ ____
ROOT
ATOM      1  N   LIG    1       -1.473  -2.265  -2.285  0.00  0.00    -0.560 N 
ATOM      2  C   LIG    1       -1.483  -2.084  -0.829  0.00  0.00    +0.300 C 
ATOM      3  C   LIG    1       -1.607  -0.561  -0.603  0.00  0.00    +0.000 C 
ATOM      4  C   LIG    1       -2.301  -0.105  -1.907  0.00  0.00    +0.080 C 
ATOM      5  C   LIG    1       -1.933  -1.171  -2.916  0.00  0.00    +0.520 C 
ATOM      6  O   LIG    1       -2.038  -1.054  -4.119  0.00  0.00    -0.520 OA
ENDROOT
BRANCH   3   7
ATOM      7  C   LIG    1       -0.249   0.076  -0.464  0.00  0.00    +0.520 C 
ATOM      8  N   LIG    1       -0.145   1.405  -0.260  0.00  0.00    -0.610 N 
ATOM      9  C   LIG    1       -1.338   2.265  -0.269  0.00  0.00    +0.270 C 
ATOM     10  C   LIG    1       -1.091   3.438  -1.217  0.00  0.00    +0.170 C 
ATOM     11  N   LIG    1        0.159   4.112  -0.843  0.00  0.00    -0.690 NA
ATOM     12  H   LIG    1        0.288   4.958  -1.378  0.00  0.00    +0.350 HD
ATOM     13  C   LIG    1        1.314   3.216  -0.991  0.00  0.00    +0.170 C 
ATOM     14  C   LIG    1        1.164   2.033  -0.028  0.00  0.00    +0.230 C 
ATOM     15  C   LIG    1        2.276   1.013  -0.284  0.00  0.00    +0.060 C 
ATOM     16  O   LIG    1        0.751  -0.606  -0.535  0.00  0.00    -0.510 OA
ENDBRANCH   3   7
BRANCH   1  20
ATOM     17  C   LIG    1       -0.185  -5.732  -4.220  0.00  0.00    +0.180 A 
ATOM     18  C   LIG    1       -1.514  -5.595  -3.851  0.00  0.00    -0.100 A 
ATOM     19  C   LIG    1       -1.941  -4.447  -3.210  0.00  0.00    +0.110 A 
ATOM     20  C   LIG    1       -1.040  -3.430  -2.936  0.00  0.00    +0.070 A 
ATOM     21  C   LIG    1        0.295  -3.563  -3.312  0.00  0.00    +0.180 A 
ATOM     22  C   LIG    1        0.721  -4.717  -3.948  0.00  0.00    -0.100 A 
BRANCH  17  24
ATOM     23  C   LIG    1       -0.753  -7.868  -5.099  0.00  0.00    +0.250 C 
ATOM     24  O   LIG    1        0.232  -6.863  -4.850  0.00  0.00    -0.310 OA
ENDBRANCH  17  24
BRANCH  21  25
ATOM     25  O   LIG    1        1.179  -2.565  -3.049  0.00  0.00    -0.290 OA
ATOM     26  C   LIG    1        2.531  -2.770  -3.463  0.00  0.00    +0.250 C 
ENDBRANCH  21  25
ENDBRANCH   1  20
TORSDOF 4
