REMARK  Name = ZINCpk00000j8rUU.0
REMARK                            x       y       z     vdW  Elec       q    Type
REMARK                         _______ _______ _______ _____ _____    ______ ____
ROOT
ATOM      1  C   LIG    1       -1.524  -2.044   0.049  0.00  0.00    +0.170 A 
ATOM      2  N   LIG    1       -1.537  -2.802  -1.011  0.00  0.00    -0.270 NA
ATOM      3  N   LIG    1       -1.461  -4.039  -0.671  0.00  0.00    -0.270 NA
ATOM      4  C   LIG    1       -1.405  -4.138   0.637  0.00  0.00    +0.400 A 
ATOM      5  N   LIG    1       -1.443  -2.869   1.137  0.00  0.00    -0.480 N 
ATOM      6  C   LIG    1       -1.406  -2.472   2.546  0.00  0.00    +0.330 C 
ENDROOT
BRANCH   4   7
ATOM      7  N   LIG    1       -1.322  -5.311   1.371  0.00  0.00    -0.550 N 
ATOM      8  C   LIG    1       -2.541  -6.047   1.717  0.00  0.00    +0.320 C 
BRANCH   7   9
ATOM      9  C   LIG    1       -0.076  -5.792   1.782  0.00  0.00    +0.200 A 
ATOM     10  C   LIG    1        1.087  -5.157   1.365  0.00  0.00    -0.060 A 
ATOM     11  C   LIG    1        2.317  -5.632   1.776  0.00  0.00    +0.050 A 
ATOM     12  C   LIG    1        2.392  -6.745   2.594  0.00  0.00    -0.040 A 
ATOM     13  C   LIG    1        1.236  -7.382   3.007  0.00  0.00    +0.050 A 
ATOM     14  C   LIG    1        0.003  -6.909   2.604  0.00  0.00    -0.050 A 
ENDBRANCH   7   9
ENDBRANCH   4   7
BRANCH   1  15
ATOM     15  C   LIG    1       -1.591  -0.539   0.073  0.00  0.00    +0.160 C 
BRANCH  15  22
ATOM     16  C   LIG    1        4.284   0.218  -1.630  0.00  0.00    +0.080 C 
ATOM     17  C   LIG    1        2.951  -0.477  -1.535  0.00  0.00    +0.510 C 
ATOM     18  N   LIG    1        1.826   0.243  -1.358  0.00  0.00    -0.610 N 
ATOM     19  C   LIG    1        1.883   1.708  -1.256  0.00  0.00    +0.260 C 
ATOM     20  C   LIG    1        1.175   2.140   0.032  0.00  0.00    +0.030 C 
ATOM     21  C   LIG    1       -0.243   1.565   0.048  0.00  0.00    +0.060 C 
ATOM     22  C   LIG    1       -0.174   0.036   0.024  0.00  0.00    +0.130 C 
ATOM     23  C   LIG    1        0.518  -0.420  -1.264  0.00  0.00    +0.270 C 
ATOM     24  O   LIG    1        2.890  -1.686  -1.617  0.00  0.00    -0.540 OA
BRANCH  22  25
ATOM     25  O   LIG    1        0.567  -0.426   1.155  0.00  0.00    -0.550 OA
ATOM     26  H   LIG    1        0.650  -1.388   1.204  0.00  0.00    +0.370 HD
ENDBRANCH  22  25
ENDBRANCH  15  22
ENDBRANCH   1  15
TORSDOF 5
