REMARK  Name = ZINCtV00000Gu2wh.0
REMARK                            x       y       z     vdW  Elec       q    Type
REMARK                         _______ _______ _______ _____ _____    ______ ____
ROOT
ATOM      1  C   LIG    1        4.848   1.113   0.089  0.00  0.00    +0.200 A 
ATOM      2  C   LIG    1        4.907  -0.138   0.689  0.00  0.00    +0.030 A 
ATOM      3  C   LIG    1        6.108  -0.815   0.759  0.00  0.00    +0.090 A 
ATOM      4  C   LIG    1        7.263  -0.254   0.234  0.00  0.00    -0.110 A 
ATOM      5  C   LIG    1        7.223   0.987  -0.365  0.00  0.00    +0.110 A 
ATOM      6 BR   LIG    1        8.899  -1.196   0.340  0.00  0.00    -0.040 Br
ATOM      7  C   LIG    1        6.013   1.681  -0.450  0.00  0.00    -0.180 A 
ENDROOT
BRANCH   1   9
ATOM      8  C   LIG    1        2.476   1.115   0.048  0.00  0.00    +0.570 C 
ATOM      9  N   LIG    1        3.638   1.797   0.017  0.00  0.00    -0.670 N 
ATOM     10  H   LIG    1        3.631   2.764  -0.056  0.00  0.00    +0.410 HD
ATOM     11  O   LIG    1        2.483  -0.100   0.032  0.00  0.00    -0.500 OA
BRANCH   8  15
ATOM     12  C   LIG    1       -1.213   3.215   0.205  0.00  0.00    -0.030 A 
ATOM     13  C   LIG    1       -1.209   1.831   0.181  0.00  0.00    +0.010 A 
ATOM     14  C   LIG    1       -0.014   1.143   0.136  0.00  0.00    +0.090 A 
ATOM     15  C   LIG    1        1.192   1.846   0.103  0.00  0.00    -0.150 A 
ATOM     16  C   LIG    1        1.180   3.242   0.122  0.00  0.00    +0.040 A 
ATOM     17  C   LIG    1       -0.022   3.917   0.173  0.00  0.00    +0.010 A 
BRANCH  12  19
ATOM     18  C   LIG    1       -2.651   4.855  -0.974  0.00  0.00    +0.040 C 
ATOM     19  C   LIG    1       -2.522   3.960   0.260  0.00  0.00    -0.040 C 
ATOM     20  C   LIG    1       -2.565   4.822   1.523  0.00  0.00    +0.040 C 
ATOM     21  C   LIG    1       -3.678   2.958   0.286  0.00  0.00    +0.030 C 
ENDBRANCH  12  19
ENDBRANCH   8  15
ENDBRANCH   1   9
BRANCH   7  22
ATOM     22  C   LIG    1        5.962   3.006  -1.095  0.00  0.00    +0.430 C 
ATOM     23  O   LIG    1        6.466   3.968  -0.548  0.00  0.00    -0.410 OA
BRANCH  22  24
ATOM     24  C   LIG    1        5.300   3.164  -2.406  0.00  0.00    -0.170 A 
ATOM     25  C   LIG    1        4.817   2.045  -3.088  0.00  0.00    +0.090 A 
ATOM     26  C   LIG    1        4.199   2.200  -4.311  0.00  0.00    +0.010 A 
ATOM     27  C   LIG    1        4.057   3.460  -4.864  0.00  0.00    +0.070 A 
ATOM     28  C   LIG    1        4.533   4.574  -4.196  0.00  0.00    +0.020 A 
ATOM     29  C   LIG    1        5.148   4.435  -2.968  0.00  0.00    +0.010 A 
ATOM     30 CL   LIG    1        5.739   5.835  -2.127  0.00  0.00    -0.030 Cl
ENDBRANCH  22  24
ENDBRANCH   7  22
TORSDOF 5
