REMARK  Name = ZINCpk00000y6xXm.0
REMARK                            x       y       z     vdW  Elec       q    Type
REMARK                         _______ _______ _______ _____ _____    ______ ____
ROOT
ATOM      1  O   LIG    1       -2.328  -0.172   0.066  0.00  0.00    -0.530 OA
ATOM      2  C   LIG    1       -1.266  -0.763   0.040  0.00  0.00    +0.560 C 
ATOM      3  N   LIG    1       -1.245  -2.111   0.033  0.00  0.00    -0.720 N 
ATOM      4  H   LIG    1       -0.398  -2.583   0.012  0.00  0.00    +0.400 HD
ENDROOT
BRANCH   2   5
ATOM      5  C   LIG    1        0.002  -0.004   0.017  0.00  0.00    -0.110 A 
ATOM      6  C   LIG    1        1.223  -0.681  -0.013  0.00  0.00    +0.020 A 
ATOM      7  C   LIG    1        2.405   0.030  -0.036  0.00  0.00    +0.040 A 
ATOM      8  C   LIG    1        2.387   1.412  -0.028  0.00  0.00    +0.000 A 
ATOM      9  C   LIG    1        1.177   2.095   0.002  0.00  0.00    +0.160 A 
ATOM     10  C   LIG    1       -0.017   1.391   0.025  0.00  0.00    +0.070 A 
BRANCH   9  11
ATOM     11  N   LIG    1        1.163   3.495   0.010  0.00  0.00    -0.560 N 
ATOM     12  C   LIG    1        2.362   4.334   0.115  0.00  0.00    +0.260 C 
ATOM     13  C   LIG    1        1.921   5.740  -0.354  0.00  0.00    +0.060 C 
ATOM     14  C   LIG    1        0.407   5.713  -0.045  0.00  0.00    +0.070 C 
ATOM     15  C   LIG    1        0.049   4.243  -0.072  0.00  0.00    +0.510 C 
ATOM     16  O   LIG    1       -1.078   3.804  -0.155  0.00  0.00    -0.500 OA
ENDBRANCH   9  11
ENDBRANCH   2   5
BRANCH   3  17
ATOM     17  C   LIG    1       -2.502  -2.863   0.056  0.00  0.00    +0.300 C 
BRANCH  17  18
ATOM     18  C   LIG    1       -2.200  -4.363   0.041  0.00  0.00    +0.160 C 
ATOM     19  C   LIG    1       -3.513  -5.150   0.066  0.00  0.00    +0.170 C 
ATOM     20  N   LIG    1       -3.218  -6.587  -0.026  0.00  0.00    -0.510 NA
ATOM     21  C   LIG    1       -2.473  -6.889  -1.257  0.00  0.00    +0.160 C 
ATOM     22  C   LIG    1       -1.170  -6.084  -1.268  0.00  0.00    +0.220 C 
ATOM     23  O   LIG    1       -1.474  -4.692  -1.146  0.00  0.00    -0.380 OA
BRANCH  20  24
ATOM     24  C   LIG    1       -4.451  -7.383   0.051  0.00  0.00    +0.090 C 
ATOM     25  C   LIG    1       -4.663  -8.238   1.302  0.00  0.00    +0.040 C 
ATOM     26  C   LIG    1       -4.315  -8.905  -0.030  0.00  0.00    +0.030 C 
ENDBRANCH  20  24
ENDBRANCH  17  18
ENDBRANCH   3  17
TORSDOF 5
