REMARK  Name = ZINCnE000001CBNT.1
REMARK                            x       y       z     vdW  Elec       q    Type
REMARK                         _______ _______ _______ _____ _____    ______ ____
ROOT
ATOM      1  C   LIG    1       -1.566   4.394   0.040  0.00  0.00    +0.150 A 
ATOM      2  C   LIG    1       -1.050   5.638   0.042  0.00  0.00    -0.180 A 
ATOM      3  S   LIG    1       -2.384   6.789   0.059  0.00  0.00    -0.010 S 
ATOM      4  C   LIG    1       -3.537   5.457   0.063  0.00  0.00    +0.390 A 
ATOM      5  N   LIG    1       -2.896   4.331   0.046  0.00  0.00    -0.540 NA
ENDROOT
BRANCH   1   9
ATOM      6  C   LIG    1        1.059   1.891   0.002  0.00  0.00    -0.060 A 
ATOM      7  C   LIG    1       -0.013   1.076   0.008  0.00  0.00    -0.020 A 
ATOM      8  C   LIG    1       -1.158   1.899   0.017  0.00  0.00    -0.030 A 
ATOM      9  C   LIG    1       -0.716   3.185   0.026  0.00  0.00    +0.100 A 
ATOM     10  O   LIG    1        0.631   3.165   0.013  0.00  0.00    -0.170 OA
BRANCH   6  11
ATOM     11  C   LIG    1        2.500   1.449  -0.014  0.00  0.00    +0.390 C 
BRANCH  11  14
ATOM     12  C   LIG    1        4.685   0.784  -3.086  0.00  0.00    +0.090 C 
ATOM     13  C   LIG    1        4.218   0.925  -1.660  0.00  0.00    +0.510 C 
ATOM     14  N   LIG    1        2.954   1.312  -1.400  0.00  0.00    -0.730 N 
ATOM     15  H   LIG    1        2.344   1.501  -2.131  0.00  0.00    +0.410 HD
ATOM     16  O   LIG    1        4.980   0.689  -0.746  0.00  0.00    -0.550 OA
ENDBRANCH  11  14
ENDBRANCH   6  11
ENDBRANCH   1   9
BRANCH   4  17
ATOM     17  N   LIG    1       -4.919   5.594   0.075  0.00  0.00    -0.660 NA
ATOM     18  C   LIG    1       -5.475   6.822   0.086  0.00  0.00    +0.450 C 
ATOM     19  O   LIG    1       -4.769   7.807   0.084  0.00  0.00    -0.600 OA
BRANCH  18  20
ATOM     20  C   LIG    1       -6.975   6.969   0.099  0.00  0.00    +0.050 C 
BRANCH  20  21
ATOM     21  C   LIG    1       -7.341   8.455   0.109  0.00  0.00    +0.020 C 
BRANCH  21  22
ATOM     22  C   LIG    1       -8.864   8.605   0.123  0.00  0.00    -0.030 C 
ATOM     23  C   LIG    1       -9.442   8.055  -1.183  0.00  0.00    +0.010 C 
ATOM     24  C   LIG    1       -9.229  10.085   0.259  0.00  0.00    +0.010 C 
ENDBRANCH  21  22
ENDBRANCH  20  21
ENDBRANCH  18  20
ENDBRANCH   4  17
TORSDOF 7
