REMARK  Name = ZINCqH0000033mbw.1
REMARK                            x       y       z     vdW  Elec       q    Type
REMARK                         _______ _______ _______ _____ _____    ______ ____
ROOT
ATOM      1  C   LIG    1        1.178   1.785   0.000  0.00  0.00    +0.050 A 
ATOM      2  C   LIG    1       -0.013   1.076   0.008  0.00  0.00    +0.030 A 
ATOM      3  C   LIG    1       -1.220   1.751   0.017  0.00  0.00    +0.010 A 
ATOM      4  C   LIG    1       -1.243   3.133   0.031  0.00  0.00    -0.130 A 
ATOM      5  C   LIG    1       -0.059   3.849   0.023  0.00  0.00    -0.010 A 
ATOM      6  C   LIG    1        1.155   3.180   0.008  0.00  0.00    +0.240 A 
ENDROOT
BRANCH   1  10
ATOM      7  N   LIG    1        4.071  -1.201  -0.085  0.00  0.00    -0.540 NA
ATOM      8  C   LIG    1        3.918  -0.423   1.152  0.00  0.00    +0.180 C 
ATOM      9  C   LIG    1        2.539   0.241   1.167  0.00  0.00    +0.190 C 
ATOM     10  N   LIG    1        2.401   1.104  -0.015  0.00  0.00    -0.500 N 
ATOM     11  C   LIG    1        2.555   0.325  -1.252  0.00  0.00    +0.190 C 
ATOM     12  C   LIG    1        3.933  -0.339  -1.267  0.00  0.00    +0.180 C 
BRANCH   7  14
ATOM     13  C   LIG    1        5.590  -2.508  -1.492  0.00  0.00    +0.020 C 
ATOM     14  C   LIG    1        5.354  -1.916  -0.101  0.00  0.00    +0.160 C 
ENDBRANCH   7  14
ENDBRANCH   1  10
BRANCH   4  15
ATOM     15  C   LIG    1       -2.562   3.862   0.047  0.00  0.00    +0.510 C 
ATOM     16  F   LIG    1       -2.411   5.084   0.712  0.00  0.00    -0.180 F 
ATOM     17  F   LIG    1       -3.516   3.084   0.712  0.00  0.00    -0.180 F 
ATOM     18  F   LIG    1       -2.982   4.095  -1.266  0.00  0.00    -0.180 F 
ENDBRANCH   4  15
BRANCH   6  19
ATOM     19  N   LIG    1        2.354   3.903   0.000  0.00  0.00    -0.730 N 
ATOM     20  H   LIG    1        3.203   3.433  -0.011  0.00  0.00    +0.410 HD
BRANCH  19  21
ATOM     21  C   LIG    1        2.327   5.367   0.008  0.00  0.00    +0.390 C 
BRANCH  21  22
ATOM     22  C   LIG    1        3.738   5.896  -0.003  0.00  0.00    -0.080 A 
ATOM     23  C   LIG    1        4.476   6.177  -1.089  0.00  0.00    +0.180 A 
ATOM     24  N   LIG    1        5.671   6.626  -0.666  0.00  0.00    -0.490 NA
ATOM     25  C   LIG    1        5.683   6.618   0.636  0.00  0.00    +0.200 A 
ATOM     26  C   LIG    1        6.838   7.043   1.507  0.00  0.00    +0.230 C 
ATOM     27  O   LIG    1        4.498   6.171   1.075  0.00  0.00    -0.200 OA
ENDBRANCH  21  22
ENDBRANCH  19  21
ENDBRANCH   6  19
TORSDOF 6
