REMARK  Name = ZINCvU0000000616.0
REMARK                            x       y       z     vdW  Elec       q    Type
REMARK                         _______ _______ _______ _____ _____    ______ ____
ROOT
ATOM      1  C   LIG    1       -0.571  -2.680  -0.007  0.00  0.00    +0.040 C 
ENDROOT
BRANCH   1   2
ATOM      2  C   LIG    1        0.206  -2.858   1.272  0.00  0.00    -0.090 A 
ATOM      3  C   LIG    1       -0.450  -2.828   2.489  0.00  0.00    +0.030 A 
ATOM      4  C   LIG    1        0.262  -2.996   3.662  0.00  0.00    +0.000 A 
ATOM      5  C   LIG    1        1.631  -3.184   3.619  0.00  0.00    -0.070 A 
ATOM      6  C   LIG    1        2.287  -3.209   2.403  0.00  0.00    +0.000 A 
ATOM      7  C   LIG    1        2.408  -3.361   4.898  0.00  0.00    +0.090 C 
ATOM      8  C   LIG    1        1.575  -3.046   1.230  0.00  0.00    +0.070 A 
ENDBRANCH   1   2
BRANCH   1   9
ATOM      9  C   LIG    1       -1.600  -3.774  -0.126  0.00  0.00    +0.430 C 
ATOM     10  O   LIG    1       -2.736  -3.582   0.251  0.00  0.00    -0.430 OA
BRANCH   9  11
ATOM     11  C   LIG    1       -1.225  -5.077  -0.700  0.00  0.00    -0.170 A 
ATOM     12  C   LIG    1        0.083  -5.301  -1.142  0.00  0.00    +0.070 A 
ATOM     13  C   LIG    1        0.427  -6.525  -1.674  0.00  0.00    +0.000 A 
ATOM     14  C   LIG    1       -0.521  -7.528  -1.782  0.00  0.00    -0.050 A 
ATOM     15  C   LIG    1       -1.819  -7.312  -1.353  0.00  0.00    +0.000 A 
ATOM     16  C   LIG    1       -0.138  -8.861  -2.371  0.00  0.00    +0.100 C 
ATOM     17  C   LIG    1       -2.177  -6.095  -0.813  0.00  0.00    +0.090 A 
ENDBRANCH   9  11
ENDBRANCH   1   9
BRANCH   1  18
ATOM     18  S   LIG    1       -1.400  -1.071   0.010  0.00  0.00    +0.070 S 
BRANCH  18  23
ATOM     19  N   LIG    1       -0.017   1.363   0.009  0.00  0.00    -0.410 N 
ATOM     20  C   LIG    1        1.297   1.751  -0.001  0.00  0.00    +0.390 A 
ATOM     21  N   LIG    1        2.021   0.667  -0.014  0.00  0.00    -0.280 NA
ATOM     22  N   LIG    1        1.263  -0.371  -0.012  0.00  0.00    -0.280 NA
ATOM     23  C   LIG    1        0.002  -0.004   0.002  0.00  0.00    +0.170 A 
BRANCH  19  29
ATOM     24  C   LIG    1       -2.009   2.191   1.114  0.00  0.00    +0.150 A 
ATOM     25  C   LIG    1       -3.119   3.019   1.121  0.00  0.00    -0.060 A 
ATOM     26  C   LIG    1       -3.376   3.841   0.039  0.00  0.00    +0.080 A 
ATOM     27  C   LIG    1       -2.524   3.842  -1.050  0.00  0.00    -0.010 A 
ATOM     28  C   LIG    1       -1.411   3.023  -1.062  0.00  0.00    +0.080 A 
ATOM     29  C   LIG    1       -1.147   2.196   0.020  0.00  0.00    +0.060 A 
BRANCH  24  31
ATOM     30  C   LIG    1       -2.684   1.425   3.261  0.00  0.00    +0.260 C 
ATOM     31  O   LIG    1       -1.758   1.378   2.175  0.00  0.00    -0.300 OA
ENDBRANCH  24  31
ENDBRANCH  19  29
ENDBRANCH  18  23
ENDBRANCH   1  18
TORSDOF 7
