REMARK  Name = ZINCvU00000007V1.0
REMARK                            x       y       z     vdW  Elec       q    Type
REMARK                         _______ _______ _______ _____ _____    ______ ____
ROOT
ATOM      1  C   LIG    1        2.297  -6.782   3.799  0.00  0.00    +0.280 A 
ATOM      2  N   LIG    1        2.886  -5.921   4.588  0.00  0.00    -0.290 NA
ATOM      3  N   LIG    1        2.603  -4.641   4.086  0.00  0.00    -0.320 N 
ATOM      4  C   LIG    1        1.830  -4.830   2.981  0.00  0.00    +0.370 A 
ATOM      5  N   LIG    1        1.656  -6.128   2.833  0.00  0.00    -0.510 NA
ENDROOT
BRANCH   3   6
ATOM      6  C   LIG    1        3.031  -3.416   4.614  0.00  0.00    +0.170 A 
ATOM      7  C   LIG    1        4.346  -3.260   5.032  0.00  0.00    +0.040 A 
ATOM      8  C   LIG    1        4.766  -2.050   5.548  0.00  0.00    +0.090 A 
ATOM      9  C   LIG    1        3.876  -0.997   5.658  0.00  0.00    -0.170 A 
ATOM     10  C   LIG    1        2.564  -1.151   5.247  0.00  0.00    +0.100 A 
ATOM     11  C   LIG    1        2.139  -2.357   4.726  0.00  0.00    +0.070 A 
BRANCH   9  12
ATOM     12  C   LIG    1        4.336   0.321   6.227  0.00  0.00    +0.510 C 
ATOM     13  F   LIG    1        3.595   1.360   5.654  0.00  0.00    -0.170 F 
ATOM     14  F   LIG    1        5.693   0.503   5.941  0.00  0.00    -0.170 F 
ATOM     15  F   LIG    1        4.147   0.322   7.613  0.00  0.00    -0.170 F 
ENDBRANCH   9  12
ENDBRANCH   3   6
BRANCH   1  20
ATOM     16  C   LIG    1        0.981 -10.223   5.073  0.00  0.00    +0.070 C 
ATOM     17  C   LIG    1        0.998  -9.002   4.151  0.00  0.00    -0.100 C 
ATOM     18  C   LIG    1        1.754  -9.127   2.827  0.00  0.00    +0.070 C 
ATOM     19  C   LIG    1       -0.272  -8.149   4.162  0.00  0.00    +0.060 C 
ATOM     20  C   LIG    1        2.333  -8.279   3.961  0.00  0.00    +0.050 C 
ENDBRANCH   1  20
BRANCH   4  21
ATOM     21  C   LIG    1        1.279  -3.771   2.109  0.00  0.00    +0.040 A 
ATOM     22  C   LIG    1        0.411  -3.945   1.082  0.00  0.00    +0.260 A 
ATOM     23  O   LIG    1        0.169  -2.727   0.557  0.00  0.00    -0.220 OA
ATOM     24  C   LIG    1        0.877  -1.824   1.252  0.00  0.00    +0.400 A 
ATOM     25  N   LIG    1        1.553  -2.439   2.185  0.00  0.00    -0.450 NA
BRANCH  24  26
ATOM     26  O   LIG    1        0.894  -0.491   1.019  0.00  0.00    -0.230 OA
BRANCH  26  27
ATOM     27  C   LIG    1        0.086  -0.010  -0.058  0.00  0.00    +0.270 C 
BRANCH  27  28
ATOM     28  C   LIG    1        0.233   1.509  -0.167  0.00  0.00    +0.470 C 
ATOM     29  F   LIG    1       -0.183   2.104   1.029  0.00  0.00    -0.170 F 
ATOM     30  F   LIG    1       -0.557   1.980  -1.221  0.00  0.00    -0.160 F 
ATOM     31  F   LIG    1        1.573   1.832  -0.407  0.00  0.00    -0.170 F 
ENDBRANCH  27  28
ENDBRANCH  26  27
ENDBRANCH  24  26
ENDBRANCH   4  21
TORSDOF 7
