REMARK  Name = ZINCqH00000072QT.0
REMARK                            x       y       z     vdW  Elec       q    Type
REMARK                         _______ _______ _______ _____ _____    ______ ____
ROOT
ATOM      1  C   LIG    1       -2.776  -4.402  -1.995  0.00  0.00    +0.580 C 
ATOM      2  N   LIG    1       -1.566  -3.991  -1.566  0.00  0.00    -0.600 N 
ATOM      3  C   LIG    1       -0.549  -4.976  -1.189  0.00  0.00    +0.300 C 
ATOM      4  O   LIG    1       -3.647  -3.587  -2.229  0.00  0.00    -0.530 OA
ENDROOT
BRANCH   1   8
ATOM      5  C   LIG    1       -3.544  -8.549  -2.521  0.00  0.00    +0.120 A 
ATOM      6  C   LIG    1       -3.039  -8.084  -1.314  0.00  0.00    -0.040 A 
ATOM      7  C   LIG    1       -2.789  -6.740  -1.140  0.00  0.00    +0.050 A 
ATOM      8  C   LIG    1       -3.043  -5.842  -2.179  0.00  0.00    -0.120 A 
ATOM      9  C   LIG    1       -3.557  -6.309  -3.392  0.00  0.00    +0.020 A 
ATOM     10  C   LIG    1       -3.800  -7.658  -3.562  0.00  0.00    +0.100 A 
BRANCH   5  12
ATOM     11  C   LIG    1       -3.504 -10.731  -1.579  0.00  0.00    +0.240 C 
ATOM     12  O   LIG    1       -3.789  -9.874  -2.687  0.00  0.00    -0.300 OA
ENDBRANCH   5  12
BRANCH  10  13
ATOM     13  O   LIG    1       -4.295  -8.117  -4.743  0.00  0.00    -0.300 OA
ATOM     14  C   LIG    1       -4.534  -7.148  -5.766  0.00  0.00    +0.240 C 
ENDBRANCH  10  13
ENDBRANCH   1   8
BRANCH   2  15
ATOM     15  C   LIG    1       -1.268  -2.559  -1.478  0.00  0.00    +0.330 C 
BRANCH  15  16
ATOM     16  C   LIG    1       -0.686  -2.086  -2.785  0.00  0.00    +0.510 C 
ATOM     17  N   LIG    1       -0.334  -0.794  -2.937  0.00  0.00    -0.690 N 
ATOM     18  H   LIG    1       -0.383  -0.186  -2.183  0.00  0.00    +0.410 HD
ATOM     19  O   LIG    1       -0.536  -2.867  -3.700  0.00  0.00    -0.500 OA
BRANCH  17  20
ATOM     20  C   LIG    1        0.104  -0.329  -4.183  0.00  0.00    +0.150 A 
ATOM     21  C   LIG    1       -0.813   0.161  -5.105  0.00  0.00    -0.020 A 
ATOM     22  C   LIG    1       -0.377   0.619  -6.334  0.00  0.00    +0.050 A 
ATOM     23  C   LIG    1        0.969   0.590  -6.647  0.00  0.00    +0.060 A 
ATOM     24  C   LIG    1        1.885   0.102  -5.732  0.00  0.00    +0.050 A 
ATOM     25 CL   LIG    1       -2.505   0.192  -4.716  0.00  0.00    -0.040 Cl
ATOM     26  C   LIG    1        1.456  -0.357  -4.501  0.00  0.00    -0.020 A 
ATOM     27 CL   LIG    1        2.606  -0.968  -3.353  0.00  0.00    -0.050 Cl
ENDBRANCH  17  20
ENDBRANCH  15  16
ENDBRANCH   2  15
TORSDOF 6
