REMARK  Name = ZINCvU00000005MK.0
REMARK                            x       y       z     vdW  Elec       q    Type
REMARK                         _______ _______ _______ _____ _____    ______ ____
ROOT
ATOM      1  O   LIG    1       -0.090   8.404   1.262  0.00  0.00    -0.520 OA
ATOM      2  C   LIG    1       -1.046   7.693   1.499  0.00  0.00    +0.570 C 
ATOM      3  N   LIG    1       -1.136   6.473   0.934  0.00  0.00    -0.720 N 
ATOM      4  H   LIG    1       -1.899   5.905   1.124  0.00  0.00    +0.400 HD
ENDROOT
BRANCH   2   5
ATOM      5  C   LIG    1       -2.112   8.167   2.408  0.00  0.00    -0.130 A 
ATOM      6  C   LIG    1       -3.215   7.355   2.678  0.00  0.00    +0.060 A 
ATOM      7  C   LIG    1       -4.204   7.801   3.530  0.00  0.00    +0.000 A 
ATOM      8  C   LIG    1       -4.110   9.055   4.108  0.00  0.00    +0.060 A 
ATOM      9  C   LIG    1       -3.021   9.866   3.841  0.00  0.00    -0.130 A 
ATOM     10  C   LIG    1       -2.023   9.430   2.995  0.00  0.00    +0.120 A 
BRANCH   9  11
ATOM     11  C   LIG    1       -2.927  11.230   4.475  0.00  0.00    +0.390 C 
BRANCH  11  12
ATOM     12  N   LIG    1       -3.569  12.219   3.606  0.00  0.00    -0.350 N 
ATOM     13  C   LIG    1       -4.556  13.067   3.961  0.00  0.00    +0.250 A 
ATOM     14  C   LIG    1       -4.870  13.813   2.877  0.00  0.00    -0.070 A 
ATOM     15  C   LIG    1       -4.046  13.407   1.823  0.00  0.00    -0.020 A 
ATOM     16  N   LIG    1       -3.261  12.456   2.260  0.00  0.00    -0.230 NA
BRANCH  15  17
ATOM     17  C   LIG    1       -4.055  13.973   0.426  0.00  0.00    +0.560 C 
ATOM     18  F   LIG    1       -5.343  14.419   0.112  0.00  0.00    -0.170 F 
ATOM     19  F   LIG    1       -3.671  12.980  -0.482  0.00  0.00    -0.170 F 
ATOM     20  F   LIG    1       -3.159  15.045   0.351  0.00  0.00    -0.170 F 
ENDBRANCH  15  17
ENDBRANCH  11  12
ENDBRANCH   9  11
ENDBRANCH   2   5
BRANCH   3  21
ATOM     21  C   LIG    1       -0.079   6.003   0.034  0.00  0.00    +0.290 C 
BRANCH  21  22
ATOM     22  C   LIG    1       -0.059   4.497   0.026  0.00  0.00    -0.090 A 
ATOM     23  C   LIG    1        1.148   3.822   0.012  0.00  0.00    +0.050 A 
ATOM     24  C   LIG    1        1.167   2.440   0.004  0.00  0.00    +0.040 A 
ATOM     25  C   LIG    1       -0.021   1.732   0.012  0.00  0.00    -0.030 A 
ATOM     26  C   LIG    1       -1.229   2.407   0.021  0.00  0.00    +0.030 A 
ATOM     27 CL   LIG    1        0.002  -0.004   0.002  0.00  0.00    -0.070 Cl
ATOM     28  C   LIG    1       -1.247   3.789   0.034  0.00  0.00    +0.030 A 
ENDBRANCH  21  22
BRANCH  21  29
ATOM     29  C   LIG    1       -0.350   6.517  -1.381  0.00  0.00    +0.060 C 
BRANCH  29  30
ATOM     30  C   LIG    1       -0.247   8.044  -1.398  0.00  0.00    -0.020 C 
ATOM     31  C   LIG    1       -1.514   8.833  -1.736  0.00  0.00    +0.000 C 
ATOM     32  C   LIG    1       -0.373   8.745  -2.752  0.00  0.00    +0.000 C 
ENDBRANCH  29  30
ENDBRANCH  21  29
ENDBRANCH   3  21
TORSDOF 8
