REMARK  Name = ZINCpe000000Xm1i.0
REMARK                            x       y       z     vdW  Elec       q    Type
REMARK                         _______ _______ _______ _____ _____    ______ ____
ROOT
ATOM      1  C   LIG    1       -2.369   2.743  -3.571  0.00  0.00    +0.160 A 
ATOM      2  C   LIG    1       -2.603   1.469  -3.062  0.00  0.00    -0.020 A 
ATOM      3  C   LIG    1       -1.883   1.042  -1.961  0.00  0.00    +0.200 A 
ATOM      4  C   LIG    1       -0.957   1.909  -1.397  0.00  0.00    -0.750 A 
ATOM      5  C   LIG    1       -0.776   3.160  -1.953  0.00  0.00    +0.400 A 
ATOM      6  N   LIG    1       -1.473   3.539  -3.007  0.00  0.00    -0.500 NA
ENDROOT
BRANCH   4   7
ATOM      7  S   LIG    1       -0.017   1.417   0.010  0.00  0.00    +2.720 S 
ATOM      8  O   LIG    1        1.162   2.210   0.003  0.00  0.00    -0.950 OA
ATOM      9  O   LIG    1        0.002  -0.004   0.002  0.00  0.00    -0.950 OA
BRANCH   7  10
ATOM     10  N   LIG    1       -0.875   1.865   1.354  0.00  0.00    -1.010 NA
ATOM     11  C   LIG    1       -0.760   3.154   2.053  0.00  0.00    +0.270 C 
ATOM     12  C   LIG    1       -1.728   3.111   3.254  0.00  0.00    +0.030 C 
ATOM     13  C   LIG    1       -1.910   1.589   3.497  0.00  0.00    +0.040 C 
ATOM     14  C   LIG    1       -1.875   1.037   2.050  0.00  0.00    +0.270 C 
ENDBRANCH   7  10
ENDBRANCH   4   7
BRANCH   1  15
ATOM     15  S   LIG    1       -3.273   3.301  -4.976  0.00  0.00    +0.010 S 
BRANCH  15  17
ATOM     16  C   LIG    1       -1.145   4.892  -5.623  0.00  0.00    +0.090 C 
ATOM     17  C   LIG    1       -2.624   4.974  -5.241  0.00  0.00    +0.050 C 
BRANCH  17  18
ATOM     18  C   LIG    1       -3.394   5.642  -6.350  0.00  0.00    +0.570 C 
ATOM     19  N   LIG    1       -3.384   6.985  -6.464  0.00  0.00    -0.580 N 
ATOM     20  C   LIG    1       -4.090   7.758  -7.497  0.00  0.00    +0.280 C 
ATOM     21  C   LIG    1       -3.742   9.222  -7.164  0.00  0.00    +0.290 C 
ATOM     22  N   LIG    1       -2.878   9.118  -5.979  0.00  0.00    -0.720 N 
ATOM     23  H   LIG    1       -2.478   9.866  -5.507  0.00  0.00    +0.440 HD
ATOM     24  C   LIG    1       -2.733   7.828  -5.651  0.00  0.00    +0.700 C 
ATOM     25  O   LIG    1       -2.070   7.455  -4.703  0.00  0.00    -0.540 OA
ATOM     26  O   LIG    1       -4.022   4.972  -7.141  0.00  0.00    -0.480 OA
ENDBRANCH  17  18
ENDBRANCH  15  17
ENDBRANCH   1  15
TORSDOF 5
