REMARK  Name = ZINCkj000005gC8v.0
REMARK                            x       y       z     vdW  Elec       q    Type
REMARK                         _______ _______ _______ _____ _____    ______ ____
ROOT
ATOM      1  N   LIG    1       -0.595   1.151  -3.725  0.00  0.00    -0.730 N 
ATOM      2  H   LIG    1       -1.493   1.513  -3.788  0.00  0.00    +0.390 HD
ATOM      3  C   LIG    1       -0.014   0.995  -2.519  0.00  0.00    +0.700 C 
ATOM      4  N   LIG    1       -0.681   1.341  -1.400  0.00  0.00    -0.750 N 
ATOM      5  H   LIG    1       -1.579   1.703  -1.463  0.00  0.00    +0.400 HD
ATOM      6  O   LIG    1        1.111   0.542  -2.441  0.00  0.00    -0.580 OA
ENDROOT
BRANCH   1   7
ATOM      7  C   LIG    1        0.130   0.775  -4.942  0.00  0.00    +0.250 C 
ATOM      8  C   LIG    1        1.021   1.937  -5.384  0.00  0.00    +0.020 C 
BRANCH   7   9
ATOM      9  C   LIG    1       -0.871   0.449  -6.052  0.00  0.00    +0.020 C 
BRANCH   9  10
ATOM     10  C   LIG    1       -1.675  -0.794  -5.665  0.00  0.00    -0.020 C 
ATOM     11  C   LIG    1       -2.767  -1.040  -6.708  0.00  0.00    +0.020 C 
BRANCH  10  13
ATOM     12  C   LIG    1       -1.519  -3.223  -5.100  0.00  0.00    +0.010 C 
ATOM     13  C   LIG    1       -0.743  -2.006  -5.607  0.00  0.00    +0.000 C 
ENDBRANCH  10  13
ENDBRANCH   9  10
ENDBRANCH   7   9
ENDBRANCH   1   7
BRANCH   4  14
ATOM     14  C   LIG    1       -0.050   1.172  -0.089  0.00  0.00    +0.320 C 
BRANCH  14  15
ATOM     15  C   LIG    1       -0.961   1.752   0.994  0.00  0.00    +0.140 C 
ATOM     16  C   LIG    1       -1.088   3.265   0.799  0.00  0.00    +0.280 C 
ATOM     17  N   LIG    1       -1.978   3.819   1.827  0.00  0.00    -0.380 N 
ATOM     18  C   LIG    1       -3.310   3.211   1.703  0.00  0.00    +0.280 C 
ATOM     19  C   LIG    1       -3.201   1.698   1.906  0.00  0.00    +0.210 C 
ATOM     20  C   LIG    1       -1.429   3.527   3.158  0.00  0.00    +0.320 C 
ATOM     21  H   LIG    1       -2.052   4.817   1.705  0.00  0.00    +0.430 HD
ATOM     22  N   LIG    1       -2.291   1.135   0.898  0.00  0.00    -0.540 NA
ATOM     23  C   LIG    1       -2.205  -0.326   1.025  0.00  0.00    +0.240 C 
ENDBRANCH  14  15
ENDBRANCH   4  14
TORSDOF 6
