REMARK  Name = ZINCkj000005gC8v.1
REMARK                            x       y       z     vdW  Elec       q    Type
REMARK                         _______ _______ _______ _____ _____    ______ ____
ROOT
ATOM      1  N   LIG    1       -0.596   1.148  -3.724  0.00  0.00    -0.730 N 
ATOM      2  H   LIG    1       -1.495   1.508  -3.788  0.00  0.00    +0.390 HD
ATOM      3  C   LIG    1       -0.015   0.995  -2.518  0.00  0.00    +0.700 C 
ATOM      4  N   LIG    1       -0.683   1.341  -1.400  0.00  0.00    -0.750 N 
ATOM      5  H   LIG    1       -1.582   1.700  -1.463  0.00  0.00    +0.400 HD
ATOM      6  O   LIG    1        1.111   0.544  -2.439  0.00  0.00    -0.580 OA
ENDROOT
BRANCH   1   7
ATOM      7  C   LIG    1        0.130   0.772  -4.940  0.00  0.00    +0.250 C 
ATOM      8  C   LIG    1        1.020   1.936  -5.383  0.00  0.00    +0.020 C 
BRANCH   7   9
ATOM      9  C   LIG    1       -0.870   0.444  -6.050  0.00  0.00    +0.020 C 
BRANCH   9  10
ATOM     10  C   LIG    1       -1.671  -0.801  -5.663  0.00  0.00    -0.020 C 
ATOM     11  C   LIG    1       -2.762  -1.051  -6.706  0.00  0.00    +0.020 C 
BRANCH  10  13
ATOM     12  C   LIG    1       -1.511  -3.229  -5.095  0.00  0.00    +0.010 C 
ATOM     13  C   LIG    1       -0.737  -2.011  -5.603  0.00  0.00    +0.000 C 
ENDBRANCH  10  13
ENDBRANCH   9  10
ENDBRANCH   7   9
ENDBRANCH   1   7
BRANCH   4  14
ATOM     14  C   LIG    1       -0.052   1.173  -0.088  0.00  0.00    +0.320 C 
BRANCH  14  15
ATOM     15  C   LIG    1       -0.964   1.753   0.995  0.00  0.00    +0.130 C 
ATOM     16  C   LIG    1       -1.096   3.265   0.796  0.00  0.00    +0.280 C 
ATOM     17  N   LIG    1       -1.988   3.818   1.823  0.00  0.00    -0.390 N 
ATOM     18  C   LIG    1       -3.318   3.206   1.701  0.00  0.00    +0.280 C 
ATOM     19  C   LIG    1       -3.204   1.694   1.907  0.00  0.00    +0.210 C 
ATOM     20  C   LIG    1       -2.100   5.272   1.643  0.00  0.00    +0.330 C 
ATOM     21  H   LIG    1       -1.610   3.621   2.738  0.00  0.00    +0.420 HD
ATOM     22  N   LIG    1       -2.293   1.132   0.900  0.00  0.00    -0.540 NA
ATOM     23  C   LIG    1       -2.202  -0.328   1.030  0.00  0.00    +0.240 C 
ENDBRANCH  14  15
ENDBRANCH   4  14
TORSDOF 6
