REMARK  Name = ZINCrg00001JduOk.0
REMARK                            x       y       z     vdW  Elec       q    Type
REMARK                         _______ _______ _______ _____ _____    ______ ____
ROOT
ATOM      1  C   LIG    1        8.129   4.038   7.406  0.00  0.00    +0.250 C 
ATOM      2  C   LIG    1        6.622   4.064   7.122  0.00  0.00    +0.310 C 
ATOM      3  N   LIG    1        6.079   5.348   7.588  0.00  0.00    -0.600 N 
ATOM      4  C   LIG    1        6.675   6.596   7.091  0.00  0.00    +0.220 C 
ATOM      5  C   LIG    1        8.181   6.568   7.379  0.00  0.00    +0.290 C 
ATOM      6  C   LIG    1        6.038   7.789   7.806  0.00  0.00    +0.080 C 
ATOM      7  C   LIG    1        5.051   5.378   8.460  0.00  0.00    +0.570 C 
ATOM      8  O   LIG    1        4.612   6.444   8.844  0.00  0.00    -0.500 OA
ATOM      9  N   LIG    1        8.726   5.286   6.909  0.00  0.00    -0.600 N 
ATOM     10  C   LIG    1        9.754   5.256   6.038  0.00  0.00    +0.560 C 
ATOM     11  O   LIG    1       10.184   4.190   5.642  0.00  0.00    -0.490 OA
ENDROOT
BRANCH   7  12
ATOM     12  C   LIG    1        4.458   4.112   8.950  0.00  0.00    -0.080 A 
ATOM     13  C   LIG    1        3.176   3.719   8.553  0.00  0.00    +0.010 A 
ATOM     14  C   LIG    1        2.663   2.528   9.030  0.00  0.00    +0.280 A 
ATOM     15  N   LIG    1        3.361   1.773   9.855  0.00  0.00    -0.470 NA
ATOM     16  C   LIG    1        4.570   2.109  10.258  0.00  0.00    +0.280 A 
ATOM     17  C   LIG    1        5.162   3.280   9.826  0.00  0.00    -0.010 A 
ENDBRANCH   7  12
BRANCH  10  18
ATOM     18  C   LIG    1       10.360   6.521   5.563  0.00  0.00    -0.080 A 
ATOM     19  C   LIG    1       10.530   7.606   6.428  0.00  0.00    +0.000 A 
ATOM     20  C   LIG    1       11.104   8.765   5.945  0.00  0.00    +0.270 A 
ATOM     21  N   LIG    1       11.479   8.860   4.685  0.00  0.00    -0.470 NA
ATOM     22  C   LIG    1       11.332   7.864   3.834  0.00  0.00    +0.280 A 
ATOM     23  C   LIG    1       10.772   6.667   4.235  0.00  0.00    +0.030 A 
ENDBRANCH  10  18
BRANCH   1  24
ATOM     24  C   LIG    1        8.757   2.862   6.703  0.00  0.00    +0.480 C 
ATOM     25  O   LIG    1        8.442   2.600   5.566  0.00  0.00    -0.490 OA
BRANCH  24  27
ATOM     26  C   LIG    1       10.229   0.991   6.600  0.00  0.00    +0.270 C 
ATOM     27  O   LIG    1        9.666   2.107   7.339  0.00  0.00    -0.360 OA
ENDBRANCH  24  27
ENDBRANCH   1  24
TORSDOF 4
