REMARK  Name = ZINC650000002wCZ.0
REMARK                            x       y       z     vdW  Elec       q    Type
REMARK                         _______ _______ _______ _____ _____    ______ ____
ROOT
ATOM      1  C   LIG    1        0.690  -0.478  -1.207  0.00  0.00    +0.280 C 
ENDROOT
BRANCH   1   3
ATOM      2  C   LIG    1       -0.018   1.465   0.010  0.00  0.00    +0.320 C 
ATOM      3  N   LIG    1        0.002  -0.004   0.002  0.00  0.00    -0.510 N 
ATOM      4  H   LIG    1       -0.945  -0.353   0.009  0.00  0.00    +0.430 HD
ATOM      5  H   LIG    1        0.490  -0.338   0.820  0.00  0.00    +0.440 HD
ENDBRANCH   1   3
BRANCH   1   6
ATOM      6  C   LIG    1        0.710  -2.008  -1.215  0.00  0.00    +0.160 C 
ATOM      7  C   LIG    1        1.427  -2.501  -2.474  0.00  0.00    +0.050 C 
BRANCH   6   8
ATOM      8  O   LIG    1        1.402  -2.481  -0.057  0.00  0.00    -0.580 OA
ATOM      9  H   LIG    1        1.453  -3.445   0.003  0.00  0.00    +0.410 HD
ENDBRANCH   6   8
ENDBRANCH   1   6
TORSDOF 3
