REMARK  Name = ZINCrH000004su93.0
REMARK                            x       y       z     vdW  Elec       q    Type
REMARK                         _______ _______ _______ _____ _____    ______ ____
ROOT
ATOM      1  N   LIG    1        2.387   4.540   8.146  0.00  0.00    -0.440 N 
ATOM      2  C   LIG    1        2.799   5.080   6.843  0.00  0.00    +0.190 C 
ATOM      3  C   LIG    1        1.554   5.425   6.020  0.00  0.00    +0.310 C 
ATOM      4  N   LIG    1        0.692   4.235   5.955  0.00  0.00    -0.620 N 
ATOM      5  C   LIG    1        0.343   3.559   7.214  0.00  0.00    +0.300 C 
ATOM      6  C   LIG    1        0.230   3.779   4.774  0.00  0.00    +0.530 C 
ATOM      7  O   LIG    1        0.601   4.292   3.739  0.00  0.00    -0.530 OA
ATOM      8  C   LIG    1        1.641   3.284   7.989  0.00  0.00    +0.210 C 
ENDROOT
BRANCH   1  13
ATOM      9  C   LIG    1        4.657   3.290  12.258  0.00  0.00    +0.160 C 
ATOM     10  C   LIG    1        4.569   3.807  10.845  0.00  0.00    +0.080 A 
ATOM     11  C   LIG    1        5.639   4.203  10.155  0.00  0.00    -0.240 A 
ATOM     12  S   LIG    1        5.099   4.724   8.560  0.00  0.00    +0.090 S 
ATOM     13  C   LIG    1        3.480   4.367   8.980  0.00  0.00    +0.230 A 
ATOM     14  C   LIG    1        7.062   4.199  10.649  0.00  0.00    +0.160 C 
ATOM     15  N   LIG    1        3.425   3.906  10.191  0.00  0.00    -0.490 NA
ENDBRANCH   1  13
BRANCH   6  16
ATOM     16  C   LIG    1       -0.746   2.632   4.739  0.00  0.00    +0.070 C 
ATOM     17  C   LIG    1        0.021   1.308   4.765  0.00  0.00    +0.050 C 
BRANCH  16  18
ATOM     18  C   LIG    1       -1.568   2.710   3.478  0.00  0.00    -0.170 A 
ATOM     19  C   LIG    1       -1.105   2.674   2.219  0.00  0.00    +0.270 A 
ATOM     20  N   LIG    1       -2.145   2.771   1.335  0.00  0.00    -0.490 N 
ATOM     21  C   LIG    1       -3.333   2.881   2.022  0.00  0.00    +0.090 A 
ATOM     22  C   LIG    1       -4.660   3.008   1.626  0.00  0.00    -0.010 A 
ATOM     23  C   LIG    1       -5.653   3.099   2.577  0.00  0.00    +0.020 A 
ATOM     24  C   LIG    1       -5.343   3.063   3.929  0.00  0.00    -0.020 A 
ATOM     25  C   LIG    1       -4.047   2.929   4.341  0.00  0.00    +0.040 A 
ATOM     26  C   LIG    1       -2.014   2.764  -0.124  0.00  0.00    +0.310 C 
ATOM     27  C   LIG    1       -3.025   2.841   3.394  0.00  0.00    -0.100 A 
ENDBRANCH  16  18
ENDBRANCH   6  16
TORSDOF 3
