REMARK  Name = ZINCkj000005faiT.1
REMARK                            x       y       z     vdW  Elec       q    Type
REMARK                         _______ _______ _______ _____ _____    ______ ____
ROOT
ATOM      1  N   LIG    1        2.489   5.937   0.010  0.00  0.00    -1.110 NA
ATOM      2  H   LIG    1        2.744   6.481  -0.751  0.00  0.00    +0.430 HD
ENDROOT
BRANCH   1   3
ATOM      3  C   LIG    1        1.841   6.555   1.170  0.00  0.00    +0.260 C 
ATOM      4  C   LIG    1        0.320   6.700   0.933  0.00  0.00    +0.050 C 
ATOM      5  C   LIG    1       -0.050   8.072   1.527  0.00  0.00    +0.270 C 
ATOM      6  N   LIG    1        1.190   8.649   2.092  0.00  0.00    -0.390 N 
ATOM      7  H   LIG    1        1.261   8.426   3.074  0.00  0.00    +0.430 HD
ATOM      8  C   LIG    1        2.307   8.023   1.340  0.00  0.00    +0.280 C 
BRANCH   6   9
ATOM      9  C   LIG    1        1.204  10.105   1.901  0.00  0.00    +0.160 C 
ATOM     10  C   LIG    1        2.481  10.707   2.523  0.00  0.00    +0.050 C 
ATOM     11  C   LIG    1        2.012  12.057   3.122  0.00  0.00    +0.040 C 
ATOM     12  C   LIG    1        0.609  11.714   3.679  0.00  0.00    +0.040 C 
ATOM     13  C   LIG    1        0.013  10.745   2.636  0.00  0.00    +0.040 C 
ENDBRANCH   6   9
ENDBRANCH   1   3
BRANCH   1  14
ATOM     14  S   LIG    1        2.786   4.307  -0.001  0.00  0.00    +2.610 S 
ATOM     15  O   LIG    1        3.432   4.078  -1.246  0.00  0.00    -0.930 OA
ATOM     16  O   LIG    1        3.456   4.065   1.228  0.00  0.00    -0.940 OA
BRANCH  14  17
ATOM     17  C   LIG    1        1.139   3.547   0.010  0.00  0.00    -0.340 C 
BRANCH  17  18
ATOM     18  C   LIG    1        1.280   2.024   0.001  0.00  0.00    +0.210 C 
BRANCH  18  19
ATOM     19  O   LIG    1       -0.017   1.425   0.010  0.00  0.00    -0.370 OA
BRANCH  19  21
ATOM     20  C   LIG    1       -1.233  -0.535   0.732  0.00  0.00    +0.060 C 
ATOM     21  C   LIG    1        0.002  -0.004   0.002  0.00  0.00    +0.150 C 
ATOM     22  C   LIG    1       -0.005  -0.506  -1.443  0.00  0.00    +0.020 C 
ENDBRANCH  19  21
ENDBRANCH  18  19
ENDBRANCH  17  18
ENDBRANCH  14  17
ENDBRANCH   1  14
TORSDOF 7
