REMARK  Name = ZINCkj000005faiT.0
REMARK                            x       y       z     vdW  Elec       q    Type
REMARK                         _______ _______ _______ _____ _____    ______ ____
ROOT
ATOM      1  N   LIG    1        0.802  -2.240  -1.373  0.00  0.00    -1.120 NA
ATOM      2  H   LIG    1        1.625  -2.744  -1.273  0.00  0.00    +0.420 HD
ENDROOT
BRANCH   1   3
ATOM      3  C   LIG    1       -0.484  -2.940  -1.422  0.00  0.00    +0.270 C 
ATOM      4  C   LIG    1       -0.988  -3.234   0.006  0.00  0.00    +0.060 C 
ATOM      5  C   LIG    1       -1.082  -4.772   0.090  0.00  0.00    +0.280 C 
ATOM      6  N   LIG    1       -0.132  -5.262  -0.942  0.00  0.00    -0.400 N 
ATOM      7  H   LIG    1        0.816  -5.218  -0.598  0.00  0.00    +0.430 HD
ATOM      8  C   LIG    1       -0.316  -4.326  -2.080  0.00  0.00    +0.280 C 
BRANCH   6   9
ATOM      9  C   LIG    1       -0.472  -6.634  -1.344  0.00  0.00    +0.170 C 
ATOM     10  C   LIG    1       -0.319  -7.590  -0.143  0.00  0.00    +0.050 C 
ATOM     11  C   LIG    1        0.246  -8.892  -0.765  0.00  0.00    +0.040 C 
ATOM     12  C   LIG    1        1.222  -8.361  -1.844  0.00  0.00    +0.040 C 
ATOM     13  C   LIG    1        0.506  -7.124  -2.425  0.00  0.00    +0.040 C 
ENDBRANCH   6   9
ENDBRANCH   1   3
BRANCH   1  14
ATOM     14  S   LIG    1        0.851  -0.589  -1.490  0.00  0.00    +2.610 S 
ATOM     15  O   LIG    1        2.236  -0.275  -1.432  0.00  0.00    -0.930 OA
ATOM     16  O   LIG    1        0.082  -0.297  -2.649  0.00  0.00    -0.940 OA
BRANCH  14  17
ATOM     17  C   LIG    1        0.002  -0.004   0.002  0.00  0.00    -0.350 C 
BRANCH  17  18
ATOM     18  C   LIG    1       -0.019   1.526   0.010  0.00  0.00    +0.210 C 
BRANCH  18  19
ATOM     19  O   LIG    1       -0.688   1.987   1.186  0.00  0.00    -0.370 OA
BRANCH  19  21
ATOM     20  C   LIG    1       -2.045   3.905   0.621  0.00  0.00    +0.020 C 
ATOM     21  C   LIG    1       -0.762   3.410   1.292  0.00  0.00    +0.150 C 
ATOM     22  C   LIG    1       -0.772   3.811   2.768  0.00  0.00    +0.060 C 
ENDBRANCH  19  21
ENDBRANCH  18  19
ENDBRANCH  17  18
ENDBRANCH  14  17
ENDBRANCH   1  14
TORSDOF 7
