REMARK  Name = ZINCrH000004qK94.0
REMARK                            x       y       z     vdW  Elec       q    Type
REMARK                         _______ _______ _______ _____ _____    ______ ____
ROOT
ATOM      1  N   LIG    1        7.111  -1.430   2.048  0.00  0.00    -0.570 N 
ATOM      2  C   LIG    1        6.134  -2.467   1.741  0.00  0.00    +0.260 C 
ATOM      3  C   LIG    1        5.406  -2.148   0.435  0.00  0.00    +0.030 C 
ATOM      4  C   LIG    1        6.449  -1.843  -0.644  0.00  0.00    +0.050 C 
ATOM      5  C   LIG    1        7.152  -0.532  -0.284  0.00  0.00    +0.260 C 
ATOM      6  C   LIG    1        7.593  -0.569   1.151  0.00  0.00    +0.500 C 
ATOM      7  O   LIG    1        8.434   0.227   1.514  0.00  0.00    -0.510 OA
ENDROOT
BRANCH   1  11
ATOM      8  C   LIG    1       10.342  -2.745   5.513  0.00  0.00    +0.100 C 
ATOM      9  C   LIG    1        9.135  -1.957   5.072  0.00  0.00    -0.050 A 
ATOM     10  C   LIG    1        8.680  -2.061   3.773  0.00  0.00    +0.030 A 
ATOM     11  C   LIG    1        7.571  -1.331   3.366  0.00  0.00    +0.160 A 
ATOM     12  C   LIG    1        6.915  -0.507   4.271  0.00  0.00    +0.020 A 
ATOM     13  C   LIG    1        7.371  -0.411   5.572  0.00  0.00    +0.060 A 
ATOM     14  C   LIG    1        8.480  -1.135   5.972  0.00  0.00    -0.090 A 
ATOM     15 BR   LIG    1        9.101  -1.001   7.753  0.00  0.00    -0.040 Br
ENDBRANCH   1  11
BRANCH   5  16
ATOM     16  N   LIG    1        6.227   0.587  -0.479  0.00  0.00    -0.700 N 
ATOM     17  H   LIG    1        5.269   0.439  -0.432  0.00  0.00    +0.410 HD
ATOM     18  C   LIG    1        6.706   1.823  -0.725  0.00  0.00    +0.600 C 
ATOM     19  O   LIG    1        7.907   2.009  -0.785  0.00  0.00    -0.510 OA
BRANCH  18  20
ATOM     20  C   LIG    1        5.776   2.946  -0.922  0.00  0.00    +0.050 A 
ATOM     21  C   LIG    1        6.201   4.204  -1.171  0.00  0.00    -0.010 A 
ATOM     22  S   LIG    1        4.787   5.240  -1.348  0.00  0.00    +0.090 S 
ATOM     23  C   LIG    1        3.733   3.860  -1.056  0.00  0.00    +0.350 A 
ATOM     24  N   LIG    1        4.449   2.798  -0.867  0.00  0.00    -0.530 NA
BRANCH  23  25
ATOM     25  N   LIG    1        2.349   3.903  -1.037  0.00  0.00    -0.660 N 
ATOM     26  H   LIG    1        1.841   3.093  -0.873  0.00  0.00    +0.420 HD
BRANCH  25  27
ATOM     27  C   LIG    1        1.653   5.170  -1.271  0.00  0.00    +0.210 C 
ATOM     28  C   LIG    1        0.469   5.504  -0.362  0.00  0.00    +0.020 C 
ATOM     29  C   LIG    1        0.225   5.101  -1.818  0.00  0.00    +0.030 C 
ENDBRANCH  25  27
ENDBRANCH  23  25
ENDBRANCH  18  20
ENDBRANCH   5  16
TORSDOF 5
