REMARK  Name = ZINCbw0000000HeI.0
REMARK                            x       y       z     vdW  Elec       q    Type
REMARK                         _______ _______ _______ _____ _____    ______ ____
ROOT
ATOM      1  C   LIG    1       -0.205   1.221   2.475  0.00  0.00    +0.220 A 
ATOM      2  C   LIG    1        0.933   0.432   2.590  0.00  0.00    -0.080 A 
ATOM      3  C   LIG    1        1.421   0.104   3.839  0.00  0.00    +0.050 A 
ATOM      4  C   LIG    1        0.773   0.550   4.976  0.00  0.00    -0.060 A 
ATOM      5  C   LIG    1       -0.363   1.332   4.866  0.00  0.00    -0.030 A 
ATOM      6  C   LIG    1       -0.854   1.668   3.620  0.00  0.00    -0.080 A 
ENDROOT
BRANCH   1   7
ATOM      7  N   LIG    1       -0.698   1.558   1.213  0.00  0.00    -0.750 N 
ATOM      8  H   LIG    1       -1.495   2.106   1.135  0.00  0.00    +0.400 HD
BRANCH   7  10
ATOM      9  C   LIG    1       -0.753   1.593  -1.232  0.00  0.00    +0.020 C 
ATOM     10  C   LIG    1       -0.013   1.086   0.008  0.00  0.00    +0.240 C 
ENDBRANCH   7  10
ENDBRANCH   1   7
BRANCH   5  11
ATOM     11  C   LIG    1       -1.066   1.816   6.107  0.00  0.00    +0.050 C 
ATOM     12  C   LIG    1       -2.122   0.792   6.529  0.00  0.00    +0.020 C 
ENDBRANCH   5  11
TORSDOF 3
