REMARK  Name = ZINCrH000004sVOB.0
REMARK                            x       y       z     vdW  Elec       q    Type
REMARK                         _______ _______ _______ _____ _____    ______ ____
ROOT
ATOM      1  N   LIG    1        1.574   5.831  -5.354  0.00  0.00    -0.730 N 
ATOM      2  H   LIG    1        1.247   4.953  -5.101  0.00  0.00    +0.420 HD
ENDROOT
BRANCH   1   8
ATOM      3 CL   LIG    1        4.082   8.973  -8.521  0.00  0.00    -0.060 Cl
ATOM      4  C   LIG    1        3.497   7.402  -8.069  0.00  0.00    +0.020 A 
ATOM      5  C   LIG    1        3.756   6.310  -8.877  0.00  0.00    -0.020 A 
ATOM      6  C   LIG    1        3.292   5.056  -8.522  0.00  0.00    +0.040 A 
ATOM      7  C   LIG    1        2.571   4.890  -7.350  0.00  0.00    +0.020 A 
ATOM      8  C   LIG    1        2.306   5.992  -6.537  0.00  0.00    +0.260 A 
ATOM      9  C   LIG    1        2.773   7.245  -6.899  0.00  0.00    -0.050 A 
BRANCH   7  10
ATOM     10  N   LIG    1        2.106   3.620  -6.986  0.00  0.00    -0.500 N 
ATOM     11  C   LIG    1        3.226   2.701  -6.734  0.00  0.00    +0.160 C 
ATOM     12  C   LIG    1        2.675   1.346  -6.282  0.00  0.00    +0.220 C 
ATOM     13  O   LIG    1        1.778   0.846  -7.277  0.00  0.00    -0.380 OA
ATOM     14  C   LIG    1        0.675   1.716  -7.547  0.00  0.00    +0.220 C 
ATOM     15  C   LIG    1        1.206   3.074  -8.012  0.00  0.00    +0.160 C 
ENDBRANCH   7  10
ENDBRANCH   1   8
BRANCH   1  16
ATOM     16  C   LIG    1        1.301   6.988  -4.498  0.00  0.00    +0.430 C 
BRANCH  16  17
ATOM     17  C   LIG    1        0.503   6.549  -3.298  0.00  0.00    +0.160 A 
ATOM     18  N   LIG    1        0.982   6.145  -2.146  0.00  0.00    -0.450 NA
ATOM     19  C   LIG    1       -0.091   5.856  -1.389  0.00  0.00    +0.180 A 
ATOM     20  N   LIG    1       -1.149   6.102  -2.102  0.00  0.00    -0.370 NA
ATOM     21  O   LIG    1       -0.829   6.501  -3.203  0.00  0.00    +0.090 OA
BRANCH  19  22
ATOM     22  C   LIG    1       -0.070   5.347   0.030  0.00  0.00    +0.220 C 
BRANCH  22  23
ATOM     23  C   LIG    1       -0.050   3.840   0.022  0.00  0.00    -0.090 A 
ATOM     24  C   LIG    1        1.156   3.165   0.008  0.00  0.00    +0.030 A 
ATOM     25  C   LIG    1        1.175   1.783   0.000  0.00  0.00    +0.000 A 
ATOM     26  C   LIG    1       -0.013   1.076   0.008  0.00  0.00    +0.010 A 
ATOM     27  C   LIG    1       -1.219   1.751   0.017  0.00  0.00    +0.000 A 
ATOM     28  C   LIG    1       -1.238   3.133   0.030  0.00  0.00    +0.010 A 
ENDBRANCH  22  23
ENDBRANCH  19  22
ENDBRANCH  16  17
ENDBRANCH   1  16
TORSDOF 6
