REMARK  Name = ZINCrH000004tcGl.0
REMARK                            x       y       z     vdW  Elec       q    Type
REMARK                         _______ _______ _______ _____ _____    ______ ____
ROOT
ATOM      1  N   LIG    1        3.534   3.595   0.933  0.00  0.00    -0.490 N 
ATOM      2  C   LIG    1        2.836   3.939  -0.314  0.00  0.00    +0.200 C 
ATOM      3  C   LIG    1        1.384   3.462  -0.231  0.00  0.00    +0.200 C 
ATOM      4  N   LIG    1        1.360   2.011  -0.000  0.00  0.00    -0.540 NA
ATOM      5  C   LIG    1        2.058   1.667   1.247  0.00  0.00    +0.190 C 
ATOM      6  C   LIG    1        3.510   2.144   1.164  0.00  0.00    +0.210 C 
ENDROOT
BRANCH   1  10
ATOM      7  C   LIG    1        7.440   5.035   0.903  0.00  0.00    -0.210 A 
ATOM      8  C   LIG    1        6.971   4.337   2.001  0.00  0.00    +0.100 A 
ATOM      9  C   LIG    1        5.676   3.858   2.014  0.00  0.00    +0.000 A 
ATOM     10  C   LIG    1        4.844   4.079   0.923  0.00  0.00    +0.150 A 
ATOM     11  C   LIG    1        5.321   4.776  -0.180  0.00  0.00    -0.030 A 
ATOM     12  C   LIG    1        6.615   5.256  -0.184  0.00  0.00    +0.100 A 
BRANCH   7  14
ATOM     13  F   LIG    1        9.704   4.589   0.347  0.00  0.00    -0.180 F 
ATOM     14  C   LIG    1        8.854   5.557   0.892  0.00  0.00    +0.510 C 
ATOM     15  F   LIG    1        9.255   5.846   2.201  0.00  0.00    -0.180 F 
ATOM     16  F   LIG    1        8.916   6.721   0.119  0.00  0.00    -0.180 F 
ENDBRANCH   7  14
ENDBRANCH   1  10
BRANCH   4  17
ATOM     17  C   LIG    1       -0.018   1.503   0.010  0.00  0.00    +0.240 C 
BRANCH  17  18
ATOM     18  C   LIG    1        0.002  -0.004   0.002  0.00  0.00    -0.080 A 
ATOM     19  C   LIG    1        0.023  -0.700   1.196  0.00  0.00    +0.020 A 
ATOM     20  C   LIG    1        0.043  -2.083   1.192  0.00  0.00    +0.030 A 
ATOM     21  C   LIG    1        0.042  -2.774  -0.009  0.00  0.00    +0.050 A 
ATOM     22  O   LIG    1        0.069  -4.135   0.003  0.00  0.00    -0.310 OA
ATOM     23  C   LIG    1       -0.306  -4.797  -1.210  0.00  0.00    +0.220 C 
ATOM     24  C   LIG    1        0.413  -4.108  -2.377  0.00  0.00    +0.220 C 
ATOM     25  O   LIG    1        0.013  -2.733  -2.401  0.00  0.00    -0.310 OA
ATOM     26  C   LIG    1        0.019  -2.074  -1.210  0.00  0.00    +0.050 A 
ATOM     27  C   LIG    1       -0.006  -0.688  -1.200  0.00  0.00    +0.050 A 
ENDBRANCH  17  18
ENDBRANCH   4  17
TORSDOF 4
