REMARK  Name = ZINCvU0000000Bbk.0
REMARK                            x       y       z     vdW  Elec       q    Type
REMARK                         _______ _______ _______ _____ _____    ______ ____
ROOT
ATOM      1  C   LIG    1        2.643  -2.430  -0.037  0.00  0.00    +0.520 C 
ATOM      2  N   LIG    1        1.384  -1.949  -0.022  0.00  0.00    -0.620 N 
ATOM      3  H   LIG    1        0.631  -2.561  -0.018  0.00  0.00    +0.430 HD
ATOM      4  O   LIG    1        3.585  -1.666  -0.041  0.00  0.00    -0.470 OA
ENDROOT
BRANCH   2   5
ATOM      5  C   LIG    1        1.165  -0.577  -0.012  0.00  0.00    +0.280 A 
ATOM      6  N   LIG    1        0.002  -0.004   0.002  0.00  0.00    -0.500 NA
ATOM      7  C   LIG    1       -0.016   1.321   0.009  0.00  0.00    +0.120 A 
ATOM      8  C   LIG    1        1.191   1.914   0.001  0.00  0.00    -0.100 A 
ATOM      9  S   LIG    1        2.424   0.655  -0.018  0.00  0.00    +0.220 S 
BRANCH   7  10
ATOM     10  C   LIG    1       -1.280   2.097   0.020  0.00  0.00    -0.000 A 
ATOM     11  C   LIG    1       -1.245   3.490   0.032  0.00  0.00    +0.060 A 
ATOM     12  C   LIG    1       -2.424   4.209   0.036  0.00  0.00    +0.030 A 
ATOM     13  C   LIG    1       -3.640   3.549   0.038  0.00  0.00    +0.070 A 
ATOM     14  C   LIG    1       -3.681   2.161   0.032  0.00  0.00    +0.070 A 
ATOM     15  F   LIG    1       -4.871   1.521   0.035  0.00  0.00    -0.130 F 
ATOM     16  F   LIG    1       -4.791   4.256   0.047  0.00  0.00    -0.130 F 
ATOM     17  C   LIG    1       -2.507   1.435   0.022  0.00  0.00    +0.060 A 
ENDBRANCH   7  10
ENDBRANCH   2   5
BRANCH   1  19
ATOM     18  C   LIG    1        2.347  -4.511  -1.353  0.00  0.00    +0.090 C 
ATOM     19  C   LIG    1        2.881  -3.918  -0.047  0.00  0.00    +0.210 C 
BRANCH  19  20
ATOM     20  O   LIG    1        4.305  -4.182   0.057  0.00  0.00    -0.320 OA
BRANCH  20  21
ATOM     21  C   LIG    1        4.673  -5.326   0.665  0.00  0.00    +0.520 C 
ATOM     22  O   LIG    1        3.826  -6.084   1.096  0.00  0.00    -0.490 OA
BRANCH  21  23
ATOM     23  C   LIG    1        6.104  -5.660   0.808  0.00  0.00    -0.130 A 
ATOM     24  C   LIG    1        7.080  -4.795   0.308  0.00  0.00    +0.120 A 
ATOM     25  C   LIG    1        8.415  -5.111   0.449  0.00  0.00    +0.020 A 
ATOM     26  C   LIG    1        8.789  -6.287   1.074  0.00  0.00    +0.120 A 
ATOM     27  C   LIG    1        7.827  -7.152   1.567  0.00  0.00    -0.190 A 
ATOM     28  C   LIG    1        6.489  -6.846   1.437  0.00  0.00    +0.150 A 
BRANCH  27  29
ATOM     29  C   LIG    1        8.244  -8.431   2.245  0.00  0.00    +0.510 C 
ATOM     30  F   LIG    1        7.291  -8.780   3.208  0.00  0.00    -0.170 F 
ATOM     31  F   LIG    1        9.486  -8.249   2.863  0.00  0.00    -0.170 F 
ATOM     32  F   LIG    1        8.342  -9.453   1.295  0.00  0.00    -0.170 F 
ENDBRANCH  27  29
ENDBRANCH  21  23
ENDBRANCH  20  21
ENDBRANCH  19  20
ENDBRANCH   1  19
TORSDOF 7
