REMARK  Name = ZINCrH00000No51k.0
REMARK                            x       y       z     vdW  Elec       q    Type
REMARK                         _______ _______ _______ _____ _____    ______ ____
ROOT
ATOM      1  C   LIG    1        4.274   5.599  -0.299  0.00  0.00    +0.350 C 
ATOM      2  N   LIG    1        4.696   4.366  -0.229  0.00  0.00    -0.470 NA
ATOM      3  C   LIG    1        3.623   3.533  -0.119  0.00  0.00    -0.080 C 
ATOM      4  C   LIG    1        2.438   4.416  -0.118  0.00  0.00    +0.480 C 
ATOM      5  O   LIG    1        1.271   4.086  -0.034  0.00  0.00    -0.410 OA
ATOM      6  C   LIG    1        3.639   2.159  -0.022  0.00  0.00    +0.230 C 
ATOM      7  O   LIG    1        2.930   5.668  -0.233  0.00  0.00    -0.290 OA
ENDROOT
BRANCH   1  11
ATOM      8  C   LIG    1        6.829   8.975  -0.670  0.00  0.00    +0.140 A 
ATOM      9  C   LIG    1        7.370   7.698  -0.610  0.00  0.00    -0.030 A 
ATOM     10  C   LIG    1        6.545   6.601  -0.483  0.00  0.00    +0.110 A 
ATOM     11  C   LIG    1        5.159   6.772  -0.428  0.00  0.00    -0.050 A 
ATOM     12  C   LIG    1        4.614   8.058  -0.489  0.00  0.00    +0.020 A 
ATOM     13  C   LIG    1        5.447   9.153  -0.609  0.00  0.00    +0.100 A 
BRANCH   8  14
ATOM     14  O   LIG    1        7.647  10.053  -0.788  0.00  0.00    -0.300 OA
BRANCH  14  16
ATOM     15  C   LIG    1        9.805  11.123  -0.977  0.00  0.00    +0.070 C 
ATOM     16  C   LIG    1        9.052   9.798  -0.845  0.00  0.00    +0.190 C 
ENDBRANCH  14  16
ENDBRANCH   8  14
BRANCH  13  17
ATOM     17  O   LIG    1        4.920  10.405  -0.669  0.00  0.00    -0.300 OA
BRANCH  17  18
ATOM     18  C   LIG    1        3.497  10.514  -0.603  0.00  0.00    +0.170 C 
ATOM     19  C   LIG    1        3.094  11.988  -0.685  0.00  0.00    +0.070 C 
ENDBRANCH  17  18
ENDBRANCH  13  17
ENDBRANCH   1  11
BRANCH   6  20
ATOM     20  C   LIG    1        2.384   1.404  -0.087  0.00  0.00    -0.080 A 
ATOM     21  C   LIG    1        2.201   0.274   0.723  0.00  0.00    +0.060 A 
ATOM     22  C   LIG    1        1.031  -0.426   0.662  0.00  0.00    +0.060 A 
ATOM     23  C   LIG    1        0.015  -0.018  -0.208  0.00  0.00    -0.000 A 
ATOM     24  C   LIG    1        0.195   1.109  -1.017  0.00  0.00    +0.070 A 
ATOM     25  C   LIG    1        1.364   1.812  -0.959  0.00  0.00    +0.070 A 
BRANCH  23  26
ATOM     26  C   LIG    1       -1.211  -0.755  -0.271  0.00  0.00    +0.250 C 
ATOM     27  N   LIG    1       -2.184  -1.339  -0.321  0.00  0.00    -0.400 NA
ENDBRANCH  23  26
ENDBRANCH   6  20
TORSDOF 7
