REMARK  Name = ZINCrH000004sOZ5.0
REMARK                            x       y       z     vdW  Elec       q    Type
REMARK                         _______ _______ _______ _____ _____    ______ ____
ROOT
ATOM      1  N   LIG    1        1.715   3.292  -0.880  0.00  0.00    -0.650 N 
ATOM      2  H   LIG    1        1.466   3.816  -0.103  0.00  0.00    +0.410 HD
ATOM      3  C   LIG    1        1.259   2.031  -1.017  0.00  0.00    +0.700 C 
ATOM      4  N   LIG    1        0.361   1.540  -0.140  0.00  0.00    -0.680 N 
ATOM      5  H   LIG    1        0.001   2.111   0.556  0.00  0.00    +0.410 HD
ATOM      6  O   LIG    1        1.658   1.336  -1.932  0.00  0.00    -0.540 OA
ENDROOT
BRANCH   1  12
ATOM      7  C   LIG    1        4.091   1.801  -2.399  0.00  0.00    +0.180 C 
ATOM      8  C   LIG    1        3.617   3.222  -2.563  0.00  0.00    +0.040 A 
ATOM      9  N   LIG    1        4.103   4.118  -3.372  0.00  0.00    -0.360 NA
ATOM     10  O   LIG    1        3.514   5.170  -3.280  0.00  0.00    +0.110 OA
ATOM     11  C   LIG    1        2.526   5.107  -2.373  0.00  0.00    -0.020 A 
ATOM     12  C   LIG    1        2.553   3.848  -1.865  0.00  0.00    +0.050 A 
BRANCH  11  13
ATOM     13  C   LIG    1        1.578   6.215  -1.993  0.00  0.00    +0.040 C 
ATOM     14  C   LIG    1        1.603   7.489  -2.840  0.00  0.00    +0.060 C 
ATOM     15  C   LIG    1        2.184   7.500  -1.424  0.00  0.00    +0.050 C 
ENDBRANCH  11  13
ENDBRANCH   1  12
BRANCH   4  16
ATOM     16  C   LIG    1       -0.049   0.205  -0.231  0.00  0.00    +0.200 A 
ATOM     17  C   LIG    1       -1.350  -0.148   0.103  0.00  0.00    -0.050 A 
ATOM     18  C   LIG    1       -1.755  -1.465   0.009  0.00  0.00    +0.070 A 
ATOM     19  C   LIG    1       -0.865  -2.437  -0.407  0.00  0.00    -0.090 A 
ATOM     20  C   LIG    1        0.438  -2.091  -0.738  0.00  0.00    +0.150 A 
ATOM     21  C   LIG    1        0.847  -0.769  -0.649  0.00  0.00    +0.000 A 
BRANCH  20  22
ATOM     22  O   LIG    1        1.312  -3.047  -1.147  0.00  0.00    -0.310 OA
BRANCH  22  23
ATOM     23  C   LIG    1        0.823  -4.388  -1.215  0.00  0.00    +0.200 C 
BRANCH  23  24
ATOM     24  C   LIG    1        1.941  -5.316  -1.692  0.00  0.00    +0.350 C 
BRANCH  24  25
ATOM     25  N   LIG    1        1.439  -6.691  -1.761  0.00  0.00    -0.380 N 
ATOM     26  C   LIG    1        1.478  -7.496  -2.843  0.00  0.00    +0.240 A 
ATOM     27  C   LIG    1        0.917  -8.678  -2.497  0.00  0.00    -0.120 A 
ATOM     28  C   LIG    1        0.522  -8.592  -1.158  0.00  0.00    +0.240 A 
ATOM     29  N   LIG    1        0.840  -7.402  -0.714  0.00  0.00    -0.300 NA
ENDBRANCH  24  25
ENDBRANCH  23  24
ENDBRANCH  22  23
ENDBRANCH  20  22
ENDBRANCH   4  16
TORSDOF 7
