REMARK  Name = ZINCnE00000rhmwR.0
REMARK                            x       y       z     vdW  Elec       q    Type
REMARK                         _______ _______ _______ _____ _____    ______ ____
ROOT
ATOM      1  C   LIG    1       -0.379   5.548   1.109  0.00  0.00    +0.510 C 
ATOM      2  N   LIG    1       -0.251   4.209   1.022  0.00  0.00    -0.670 N 
ATOM      3  H   LIG    1        0.121   3.809   0.221  0.00  0.00    +0.410 HD
ATOM      4  O   LIG    1       -0.844   6.049   2.111  0.00  0.00    -0.460 OA
ENDROOT
BRANCH   2   5
ATOM      5  C   LIG    1       -0.652   3.400   2.083  0.00  0.00    +0.430 A 
ATOM      6  N   LIG    1       -1.165   3.952   3.172  0.00  0.00    -0.470 NA
ATOM      7  C   LIG    1       -1.552   3.223   4.201  0.00  0.00    +0.340 A 
ATOM      8  C   LIG    1       -1.441   1.847   4.176  0.00  0.00    -0.070 A 
ATOM      9  C   LIG    1       -0.914   1.228   3.050  0.00  0.00    +0.150 A 
ATOM     10  C   LIG    1       -0.517   2.020   1.987  0.00  0.00    -0.290 A 
BRANCH  10  11
ATOM     11  C   LIG    1        0.060   1.394   0.743  0.00  0.00    +0.510 C 
ATOM     12  F   LIG    1       -0.738   1.723  -0.358  0.00  0.00    -0.170 F 
ATOM     13  F   LIG    1        1.358   1.875   0.539  0.00  0.00    -0.180 F 
ATOM     14  F   LIG    1        0.097   0.004   0.894  0.00  0.00    -0.170 F 
ENDBRANCH  10  11
ENDBRANCH   2   5
BRANCH   1  15
ATOM     15  C   LIG    1        0.055   6.423  -0.038  0.00  0.00    +0.080 C 
BRANCH  15  16
ATOM     16  C   LIG    1       -0.330   7.875   0.253  0.00  0.00    -0.010 C 
ATOM     17  C   LIG    1        0.187   8.795  -0.872  0.00  0.00    +0.040 C 
ATOM     18  C   LIG    1        0.624  10.086  -0.136  0.00  0.00    -0.010 C 
ATOM     19  C   LIG    1        1.247   9.540   1.173  0.00  0.00    -0.020 C 
ATOM     20  C   LIG    1        0.344   8.348   1.553  0.00  0.00    +0.000 C 
BRANCH  16  21
ATOM     21  C   LIG    1       -1.850   7.999   0.375  0.00  0.00    -0.060 C 
BRANCH  21  23
ATOM     22  O   LIG    1       -1.802   7.298  -1.883  0.00  0.00    -0.690 OA
ATOM     23  C   LIG    1       -2.495   7.567  -0.917  0.00  0.00    +0.490 C 
ATOM     24  O   LIG    1       -3.709   7.488  -0.996  0.00  0.00    -0.710 OA
ENDBRANCH  21  23
ENDBRANCH  16  21
ENDBRANCH  15  16
ENDBRANCH   1  15
TORSDOF 6
