REMARK  Name = ZINCrD00000F5Ltt.0
REMARK                            x       y       z     vdW  Elec       q    Type
REMARK                         _______ _______ _______ _____ _____    ______ ____
ROOT
ATOM      1  C   LIG    1       -0.314   1.626   0.899  0.00  0.00    +0.260 C 
ATOM      2  C   LIG    1        0.595   1.100   2.015  0.00  0.00    +0.130 C 
ATOM      3  S   LIG    1        0.884   2.545   3.083  0.00  0.00    -0.110 S 
ATOM      4  C   LIG    1       -0.090   3.677   2.139  0.00  0.00    +0.400 C 
ATOM      5  N   LIG    1       -0.273   4.945   2.426  0.00  0.00    -0.460 NA
ATOM      6  N   LIG    1       -0.618   3.029   1.065  0.00  0.00    -0.530 N 
ATOM      7  C   LIG    1       -1.403   3.678   0.183  0.00  0.00    +0.610 C 
ATOM      8  O   LIG    1       -1.549   4.881   0.272  0.00  0.00    -0.420 OA
ENDROOT
BRANCH   7   9
ATOM      9  C   LIG    1       -2.087   2.926  -0.893  0.00  0.00    +0.240 A 
ATOM     10  N   LIG    1       -2.758   3.466  -1.894  0.00  0.00    -0.260 NA
ATOM     11  N   LIG    1       -3.241   2.409  -2.677  0.00  0.00    -0.330 N 
ATOM     12  C   LIG    1       -3.986   2.357  -3.816  0.00  0.00    +0.210 A 
ATOM     13  C   LIG    1       -4.298   1.147  -4.344  0.00  0.00    -0.040 A 
ATOM     14  C   LIG    1       -3.847  -0.016  -3.705  0.00  0.00    +0.240 A 
ATOM     15  N   LIG    1       -3.130   0.064  -2.609  0.00  0.00    -0.460 NA
ATOM     16  C   LIG    1       -4.186  -1.367  -4.282  0.00  0.00    +0.170 C 
ATOM     17  C   LIG    1       -4.457   3.626  -4.479  0.00  0.00    +0.160 C 
ATOM     18  C   LIG    1       -2.817   1.254  -2.078  0.00  0.00    +0.450 A 
ATOM     19  N   LIG    1       -2.118   1.596  -1.006  0.00  0.00    -0.490 NA
ENDBRANCH   7   9
BRANCH   5  20
ATOM     20  C   LIG    1        0.316   5.486   3.538  0.00  0.00    +0.100 A 
ATOM     21  C   LIG    1        0.273   4.804   4.756  0.00  0.00    -0.020 A 
ATOM     22  C   LIG    1        0.873   5.353   5.871  0.00  0.00    +0.030 A 
ATOM     23  C   LIG    1        1.505   6.581   5.787  0.00  0.00    -0.010 A 
ATOM     24  C   LIG    1        1.546   7.264   4.585  0.00  0.00    +0.020 A 
ATOM     25  C   LIG    1        0.955   6.725   3.461  0.00  0.00    +0.030 A 
ENDBRANCH   5  20
BRANCH   1  27
ATOM     26  C   LIG    1        0.617  -0.069  -0.683  0.00  0.00    +0.050 C 
ATOM     27  C   LIG    1        0.385   1.425  -0.448  0.00  0.00    +0.010 C 
ENDBRANCH   1  27
TORSDOF 3
