REMARK  Name = ZINCrg00000IZ9ib.0
REMARK                            x       y       z     vdW  Elec       q    Type
REMARK                         _______ _______ _______ _____ _____    ______ ____
ROOT
ATOM      1  C   LIG    1        5.120   2.018  -3.441  0.00  0.00    +0.520 C 
ATOM      2  N   LIG    1        5.045   3.030  -4.328  0.00  0.00    -0.730 N 
ATOM      3  H   LIG    1        4.268   3.610  -4.339  0.00  0.00    +0.400 HD
ATOM      4  O   LIG    1        6.092   1.294  -3.427  0.00  0.00    -0.520 OA
ENDROOT
BRANCH   1   5
ATOM      5  C   LIG    1        3.994   1.787  -2.466  0.00  0.00    +0.250 C 
ATOM      6  C   LIG    1        2.701   1.510  -3.236  0.00  0.00    +0.060 C 
BRANCH   5   7
ATOM      7  N   LIG    1        4.312   0.637  -1.617  0.00  0.00    -1.100 NA
ATOM      8  H   LIG    1        4.802  -0.116  -1.983  0.00  0.00    +0.430 HD
BRANCH   7   9
ATOM      9  S   LIG    1        3.837   0.622  -0.030  0.00  0.00    +2.730 S 
ATOM     10  O   LIG    1        4.259  -0.625   0.504  0.00  0.00    -0.940 OA
ATOM     11  O   LIG    1        4.226   1.875   0.517  0.00  0.00    -0.940 OA
BRANCH   9  18
ATOM     12  C   LIG    1        1.565   3.160   0.003  0.00  0.00    +0.190 C 
ATOM     13  C   LIG    1        1.189   1.701  -0.000  0.00  0.00    +0.110 A 
ATOM     14  N   LIG    1       -0.014   1.205   0.009  0.00  0.00    -0.360 NA
ATOM     15  O   LIG    1        0.002  -0.004   0.002  0.00  0.00    +0.100 OA
ATOM     16  C   LIG    1        1.255  -0.480  -0.013  0.00  0.00    +0.120 A 
ATOM     17  C   LIG    1        1.670  -1.928  -0.024  0.00  0.00    +0.220 C 
ATOM     18  C   LIG    1        2.075   0.599  -0.015  0.00  0.00    -0.800 A 
ENDBRANCH   9  18
ENDBRANCH   7   9
ENDBRANCH   5   7
ENDBRANCH   1   5
BRANCH   2  19
ATOM     19  C   LIG    1        6.140   3.255  -5.276  0.00  0.00    +0.270 C 
BRANCH  19  20
ATOM     20  C   LIG    1        5.807   4.456  -6.163  0.00  0.00    +0.080 C 
BRANCH  20  21
ATOM     21  C   LIG    1        6.933   4.688  -7.138  0.00  0.00    -0.080 A 
ATOM     22  C   LIG    1        7.977   5.527  -6.799  0.00  0.00    +0.040 A 
ATOM     23  C   LIG    1        9.015   5.739  -7.688  0.00  0.00    +0.040 A 
ATOM     24  C   LIG    1        9.005   5.117  -8.926  0.00  0.00    +0.030 A 
ATOM     25  O   LIG    1        9.886   5.161  -9.967  0.00  0.00    -0.310 OA
ATOM     26  C   LIG    1        9.159   4.663 -11.106  0.00  0.00    +0.430 C 
ATOM     27  O   LIG    1        8.170   3.792 -10.527  0.00  0.00    -0.310 OA
ATOM     28  C   LIG    1        7.949   4.276  -9.270  0.00  0.00    +0.030 A 
ATOM     29  C   LIG    1        6.916   4.064  -8.372  0.00  0.00    +0.050 A 
ENDBRANCH  20  21
ENDBRANCH  19  20
ENDBRANCH   2  19
TORSDOF 7
