REMARK  Name = ZINCpe000000XF51.0
REMARK                            x       y       z     vdW  Elec       q    Type
REMARK                         _______ _______ _______ _____ _____    ______ ____
ROOT
ATOM      1  N   LIG    1       -3.773   4.284   3.016  0.00  0.00    -0.230 N 
ATOM      2  N   LIG    1       -2.813   3.567   2.552  0.00  0.00    -0.240 NA
ATOM      3  C   LIG    1       -3.038   3.272   1.288  0.00  0.00    +0.010 A 
ATOM      4  C   LIG    1       -4.268   3.876   0.930  0.00  0.00    +0.010 A 
ATOM      5  C   LIG    1       -4.704   4.501   2.049  0.00  0.00    +0.060 A 
ATOM      6  C   LIG    1       -5.978   5.293   2.193  0.00  0.00    +0.170 C 
ENDROOT
BRANCH   1  12
ATOM      7  C   LIG    1       -6.192   6.803   6.309  0.00  0.00    +0.160 C 
ATOM      8  C   LIG    1       -4.998   5.973   5.910  0.00  0.00    +0.210 A 
ATOM      9  C   LIG    1       -3.997   5.698   6.828  0.00  0.00    -0.080 A 
ATOM     10  C   LIG    1       -2.917   4.930   6.419  0.00  0.00    +0.210 A 
ATOM     11  N   LIG    1       -2.876   4.487   5.173  0.00  0.00    -0.510 NA
ATOM     12  C   LIG    1       -3.850   4.768   4.323  0.00  0.00    +0.550 A 
ATOM     13  C   LIG    1       -1.804   4.606   7.381  0.00  0.00    +0.160 C 
ATOM     14  N   LIG    1       -4.892   5.502   4.678  0.00  0.00    -0.530 NA
ENDBRANCH   1  12
BRANCH   3  15
ATOM     15  C   LIG    1       -2.168   2.467   0.407  0.00  0.00    +0.610 C 
ATOM     16  N   LIG    1       -1.089   1.839   0.916  0.00  0.00    -0.600 N 
ATOM     17  C   LIG    1       -0.832   1.831   2.365  0.00  0.00    +0.260 C 
ATOM     18  C   LIG    1        0.616   2.275   2.601  0.00  0.00    +0.220 C 
ATOM     19  O   LIG    1        1.490   1.479   1.796  0.00  0.00    -0.380 OA
ATOM     20  C   LIG    1        1.280   1.621   0.389  0.00  0.00    +0.220 C 
ATOM     21  C   LIG    1       -0.134   1.143   0.040  0.00  0.00    +0.210 C 
ATOM     22  O   LIG    1       -2.424   2.370  -0.778  0.00  0.00    -0.510 OA
BRANCH  21  23
ATOM     23  C   LIG    1       -0.442   1.470  -1.423  0.00  0.00    +0.070 C 
BRANCH  23  24
ATOM     24  C   LIG    1        0.601   0.807  -2.325  0.00  0.00    +0.160 C 
BRANCH  24  25
ATOM     25  O   LIG    1        0.247   1.013  -3.694  0.00  0.00    -0.570 OA
ATOM     26  H   LIG    1        0.865   0.618  -4.324  0.00  0.00    +0.380 HD
ENDBRANCH  24  25
ENDBRANCH  23  24
ENDBRANCH  21  23
ENDBRANCH   3  15
TORSDOF 5
