REMARK  Name = ZINCrD000000C8IT.0
REMARK                            x       y       z     vdW  Elec       q    Type
REMARK                         _______ _______ _______ _____ _____    ______ ____
ROOT
ATOM      1  O   LIG    1        4.539  -3.632  -3.921  0.00  0.00    -0.520 OA
ATOM      2  C   LIG    1        5.603  -3.057  -3.821  0.00  0.00    +0.520 C 
ATOM      3  N   LIG    1        6.688  -3.530  -4.465  0.00  0.00    -0.660 N 
ATOM      4  H   LIG    1        7.522  -3.035  -4.438  0.00  0.00    +0.420 HD
ENDROOT
BRANCH   3   5
ATOM      5  C   LIG    1        6.612  -4.733  -5.171  0.00  0.00    +0.160 A 
ATOM      6  C   LIG    1        5.452  -5.081  -5.825  0.00  0.00    +0.040 A 
ATOM      7  C   LIG    1        5.363  -6.277  -6.533  0.00  0.00    +0.040 A 
ATOM      8  C   LIG    1        6.419  -7.133  -6.597  0.00  0.00    +0.020 A 
ATOM      9  C   LIG    1        7.620  -6.814  -5.943  0.00  0.00    -0.090 A 
ATOM     10  C   LIG    1        8.731  -7.678  -5.990  0.00  0.00    +0.080 A 
ATOM     11  C   LIG    1        9.867  -7.303  -5.330  0.00  0.00    -0.030 A 
ATOM     12  C   LIG    1        9.903  -6.096  -4.638  0.00  0.00    +0.290 A 
ATOM     13  N   LIG    1        8.866  -5.294  -4.596  0.00  0.00    -0.480 NA
ATOM     14  C   LIG    1        7.727  -5.599  -5.224  0.00  0.00    +0.110 A 
ENDBRANCH   3   5
BRANCH   2  15
ATOM     15  C   LIG    1        5.710  -1.814  -2.976  0.00  0.00    -0.010 C 
ATOM     16  C   LIG    1        6.162  -0.641  -3.849  0.00  0.00    +0.040 C 
ATOM     17  C   LIG    1        6.304   0.615  -2.986  0.00  0.00    +0.030 C 
ATOM     18  C   LIG    1        4.944   0.964  -2.373  0.00  0.00    +0.280 C 
ATOM     19  N   LIG    1        4.435  -0.210  -1.651  0.00  0.00    -1.000 NA
ATOM     20  C   LIG    1        4.349  -1.493  -2.361  0.00  0.00    +0.320 C 
BRANCH  19  21
ATOM     21  S   LIG    1        3.973  -0.091  -0.065  0.00  0.00    +2.720 S 
ATOM     22  O   LIG    1        4.071  -1.399   0.480  0.00  0.00    -0.940 OA
ATOM     23  O   LIG    1        4.665   1.028   0.471  0.00  0.00    -0.950 OA
BRANCH  21  24
ATOM     24  C   LIG    1        2.262   0.328  -0.050  0.00  0.00    -0.800 A 
ATOM     25  C   LIG    1        1.256  -0.548  -0.040  0.00  0.00    +0.170 A 
ATOM     26  C   LIG    1       -0.009   0.016  -0.030  0.00  0.00    -0.010 A 
ATOM     27  C   LIG    1       -0.029   1.350  -0.032  0.00  0.00    +0.010 A 
ATOM     28  S   LIG    1        1.618   1.965  -0.048  0.00  0.00    +0.210 S 
ENDBRANCH  21  24
ENDBRANCH  19  21
ENDBRANCH   2  15
TORSDOF 4
