REMARK  Name = ZINCqH0000036GcV.0
REMARK                            x       y       z     vdW  Elec       q    Type
REMARK                         _______ _______ _______ _____ _____    ______ ____
ROOT
ATOM      1  C   LIG    1        2.554   9.185   0.025  0.00  0.00    -0.050 A 
ATOM      2  C   LIG    1        1.411   9.963   0.039  0.00  0.00    -0.030 A 
ATOM      3  C   LIG    1        0.164   9.364   0.049  0.00  0.00    +0.060 A 
ATOM      4  C   LIG    1        0.058   7.987   0.036  0.00  0.00    -0.080 A 
ATOM      5  C   LIG    1        1.203   7.204   0.027  0.00  0.00    +0.140 A 
ATOM      6  C   LIG    1        2.453   7.807   0.019  0.00  0.00    -0.010 A 
ENDROOT
BRANCH   1   8
ATOM      7  C   LIG    1        4.248  10.295  -1.405  0.00  0.00    +0.040 C 
ATOM      8  C   LIG    1        3.910   9.841   0.016  0.00  0.00    +0.280 C 
BRANCH   8   9
ATOM      9  N   LIG    1        3.898  11.001   0.910  0.00  0.00    -0.730 N 
ATOM     10  H   LIG    1        3.063  11.454   1.105  0.00  0.00    +0.400 HD
ATOM     11  C   LIG    1        5.047  11.440   1.461  0.00  0.00    +0.520 C 
ATOM     12  O   LIG    1        6.091  10.873   1.218  0.00  0.00    -0.540 OA
BRANCH  11  13
ATOM     13  C   LIG    1        5.034  12.634   2.381  0.00  0.00    +0.050 C 
BRANCH  13  14
ATOM     14  C   LIG    1        6.457  12.919   2.865  0.00  0.00    +0.060 C 
BRANCH  14  15
ATOM     15  C   LIG    1        6.444  14.132   3.799  0.00  0.00    +0.150 C 
ATOM     16  C   LIG    1        7.868  14.406   4.345  0.00  0.00    +0.010 C 
ATOM     17  C   LIG    1        7.770  15.920   4.675  0.00  0.00    +0.000 C 
ATOM     18  C   LIG    1        6.830  16.438   3.566  0.00  0.00    +0.190 C 
ATOM     19  O   LIG    1        6.086  15.318   3.071  0.00  0.00    -0.380 OA
ENDBRANCH  14  15
ENDBRANCH  13  14
ENDBRANCH  11  13
ENDBRANCH   8   9
ENDBRANCH   1   8
BRANCH   5  20
ATOM     20  O   LIG    1        1.102   5.849   0.022  0.00  0.00    -0.310 OA
BRANCH  20  21
ATOM     21  C   LIG    1       -0.217   5.298   0.031  0.00  0.00    +0.290 C 
BRANCH  21  22
ATOM     22  C   LIG    1       -0.132   3.793   0.023  0.00  0.00    +0.120 A 
ATOM     23  C   LIG    1        1.106   3.179   0.008  0.00  0.00    -0.010 A 
ATOM     24  C   LIG    1        1.173   1.794   0.001  0.00  0.00    +0.070 A 
ATOM     25  C   LIG    1       -0.013   1.076   0.008  0.00  0.00    -0.030 A 
ATOM     26  C   LIG    1       -1.214   1.759   0.017  0.00  0.00    +0.260 A 
ATOM     27  N   LIG    1       -1.240   3.078   0.029  0.00  0.00    -0.480 NA
ENDBRANCH  21  22
ENDBRANCH  20  21
ENDBRANCH   5  20
TORSDOF 8
