REMARK  Name = ZINCpk000000p8jZ.0
REMARK                            x       y       z     vdW  Elec       q    Type
REMARK                         _______ _______ _______ _____ _____    ______ ____
ROOT
ATOM      1  C   LIG    1       -0.736   3.058   0.025  0.00  0.00    -0.220 A 
ATOM      2  C   LIG    1       -1.115   1.727   0.016  0.00  0.00    +0.140 A 
ATOM      3  N   LIG    1       -0.011   0.966   0.007  0.00  0.00    -0.520 N 
ATOM      4  H   LIG    1        0.002  -0.004   0.002  0.00  0.00    +0.430 HD
ATOM      5  C   LIG    1        1.103   1.780   0.001  0.00  0.00    -0.100 A 
ATOM      6  C   LIG    1       -2.533   1.218   0.019  0.00  0.00    +0.160 C 
ATOM      7  C   LIG    1        0.675   3.090   0.012  0.00  0.00    +0.000 A 
ATOM      8  C   LIG    1        1.546   4.320   0.011  0.00  0.00    +0.140 C 
ENDROOT
BRANCH   1   9
ATOM      9  C   LIG    1       -1.636   4.224   0.040  0.00  0.00    +0.550 C 
ATOM     10  O   LIG    1       -2.018   4.710  -1.006  0.00  0.00    -0.500 OA
BRANCH   9  11
ATOM     11  O   LIG    1       -2.037   4.751   1.214  0.00  0.00    -0.350 OA
BRANCH  11  13
ATOM     12  C   LIG    1       -3.268   6.354   2.572  0.00  0.00    +0.070 C 
ATOM     13  C   LIG    1       -2.924   5.898   1.153  0.00  0.00    +0.200 C 
ENDBRANCH  11  13
ENDBRANCH   9  11
ENDBRANCH   1   9
BRANCH   5  14
ATOM     14  C   LIG    1        2.450   1.345  -0.015  0.00  0.00    +0.410 C 
ATOM     15  O   LIG    1        3.351   2.160  -0.019  0.00  0.00    -0.430 OA
BRANCH  14  16
ATOM     16  C   LIG    1        2.767  -0.128  -0.025  0.00  0.00    +0.330 C 
BRANCH  16  17
ATOM     17  N   LIG    1        4.220  -0.315  -0.041  0.00  0.00    -0.570 N 
ATOM     18  C   LIG    1        4.986  -0.419   1.068  0.00  0.00    +0.530 C 
ATOM     19  C   LIG    1        6.376  -0.715   0.567  0.00  0.00    +0.190 C 
ATOM     20  C   LIG    1        7.407   0.313   1.057  0.00  0.00    +0.060 C 
ATOM     21  C   LIG    1        8.283   0.604  -0.186  0.00  0.00    +0.030 C 
ATOM     22  C   LIG    1        7.658  -0.247  -1.319  0.00  0.00    +0.340 C 
ATOM     23  N   LIG    1        6.263  -0.438  -0.891  0.00  0.00    -0.630 N 
ATOM     24  O   LIG    1        4.630  -0.298   2.221  0.00  0.00    -0.460 OA
ATOM     25  C   LIG    1        4.958  -0.412  -1.159  0.00  0.00    +0.740 C 
ATOM     26  O   LIG    1        4.491  -0.465  -2.280  0.00  0.00    -0.530 OA
ENDBRANCH  16  17
ENDBRANCH  14  16
ENDBRANCH   5  14
TORSDOF 6
