REMARK  Name = ZINCwl0000000ofS.1
REMARK                            x       y       z     vdW  Elec       q    Type
REMARK                         _______ _______ _______ _____ _____    ______ ____
ROOT
ATOM      1  C   LIG    1        1.649   2.357   0.092  0.00  0.00    +0.250 C 
ENDROOT
BRANCH   1   2
ATOM      2  N   LIG    1        2.042   1.669  -1.145  0.00  0.00    -0.490 N 
ATOM      3  H   LIG    1        1.661   2.162  -1.939  0.00  0.00    +0.440 HD
ATOM      4  H   LIG    1        1.685   0.725  -1.133  0.00  0.00    +0.440 HD
BRANCH   2   5
ATOM      5  C   LIG    1        3.507   1.638  -1.244  0.00  0.00    +0.220 C 
BRANCH   5   6
ATOM      6  C   LIG    1        3.909   1.044  -2.569  0.00  0.00    +0.510 C 
ATOM      7  N   LIG    1        5.069   1.411  -3.148  0.00  0.00    -0.590 N 
ATOM      8  C   LIG    1        6.005   2.316  -2.463  0.00  0.00    +0.250 C 
ATOM      9  C   LIG    1        7.401   1.676  -2.495  0.00  0.00    +0.230 C 
ATOM     10  O   LIG    1        7.728   1.328  -3.843  0.00  0.00    -0.370 OA
ATOM     11  C   LIG    1        6.857   0.354  -4.423  0.00  0.00    +0.220 C 
ATOM     12  C   LIG    1        5.435   0.922  -4.487  0.00  0.00    +0.270 C 
ATOM     13  O   LIG    1        3.188   0.235  -3.115  0.00  0.00    -0.510 OA
ENDBRANCH   5   6
BRANCH   5  14
ATOM     14  C   LIG    1        4.068   0.798  -0.126  0.00  0.00    -0.150 A 
ATOM     15  C   LIG    1        3.518  -0.439   0.153  0.00  0.00    +0.020 A 
ATOM     16  C   LIG    1        4.036  -1.211   1.175  0.00  0.00    +0.040 A 
ATOM     17  C   LIG    1        5.098  -0.742   1.926  0.00  0.00    +0.060 A 
ATOM     18  C   LIG    1        5.645   0.497   1.650  0.00  0.00    +0.040 A 
ATOM     19  C   LIG    1        5.130   1.268   0.625  0.00  0.00    +0.050 A 
ENDBRANCH   5  14
ENDBRANCH   2   5
ENDBRANCH   1   2
BRANCH   1  20
ATOM     20  C   LIG    1        0.122   2.388   0.195  0.00  0.00    +0.230 C 
BRANCH  20  21
ATOM     21  O   LIG    1       -0.416   3.087  -0.929  0.00  0.00    -0.540 OA
ATOM     22  H   LIG    1       -0.116   4.003  -1.004  0.00  0.00    +0.390 HD
ENDBRANCH  20  21
BRANCH  20  23
ATOM     23  C   LIG    1       -0.287   3.104   1.484  0.00  0.00    +0.190 C 
BRANCH  23  24
ATOM     24  O   LIG    1       -1.706   3.033   1.639  0.00  0.00    -0.300 OA
BRANCH  24  31
ATOM     25  O   LIG    1       -5.574   5.662   7.514  0.00  0.00    -0.520 OA
ATOM     26  C   LIG    1       -5.106   5.114   6.538  0.00  0.00    +0.520 C 
ATOM     27  C   LIG    1       -5.916   4.077   5.808  0.00  0.00    +0.090 C 
ATOM     28  C   LIG    1       -5.635   4.159   4.307  0.00  0.00    +0.110 C 
ATOM     29  C   LIG    1       -4.147   4.193   4.073  0.00  0.00    -0.080 A 
ATOM     30  C   LIG    1       -3.608   3.597   2.951  0.00  0.00    +0.030 A 
ATOM     31  C   LIG    1       -2.237   3.624   2.742  0.00  0.00    +0.100 A 
ATOM     32  C   LIG    1       -1.408   4.260   3.654  0.00  0.00    -0.050 A 
ATOM     33  C   LIG    1       -1.947   4.862   4.775  0.00  0.00    +0.030 A 
ATOM     34  C   LIG    1       -3.318   4.830   4.987  0.00  0.00    +0.140 A 
ATOM     35  N   LIG    1       -3.868   5.439   6.122  0.00  0.00    -0.670 N 
ATOM     36  H   LIG    1       -3.354   6.100   6.611  0.00  0.00    +0.410 HD
ENDBRANCH  24  31
ENDBRANCH  23  24
ENDBRANCH  20  23
ENDBRANCH   1  20
TORSDOF 9
