REMARK  Name = ZINCfA000000bicV.1
REMARK                            x       y       z     vdW  Elec       q    Type
REMARK                         _______ _______ _______ _____ _____    ______ ____
ROOT
ATOM      1  C   LIG    1       -3.280   0.878   3.737  0.00  0.00    +0.360 C 
ENDROOT
BRANCH   1   2
ATOM      2  N   LIG    1       -4.577   1.222   3.139  0.00  0.00    -0.380 N 
ATOM      3  C   LIG    1       -4.794   2.670   3.243  0.00  0.00    +0.250 C 
ATOM      4  C   LIG    1       -6.106   3.044   2.550  0.00  0.00    +0.060 C 
ATOM      5  C   LIG    1       -7.263   2.303   3.226  0.00  0.00    +0.040 C 
ATOM      6  C   LIG    1       -6.990   0.797   3.178  0.00  0.00    +0.060 C 
ATOM      7  C   LIG    1       -5.646   0.507   3.848  0.00  0.00    +0.170 C 
ATOM      8  C   LIG    1       -5.368  -0.997   3.803  0.00  0.00    +0.080 C 
ATOM      9  H   LIG    1       -4.581   0.951   2.168  0.00  0.00    +0.420 HD
ENDBRANCH   1   2
BRANCH   1  12
ATOM     10  C   LIG    1       -0.718   1.572   1.248  0.00  0.00    +0.060 A 
ATOM     11  N   LIG    1       -1.666   0.940   1.854  0.00  0.00    -0.470 NA
ATOM     12  C   LIG    1       -2.173   1.506   2.930  0.00  0.00    +0.010 A 
ATOM     13  C   LIG    1       -1.629   2.686   3.245  0.00  0.00    -0.060 A 
ATOM     14  S   LIG    1       -0.383   3.043   2.051  0.00  0.00    +0.210 S 
BRANCH  10  16
ATOM     15  C   LIG    1       -0.753   1.593  -1.232  0.00  0.00    +0.050 C 
ATOM     16  C   LIG    1       -0.013   1.086   0.008  0.00  0.00    +0.140 C 
ENDBRANCH  10  16
ENDBRANCH   1  12
TORSDOF 3
