REMARK  Name = ZINCfA000000bicV.2
REMARK                            x       y       z     vdW  Elec       q    Type
REMARK                         _______ _______ _______ _____ _____    ______ ____
ROOT
ATOM      1  C   LIG    1        0.638  -1.949  -1.247  0.00  0.00    +0.360 C 
ENDROOT
BRANCH   1   2
ATOM      2  N   LIG    1        0.689  -0.481  -1.204  0.00  0.00    -0.380 N 
ATOM      3  C   LIG    1        0.002  -0.004   0.002  0.00  0.00    +0.250 C 
ATOM      4  C   LIG    1       -0.019   1.526   0.010  0.00  0.00    +0.050 C 
ATOM      5  C   LIG    1        1.420   2.051  -0.001  0.00  0.00    +0.030 C 
ATOM      6  C   LIG    1        2.149   1.487  -1.223  0.00  0.00    +0.060 C 
ATOM      7  C   LIG    1        2.090  -0.042  -1.186  0.00  0.00    +0.170 C 
ATOM      8  C   LIG    1        2.765  -0.546   0.091  0.00  0.00    +0.090 C 
ATOM      9  H   LIG    1        0.232  -0.106  -2.021  0.00  0.00    +0.420 HD
ENDBRANCH   1   2
BRANCH   1  12
ATOM     10  C   LIG    1       -2.809  -2.934  -0.626  0.00  0.00    +0.060 A 
ATOM     11  N   LIG    1       -1.605  -2.545  -0.372  0.00  0.00    -0.470 NA
ATOM     12  C   LIG    1       -0.792  -2.397  -1.398  0.00  0.00    +0.000 A 
ATOM     13  C   LIG    1       -1.342  -2.673  -2.585  0.00  0.00    -0.050 A 
ATOM     14  S   LIG    1       -3.013  -3.158  -2.309  0.00  0.00    +0.210 S 
BRANCH  10  16
ATOM     15  C   LIG    1       -4.659  -1.861   0.628  0.00  0.00    +0.050 C 
ATOM     16  C   LIG    1       -3.880  -3.160   0.410  0.00  0.00    +0.140 C 
ENDBRANCH  10  16
ENDBRANCH   1  12
TORSDOF 3
