REMARK  Name = ZINCrg00000J2gtX.0
REMARK                            x       y       z     vdW  Elec       q    Type
REMARK                         _______ _______ _______ _____ _____    ______ ____
ROOT
ATOM      1  N   LIG    1        1.181  -6.416  -1.403  0.00  0.00    -1.110 NA
ATOM      2  H   LIG    1        1.948  -6.198  -1.956  0.00  0.00    +0.420 HD
ENDROOT
BRANCH   1   7
ATOM      3  N   LIG    1        0.035  -3.267  -1.505  0.00  0.00    -0.540 N 
ATOM      4  C   LIG    1        0.237  -3.096  -2.938  0.00  0.00    +0.270 C 
ATOM      5  C   LIG    1        0.685  -4.411  -3.577  0.00  0.00    +0.030 C 
ATOM      6  C   LIG    1       -0.282  -5.520  -3.145  0.00  0.00    +0.050 C 
ATOM      7  C   LIG    1       -0.106  -5.758  -1.643  0.00  0.00    +0.280 C 
ATOM      8  C   LIG    1       -0.136  -4.449  -0.910  0.00  0.00    +0.500 C 
ATOM      9  O   LIG    1       -0.331  -4.466   0.287  0.00  0.00    -0.480 OA
BRANCH   3  14
ATOM     10  C   LIG    1       -1.504   0.787   0.964  0.00  0.00    +0.160 C 
ATOM     11  C   LIG    1       -0.632  -0.309   0.409  0.00  0.00    +0.080 A 
ATOM     12  N   LIG    1        0.650  -0.453   0.627  0.00  0.00    -0.280 NA
ATOM     13  N   LIG    1        1.090  -1.590  -0.063  0.00  0.00    -0.370 N 
ATOM     14  C   LIG    1        0.026  -2.125  -0.704  0.00  0.00    +0.300 A 
ATOM     15  C   LIG    1        2.461  -2.107  -0.087  0.00  0.00    +0.350 C 
ATOM     16  C   LIG    1       -1.057  -1.351  -0.421  0.00  0.00    -0.100 A 
ENDBRANCH   3  14
ENDBRANCH   1   7
BRANCH   1  17
ATOM     17  S   LIG    1        1.327  -7.531  -0.187  0.00  0.00    +2.710 S 
ATOM     18  O   LIG    1        0.751  -6.940   0.970  0.00  0.00    -0.940 OA
ATOM     19  O   LIG    1        2.667  -8.002  -0.234  0.00  0.00    -0.970 OA
BRANCH  17  20
ATOM     20  C   LIG    1        0.302  -8.900  -0.609  0.00  0.00    -0.800 A 
ATOM     21  C   LIG    1       -0.901  -9.218  -0.062  0.00  0.00    +0.380 A 
ATOM     22  N   LIG    1       -1.382 -10.322  -0.634  0.00  0.00    -0.540 NA
ATOM     23  C   LIG    1       -0.547 -10.771  -1.556  0.00  0.00    +0.280 A 
ATOM     24  N   LIG    1       -0.570 -11.844  -2.411  0.00  0.00    -0.490 N 
ATOM     25  H   LIG    1       -1.325 -12.452  -2.398  0.00  0.00    +0.430 HD
ATOM     26  C   LIG    1        0.444 -12.061  -3.265  0.00  0.00    +0.340 A 
ATOM     27  C   LIG    1        1.525 -11.235  -3.319  0.00  0.00    -0.040 A 
ATOM     28  C   LIG    1        1.608 -10.130  -2.480  0.00  0.00    +0.170 A 
ATOM     29  C   LIG    1        0.564  -9.884  -1.589  0.00  0.00    -0.090 A 
ENDBRANCH  17  20
ENDBRANCH   1  17
TORSDOF 4
