REMARK  Name = ZINCrg000000t2R9.0
REMARK                            x       y       z     vdW  Elec       q    Type
REMARK                         _______ _______ _______ _____ _____    ______ ____
ROOT
ATOM      1  N   LIG    1       -0.698   1.558   1.213  0.00  0.00    -0.730 N 
ATOM      2  H   LIG    1       -1.495   2.106   1.135  0.00  0.00    +0.410 HD
ATOM      3  C   LIG    1       -0.222   1.232   2.431  0.00  0.00    +0.520 C 
ATOM      4  O   LIG    1        0.774   0.548   2.529  0.00  0.00    -0.530 OA
ENDROOT
BRANCH   1   5
ATOM      5  C   LIG    1       -0.013   1.086   0.008  0.00  0.00    +0.320 C 
BRANCH   5   9
ATOM      6  C   LIG    1       -2.078   2.501  -3.453  0.00  0.00    -0.670 A 
ATOM      7  C   LIG    1       -1.066   3.259  -2.894  0.00  0.00    +0.130 A 
ATOM      8  C   LIG    1       -0.398   2.801  -1.774  0.00  0.00    +0.020 A 
ATOM      9  C   LIG    1       -0.742   1.585  -1.213  0.00  0.00    -0.050 A 
ATOM     10  C   LIG    1       -1.750   0.825  -1.775  0.00  0.00    +0.020 A 
ATOM     11  C   LIG    1       -2.422   1.285  -2.892  0.00  0.00    +0.130 A 
BRANCH   6  12
ATOM     12  S   LIG    1       -2.930   3.084  -4.881  0.00  0.00    +2.700 S 
ATOM     13  O   LIG    1       -2.780   4.497  -4.889  0.00  0.00    -0.960 OA
ATOM     14  O   LIG    1       -4.195   2.437  -4.886  0.00  0.00    -0.960 OA
BRANCH  12  15
ATOM     15  N   LIG    1       -2.110   2.519  -6.205  0.00  0.00    -1.250 NA
ATOM     16  H   LIG    1       -1.153   2.371  -6.156  0.00  0.00    +0.420 HD
ATOM     17  H   LIG    1       -2.588   2.337  -7.029  0.00  0.00    +0.420 HD
ENDBRANCH  12  15
ENDBRANCH   6  12
ENDBRANCH   5   9
ENDBRANCH   1   5
BRANCH   3  18
ATOM     18  C   LIG    1       -0.927   1.718   3.671  0.00  0.00    +0.070 C 
BRANCH  18  19
ATOM     19  C   LIG    1       -0.187   1.212   4.911  0.00  0.00    +0.300 C 
BRANCH  19  20
ATOM     20  N   LIG    1       -0.873   1.684   6.116  0.00  0.00    -1.120 NA
ATOM     21  H   LIG    1       -1.528   2.397   6.053  0.00  0.00    +0.420 HD
BRANCH  20  22
ATOM     22  S   LIG    1       -0.531   1.000   7.585  0.00  0.00    +2.700 S 
ATOM     23  O   LIG    1       -0.591  -0.407   7.396  0.00  0.00    -0.950 OA
ATOM     24  O   LIG    1       -1.322   1.690   8.543  0.00  0.00    -0.950 OA
BRANCH  22  25
ATOM     25  C   LIG    1        1.148   1.381   7.959  0.00  0.00    -0.670 A 
ATOM     26  C   LIG    1        2.157   0.523   7.562  0.00  0.00    +0.140 A 
ATOM     27  C   LIG    1        3.474   0.825   7.850  0.00  0.00    +0.040 A 
ATOM     28  C   LIG    1        3.783   1.979   8.546  0.00  0.00    -0.040 A 
ATOM     29  C   LIG    1        2.773   2.835   8.949  0.00  0.00    +0.030 A 
ATOM     30 BR   LIG    1        5.585   2.388   8.948  0.00  0.00    -0.030 Br
ATOM     31  C   LIG    1        1.456   2.535   8.655  0.00  0.00    +0.140 A 
ENDBRANCH  22  25
ENDBRANCH  20  22
ENDBRANCH  19  20
ENDBRANCH  18  19
ENDBRANCH   3  18
TORSDOF 9
