REMARK  Name = ZINCpk00000xTQhB.0
REMARK                            x       y       z     vdW  Elec       q    Type
REMARK                         _______ _______ _______ _____ _____    ______ ____
ROOT
ATOM      1  O   LIG    1       -2.344   0.250   0.026  0.00  0.00    -0.530 OA
ATOM      2  C   LIG    1       -1.412  -0.526   0.013  0.00  0.00    +0.520 C 
ATOM      3  N   LIG    1       -1.640  -1.854   0.008  0.00  0.00    -0.620 N 
ATOM      4  C   LIG    1       -0.524  -2.812  -0.014  0.00  0.00    +0.300 C 
ATOM      5  C   LIG    1       -0.737  -3.826   1.121  0.00  0.00    +0.190 C 
ATOM      6  N   LIG    1       -2.071  -4.425   0.991  0.00  0.00    -0.480 N 
ATOM      7  C   LIG    1       -3.127  -3.415   1.146  0.00  0.00    +0.210 C 
ATOM      8  C   LIG    1       -3.012  -2.384   0.018  0.00  0.00    +0.290 C 
ENDROOT
BRANCH   6   9
ATOM      9  C   LIG    1       -2.241  -5.466   1.897  0.00  0.00    +0.310 A 
ATOM     10  C   LIG    1       -1.339  -6.524   1.908  0.00  0.00    -0.050 A 
ATOM     11  C   LIG    1       -1.519  -7.553   2.815  0.00  0.00    +0.090 A 
ATOM     12  C   LIG    1       -2.599  -7.487   3.685  0.00  0.00    -0.060 A 
ATOM     13  C   LIG    1       -3.456  -6.407   3.619  0.00  0.00    +0.290 A 
ATOM     14  N   LIG    1       -3.256  -5.437   2.747  0.00  0.00    -0.520 NA
ENDBRANCH   6   9
BRANCH   2  15
ATOM     15  C   LIG    1        0.002  -0.004   0.002  0.00  0.00    +0.070 C 
BRANCH  15  16
ATOM     16  C   LIG    1       -0.019   1.526   0.010  0.00  0.00    +0.300 C 
BRANCH  16  17
ATOM     17  N   LIG    1        1.356   2.033   0.000  0.00  0.00    -0.670 N 
ATOM     18  H   LIG    1        2.102   1.413  -0.010  0.00  0.00    +0.430 HD
BRANCH  17  19
ATOM     19  C   LIG    1        1.588   3.387   0.005  0.00  0.00    +0.430 A 
ATOM     20  N   LIG    1        2.767   3.985   0.002  0.00  0.00    -0.530 NA
ATOM     21  C   LIG    1        2.501   5.302   0.007  0.00  0.00    +0.230 A 
ATOM     22  N   LIG    1        1.209   5.441   0.021  0.00  0.00    -0.400 NA
ATOM     23  O   LIG    1        0.664   4.358   0.020  0.00  0.00    +0.040 OA
BRANCH  21  24
ATOM     24  C   LIG    1        3.517   6.415   0.004  0.00  0.00    +0.060 C 
ATOM     25  C   LIG    1        3.004   7.840   0.221  0.00  0.00    +0.050 C 
ATOM     26  C   LIG    1        3.480   7.401  -1.165  0.00  0.00    +0.050 C 
ENDBRANCH  21  24
ENDBRANCH  17  19
ENDBRANCH  16  17
ENDBRANCH  15  16
ENDBRANCH   2  15
TORSDOF 6
