REMARK  Name = ZINCpk0000059whw.0
REMARK                            x       y       z     vdW  Elec       q    Type
REMARK                         _______ _______ _______ _____ _____    ______ ____
ROOT
ATOM      1  C   LIG    1       -0.968   3.265  -0.052  0.00  0.00    +0.120 A 
ATOM      2  N   LIG    1       -0.949   1.959   0.029  0.00  0.00    -0.290 NA
ATOM      3  N   LIG    1        0.339   1.562   0.411  0.00  0.00    -0.330 N 
ATOM      4  C   LIG    1        1.093   2.676   0.547  0.00  0.00    +0.100 A 
ATOM      5  C   LIG    1        0.308   3.742   0.266  0.00  0.00    -0.230 A 
ENDROOT
BRANCH   3   6
ATOM      6  C   LIG    1        0.771   0.244   0.610  0.00  0.00    +0.160 A 
ATOM      7  C   LIG    1        1.973  -0.184   0.064  0.00  0.00    +0.000 A 
ATOM      8  C   LIG    1        2.399  -1.483   0.266  0.00  0.00    +0.030 A 
ATOM      9  C   LIG    1        1.624  -2.359   1.004  0.00  0.00    +0.010 A 
ATOM     10  C   LIG    1        0.423  -1.937   1.545  0.00  0.00    +0.030 A 
ATOM     11  C   LIG    1       -0.005  -0.638   1.350  0.00  0.00    +0.020 A 
ENDBRANCH   3   6
BRANCH   1  13
ATOM     12  C   LIG    1       -2.312   4.122  -1.951  0.00  0.00    +0.030 C 
ATOM     13  C   LIG    1       -2.158   4.109  -0.429  0.00  0.00    +0.100 C 
ENDBRANCH   1  13
BRANCH   4  14
ATOM     14  C   LIG    1        2.547   2.723   0.940  0.00  0.00    +0.100 C 
ATOM     15  C   LIG    1        2.665   2.690   2.465  0.00  0.00    +0.030 C 
ENDBRANCH   4  14
BRANCH   5  16
ATOM     16  C   LIG    1        0.733   5.188   0.291  0.00  0.00    +0.410 C 
BRANCH  16  17
ATOM     17  N   LIG    1       -0.440   6.045   0.104  0.00  0.00    -0.600 N 
ATOM     18  C   LIG    1       -0.828   6.353  -1.139  0.00  0.00    +0.720 C 
ATOM     19  N   LIG    1       -1.914   7.075  -1.438  0.00  0.00    -0.730 N 
ATOM     20  H   LIG    1       -2.147   7.213  -2.369  0.00  0.00    +0.430 HD
ATOM     21  C   LIG    1       -2.759   7.669  -0.397  0.00  0.00    +0.290 C 
ATOM     22  C   LIG    1       -2.576   6.863   0.873  0.00  0.00    +0.310 C 
ATOM     23  O   LIG    1       -3.520   6.490   1.528  0.00  0.00    -0.400 OA
ATOM     24  O   LIG    1       -0.150   5.944  -2.061  0.00  0.00    -0.560 OA
ATOM     25  C   LIG    1       -1.151   6.546   1.283  0.00  0.00    +0.400 C 
BRANCH  25  26
ATOM     26  O   LIG    1       -1.154   5.548   2.305  0.00  0.00    -0.540 OA
ATOM     27  H   LIG    1       -1.670   5.787   3.088  0.00  0.00    +0.400 HD
ENDBRANCH  25  26
ENDBRANCH  16  17
ENDBRANCH   5  16
TORSDOF 6
