REMARK  Name = ZINCpe000000TqrE.0
REMARK                            x       y       z     vdW  Elec       q    Type
REMARK                         _______ _______ _______ _____ _____    ______ ____
ROOT
ATOM      1  C   LIG    1        1.063   3.582   0.029  0.00  0.00    -0.280 C 
ENDROOT
BRANCH   1   2
ATOM      2  C   LIG    1        1.015   2.076   0.028  0.00  0.00    -0.110 A 
ATOM      3  C   LIG    1        2.189   1.347   0.061  0.00  0.00    +0.090 A 
ATOM      4  C   LIG    1        2.145  -0.035   0.061  0.00  0.00    +0.010 A 
ATOM      5  C   LIG    1        0.928  -0.687   0.026  0.00  0.00    +0.140 A 
ATOM      6  C   LIG    1       -0.247   0.042  -0.008  0.00  0.00    -0.680 A 
ATOM      7  C   LIG    1       -0.203   1.423  -0.007  0.00  0.00    +0.150 A 
BRANCH   6   8
ATOM      8  S   LIG    1       -1.799  -0.791  -0.052  0.00  0.00    +2.690 S 
ATOM      9  O   LIG    1       -2.758   0.121   0.464  0.00  0.00    -0.950 OA
ATOM     10  O   LIG    1       -1.578  -2.082   0.499  0.00  0.00    -0.950 OA
BRANCH   8  11
ATOM     11  N   LIG    1       -2.186  -1.023  -1.646  0.00  0.00    -1.000 NA
ATOM     12  C   LIG    1       -2.955  -0.007  -2.368  0.00  0.00    +0.300 C 
ATOM     13  C   LIG    1       -1.757  -2.244  -2.333  0.00  0.00    +0.300 C 
ENDBRANCH   8  11
ENDBRANCH   6   8
ENDBRANCH   1   2
BRANCH   1  14
ATOM     14  S   LIG    1        1.032   4.187   1.739  0.00  0.00    +2.440 S 
ATOM     15  O   LIG    1        2.227   3.773   2.387  0.00  0.00    -0.910 OA
ATOM     16  O   LIG    1       -0.222   3.851   2.316  0.00  0.00    -0.900 OA
BRANCH  14  17
ATOM     17  C   LIG    1        1.096   5.984   1.502  0.00  0.00    -0.350 C 
BRANCH  17  19
ATOM     18  N   LIG    1        1.220   8.007   2.920  0.00  0.00    -0.570 N 
ATOM     19  C   LIG    1        1.078   6.669   2.844  0.00  0.00    +0.540 C 
ATOM     20  O   LIG    1        0.937   6.016   3.857  0.00  0.00    -0.520 OA
BRANCH  18  21
ATOM     21  C   LIG    1        1.334   8.659   4.227  0.00  0.00    +0.190 C 
ATOM     22  C   LIG    1        1.671   7.775   5.430  0.00  0.00    +0.050 C 
ATOM     23  C   LIG    1        0.260   8.343   5.270  0.00  0.00    +0.020 C 
ENDBRANCH  18  21
BRANCH  18  25
ATOM     24  C   LIG    1       -0.160   9.239   1.320  0.00  0.00    +0.020 C 
ATOM     25  C   LIG    1        1.260   8.810   1.696  0.00  0.00    +0.270 C 
ENDBRANCH  18  25
ENDBRANCH  17  19
ENDBRANCH  14  17
ENDBRANCH   1  14
TORSDOF 8
