REMARK  Name = ZINCkj00000y7Lpp.0
REMARK                            x       y       z     vdW  Elec       q    Type
REMARK                         _______ _______ _______ _____ _____    ______ ____
ROOT
ATOM      1  N   LIG    1       -6.312   0.761   1.417  0.00  0.00    -0.670 NA
ATOM      2  H   LIG    1       -6.279  -0.154   0.993  0.00  0.00    +0.350 HD
ENDROOT
BRANCH   1   6
ATOM      3  N   LIG    1       -2.107   1.071   1.277  0.00  0.00    -0.380 N 
ATOM      4  C   LIG    1       -2.849   1.650   0.151  0.00  0.00    +0.250 C 
ATOM      5  C   LIG    1       -4.261   1.061   0.109  0.00  0.00    +0.020 C 
ATOM      6  C   LIG    1       -4.983   1.388   1.419  0.00  0.00    +0.180 C 
ATOM      7  C   LIG    1       -4.162   0.845   2.592  0.00  0.00    +0.070 C 
ATOM      8  C   LIG    1       -2.754   1.441   2.542  0.00  0.00    +0.250 C 
ATOM      9  H   LIG    1       -2.094   0.066   1.189  0.00  0.00    +0.420 HD
BRANCH   3  11
ATOM     10  C   LIG    1       -0.013   1.086   0.008  0.00  0.00    +0.080 C 
ATOM     11  C   LIG    1       -0.729   1.579   1.267  0.00  0.00    +0.250 C 
ENDBRANCH   3  11
ENDBRANCH   1   6
BRANCH   1  12
ATOM     12  C   LIG    1       -7.297   1.619   0.744  0.00  0.00    +0.170 C 
ATOM     13  C   LIG    1       -7.293   1.355  -0.781  0.00  0.00    -0.020 C 
ATOM     14  C   LIG    1       -8.486   0.379  -0.945  0.00  0.00    +0.210 C 
ATOM     15  O   LIG    1       -9.454   0.868   0.008  0.00  0.00    -0.350 OA
ATOM     16  C   LIG    1       -8.726   1.249   1.188  0.00  0.00    +0.270 C 
BRANCH  16  17
ATOM     17  C   LIG    1       -9.386   2.439   1.835  0.00  0.00    +0.190 A 
ATOM     18  N   LIG    1       -9.852   3.484   1.208  0.00  0.00    -0.470 NA
ATOM     19  C   LIG    1      -10.368   4.342   2.102  0.00  0.00    +0.140 A 
ATOM     20  C   LIG    1      -10.216   3.807   3.328  0.00  0.00    +0.130 A 
ATOM     21  N   LIG    1       -9.598   2.597   3.159  0.00  0.00    -0.450 N 
ATOM     22  C   LIG    1       -9.232   1.653   4.217  0.00  0.00    +0.330 C 
ENDBRANCH  16  17
ENDBRANCH   1  12
TORSDOF 4
