REMARK  Name = ZINCkj00000y7Lpp.1
REMARK                            x       y       z     vdW  Elec       q    Type
REMARK                         _______ _______ _______ _____ _____    ______ ____
ROOT
ATOM      1  N   LIG    1        2.473  -0.501   2.920  0.00  0.00    -0.500 N 
ATOM      2  H   LIG    1        3.349  -0.014   2.805  0.00  0.00    +0.430 HD
ATOM      3  H   LIG    1        2.127  -0.788   2.016  0.00  0.00    +0.430 HD
ENDROOT
BRANCH   1   7
ATOM      4  N   LIG    1        2.701  -4.558   4.046  0.00  0.00    -0.540 NA
ATOM      5  C   LIG    1        1.620  -3.767   4.649  0.00  0.00    +0.210 C 
ATOM      6  C   LIG    1        1.385  -2.505   3.817  0.00  0.00    +0.050 C 
ATOM      7  C   LIG    1        2.676  -1.684   3.766  0.00  0.00    +0.160 C 
ATOM      8  C   LIG    1        3.797  -2.547   3.178  0.00  0.00    +0.050 C 
ATOM      9  C   LIG    1        3.963  -3.808   4.029  0.00  0.00    +0.210 C 
BRANCH   4  11
ATOM     10  C   LIG    1        4.142  -6.527   4.253  0.00  0.00    +0.040 C 
ATOM     11  C   LIG    1        2.862  -5.844   4.739  0.00  0.00    +0.180 C 
ENDBRANCH   4  11
ENDBRANCH   1   7
BRANCH   1  12
ATOM     12  C   LIG    1        1.496   0.394   3.555  0.00  0.00    +0.150 C 
ATOM     13  C   LIG    1        2.111   1.065   4.807  0.00  0.00    +0.080 C 
ATOM     14  C   LIG    1        2.551   2.444   4.252  0.00  0.00    +0.230 C 
ATOM     15  O   LIG    1        1.504   2.783   3.314  0.00  0.00    -0.320 OA
ATOM     16  C   LIG    1        1.156   1.572   2.622  0.00  0.00    +0.270 C 
BRANCH  16  17
ATOM     17  C   LIG    1       -0.317   1.568   2.306  0.00  0.00    +0.160 A 
ATOM     18  N   LIG    1       -1.271   1.931   3.120  0.00  0.00    -0.450 NA
ATOM     19  C   LIG    1       -2.454   1.796   2.503  0.00  0.00    +0.160 A 
ATOM     20  C   LIG    1       -2.224   1.337   1.258  0.00  0.00    +0.170 A 
ATOM     21  N   LIG    1       -0.870   1.187   1.134  0.00  0.00    -0.450 N 
ATOM     22  C   LIG    1       -0.152   0.708  -0.050  0.00  0.00    +0.330 C 
ENDBRANCH  16  17
ENDBRANCH   1  12
TORSDOF 4
