REMARK  Name = ZINCpk00000xI62Q.1
REMARK                            x       y       z     vdW  Elec       q    Type
REMARK                         _______ _______ _______ _____ _____    ______ ____
ROOT
ATOM      1  N   LIG    1        5.293   5.192  -0.200  0.00  0.00    -0.450 N 
ATOM      2  C   LIG    1        5.030   3.935   0.293  0.00  0.00    +0.410 A 
ATOM      3  N   LIG    1        5.541   2.905   0.933  0.00  0.00    -0.290 NA
ATOM      4  N   LIG    1        4.653   1.986   1.073  0.00  0.00    -0.200 NA
ATOM      5  C   LIG    1        3.522   2.366   0.522  0.00  0.00    +0.200 A 
ATOM      6  N   LIG    1        3.728   3.627   0.009  0.00  0.00    -0.430 N 
ATOM      7  C   LIG    1        3.162   4.684  -0.661  0.00  0.00    +0.360 A 
ATOM      8  N   LIG    1        1.912   4.911  -1.174  0.00  0.00    -0.510 N 
ATOM      9  C   LIG    1        0.870   3.890  -1.043  0.00  0.00    +0.340 C 
ATOM     10  C   LIG    1        1.641   6.074  -1.797  0.00  0.00    +0.670 A 
ATOM     11  O   LIG    1        0.523   6.261  -2.247  0.00  0.00    -0.510 OA
ATOM     12  N   LIG    1        2.564   7.023  -1.932  0.00  0.00    -0.580 NA
ATOM     13  C   LIG    1        3.791   6.860  -1.457  0.00  0.00    +0.500 A 
ATOM     14  C   LIG    1        4.125   5.664  -0.798  0.00  0.00    -0.020 A 
ENDROOT
BRANCH   5  15
ATOM     15  C   LIG    1        2.265   1.591   0.470  0.00  0.00    -0.040 A 
ATOM     16  C   LIG    1        1.084   2.133   0.980  0.00  0.00    +0.030 A 
ATOM     17  C   LIG    1       -0.085   1.404   0.928  0.00  0.00    +0.010 A 
ATOM     18  C   LIG    1       -0.090   0.137   0.372  0.00  0.00    -0.060 A 
ATOM     19  C   LIG    1        1.077  -0.407  -0.135  0.00  0.00    +0.010 A 
ATOM     20  C   LIG    1       -1.371  -0.654   0.319  0.00  0.00    +0.100 C 
ATOM     21  C   LIG    1        2.253   0.312  -0.089  0.00  0.00    +0.060 A 
ENDBRANCH   5  15
BRANCH  13  22
ATOM     22  O   LIG    1        4.715   7.837  -1.605  0.00  0.00    -0.440 OA
ATOM     23  H   LIG    1        4.388   8.619  -2.071  0.00  0.00    +0.430 HD
ENDBRANCH  13  22
BRANCH   1  24
ATOM     24  C   LIG    1        6.569   5.906  -0.112  0.00  0.00    +0.340 C 
BRANCH  24  26
ATOM     25  C   LIG    1        7.936   7.478   1.268  0.00  0.00    +0.030 C 
ATOM     26  C   LIG    1        6.603   6.732   1.175  0.00  0.00    +0.000 C 
ENDBRANCH  24  26
ENDBRANCH   1  24
TORSDOF 4
