REMARK  Name = ZINCvU0000000Iqn.0
REMARK                            x       y       z     vdW  Elec       q    Type
REMARK                         _______ _______ _______ _____ _____    ______ ____
ROOT
ATOM      1  N   LIG    1        1.214   5.631  -0.032  0.00  0.00    -0.510 N 
ATOM      2  C   LIG    1        1.710   4.379  -0.053  0.00  0.00    +0.560 A 
ATOM      3  C   LIG    1        0.805   3.278  -0.051  0.00  0.00    -0.230 A 
ATOM      4  C   LIG    1       -0.558   3.552  -0.028  0.00  0.00    +0.090 A 
ATOM      5  S   LIG    1       -1.470   2.048  -0.038  0.00  0.00    +0.210 S 
ATOM      6  C   LIG    1       -0.010   1.078  -0.064  0.00  0.00    -0.040 A 
ATOM      7  N   LIG    1       -0.981   4.832  -0.008  0.00  0.00    -0.520 NA
ATOM      8  C   LIG    1        1.078   1.846  -0.071  0.00  0.00    +0.010 A 
ATOM      9  O   LIG    1        2.915   4.191  -0.073  0.00  0.00    -0.500 OA
ATOM     10  C   LIG    1       -0.136   5.835  -0.010  0.00  0.00    +0.360 A 
ENDROOT
BRANCH   8  11
ATOM     11  C   LIG    1        2.452   1.290  -0.098  0.00  0.00    -0.040 A 
ATOM     12  C   LIG    1        3.376   1.754  -1.033  0.00  0.00    +0.060 A 
ATOM     13  C   LIG    1        4.656   1.237  -1.049  0.00  0.00    +0.000 A 
ATOM     14  C   LIG    1        5.019   0.253  -0.147  0.00  0.00    +0.010 A 
ATOM     15  C   LIG    1        4.104  -0.214   0.780  0.00  0.00    -0.010 A 
ATOM     16  C   LIG    1        2.824   0.299   0.809  0.00  0.00    +0.020 A 
ENDBRANCH   8  11
BRANCH   1  17
ATOM     17  C   LIG    1        2.125   6.778  -0.033  0.00  0.00    +0.340 C 
BRANCH  17  19
ATOM     18  C   LIG    1        2.201   8.421  -1.838  0.00  0.00    +0.070 C 
ATOM     19  C   LIG    1        2.417   7.187  -1.454  0.00  0.00    -0.070 C 
ENDBRANCH  17  19
ENDBRANCH   1  17
BRANCH  10  20
ATOM     20  S   LIG    1       -0.757   7.484   0.016  0.00  0.00    +0.100 S 
BRANCH  20  21
ATOM     21  C   LIG    1       -2.535   7.149   0.038  0.00  0.00    +0.120 C 
BRANCH  21  22
ATOM     22  C   LIG    1       -3.292   8.453   0.063  0.00  0.00    +0.540 C 
ATOM     23  N   LIG    1       -4.639   8.450   0.082  0.00  0.00    -0.660 N 
ATOM     24  H   LIG    1       -5.123   7.612   0.015  0.00  0.00    +0.420 HD
ATOM     25  O   LIG    1       -2.687   9.504   0.065  0.00  0.00    -0.500 OA
BRANCH  23  26
ATOM     26  C   LIG    1       -5.340   9.656   0.199  0.00  0.00    +0.110 A 
ATOM     27  C   LIG    1       -4.843  10.810  -0.391  0.00  0.00    +0.060 A 
ATOM     28  C   LIG    1       -5.537  11.999  -0.274  0.00  0.00    +0.030 A 
ATOM     29  C   LIG    1       -6.726  12.042   0.430  0.00  0.00    +0.040 A 
ATOM     30  C   LIG    1       -7.226  10.895   1.021  0.00  0.00    +0.000 A 
ATOM     31  C   LIG    1       -6.539   9.700   0.903  0.00  0.00    +0.080 A 
ATOM     32  F   LIG    1       -7.030   8.579   1.475  0.00  0.00    -0.140 F 
ENDBRANCH  23  26
ENDBRANCH  21  22
ENDBRANCH  20  21
ENDBRANCH  10  20
TORSDOF 7
