REMARK  Name = ZINCpk00000ebgx1.0
REMARK                            x       y       z     vdW  Elec       q    Type
REMARK                         _______ _______ _______ _____ _____    ______ ____
ROOT
ATOM      1  C   LIG    1       -3.508   3.106  -0.924  0.00  0.00    +0.420 A 
ATOM      2  N   LIG    1       -2.395   3.764  -0.743  0.00  0.00    -0.480 NA
ATOM      3  C   LIG    1       -1.218   3.132  -0.562  0.00  0.00    +0.110 A 
ATOM      4  C   LIG    1       -0.030   3.843  -0.369  0.00  0.00    +0.090 A 
ATOM      5  C   LIG    1        1.145   3.169  -0.189  0.00  0.00    +0.050 A 
ATOM      6  C   LIG    1        1.179   1.776  -0.195  0.00  0.00    +0.120 A 
ATOM      7  C   LIG    1        0.017   1.047  -0.384  0.00  0.00    +0.010 A 
ATOM      8  C   LIG    1       -1.187   1.718  -0.574  0.00  0.00    -0.150 A 
ATOM      9  C   LIG    1       -2.454   0.997  -0.774  0.00  0.00    +0.550 A 
ATOM     10  O   LIG    1       -2.493  -0.220  -0.790  0.00  0.00    -0.500 OA
ATOM     11  N   LIG    1       -3.573   1.738  -0.945  0.00  0.00    -0.650 N 
ATOM     12  H   LIG    1       -4.427   1.299  -1.084  0.00  0.00    +0.420 HD
ENDROOT
BRANCH   1  17
ATOM     13  C   LIG    1       -8.298   6.104  -1.657  0.00  0.00    +0.320 C 
ATOM     14  N   LIG    1       -7.072   5.326  -1.469  0.00  0.00    -0.490 N 
ATOM     15  C   LIG    1       -5.893   5.973  -1.276  0.00  0.00    +0.310 A 
ATOM     16  C   LIG    1       -4.743   5.287  -1.100  0.00  0.00    -0.020 A 
ATOM     17  C   LIG    1       -4.758   3.874  -1.115  0.00  0.00    +0.050 A 
ATOM     18  C   LIG    1       -5.964   3.220  -1.316  0.00  0.00    -0.060 A 
ATOM     19  C   LIG    1       -7.132   3.982  -1.490  0.00  0.00    +0.520 A 
ATOM     20  O   LIG    1       -8.203   3.423  -1.665  0.00  0.00    -0.540 OA
ENDBRANCH   1  17
BRANCH   6  21
ATOM     21  O   LIG    1        2.360   1.129  -0.013  0.00  0.00    -0.290 OA
BRANCH  21  22
ATOM     22  C   LIG    1        2.310  -0.295   0.091  0.00  0.00    +0.140 C 
ATOM     23  C   LIG    1        3.542  -0.825   0.859  0.00  0.00    +0.040 C 
ATOM     24  C   LIG    1        4.260  -1.732  -0.165  0.00  0.00    +0.210 C 
ATOM     25  O   LIG    1        3.835  -1.242  -1.455  0.00  0.00    -0.370 OA
ATOM     26  C   LIG    1        2.426  -0.945  -1.305  0.00  0.00    +0.200 C 
ENDBRANCH  21  22
ENDBRANCH   6  21
TORSDOF 3
