REMARK  Name = ZINCrg00000SjSoa.0
REMARK                            x       y       z     vdW  Elec       q    Type
REMARK                         _______ _______ _______ _____ _____    ______ ____
ROOT
ATOM      1  N   LIG    1       -2.396   4.115  -3.660  0.00  0.00    -1.130 NA
ATOM      2  S   LIG    1       -1.724   2.788  -3.795  0.00  0.00    +2.280 S 
ATOM      3  C   LIG    1       -0.235   2.808  -2.747  0.00  0.00    -0.170 C 
ATOM      4  C   LIG    1       -0.682   2.905  -1.283  0.00  0.00    +0.080 C 
ATOM      5  C   LIG    1       -1.538   1.692  -0.925  0.00  0.00    +0.080 C 
ATOM      6  C   LIG    1       -1.684   1.609   0.600  0.00  0.00    +0.310 C 
ATOM      7  N   LIG    1       -0.362   1.314   1.177  0.00  0.00    -0.680 N 
ATOM      8  C   LIG    1        0.399   0.184   0.622  0.00  0.00    +0.270 C 
ATOM      9  C   LIG    1        0.439   0.330  -0.903  0.00  0.00    +0.210 C 
ATOM     10  C   LIG    1       -2.922   1.799  -1.560  0.00  0.00    +0.110 C 
ATOM     11  O   LIG    1       -0.892   0.503  -1.395  0.00  0.00    -0.360 OA
ATOM     12  O   LIG    1       -1.452   2.584  -5.175  0.00  0.00    -0.920 OA
ATOM     13  C   LIG    1       -2.821   1.530  -3.067  0.00  0.00    -0.270 C 
ENDROOT
BRANCH   7  14
ATOM     14  C   LIG    1        0.151   2.078   2.211  0.00  0.00    +0.390 A 
ATOM     15  C   LIG    1       -0.099   1.736   3.530  0.00  0.00    -0.210 A 
ATOM     16  C   LIG    1        0.434   2.529   4.550  0.00  0.00    +0.540 A 
ATOM     17  N   LIG    1        1.179   3.608   4.249  0.00  0.00    -0.600 N 
ATOM     18  H   LIG    1        1.543   4.151   4.966  0.00  0.00    +0.430 HD
ATOM     19  C   LIG    1        1.430   3.951   2.958  0.00  0.00    +0.400 A 
ATOM     20  O   LIG    1        0.223   2.241   5.718  0.00  0.00    -0.490 OA
ATOM     21  C   LIG    1        0.942   3.215   1.938  0.00  0.00    -0.100 A 
BRANCH  15  22
ATOM     22  N   LIG    1       -0.921   0.548   3.854  0.00  0.00    +0.060 N 
ATOM     23  O   LIG    1       -1.056   0.199   5.013  0.00  0.00    -0.150 OA
ATOM     24  O   LIG    1       -1.461  -0.081   2.962  0.00  0.00    -0.160 OA
ENDBRANCH  15  22
ENDBRANCH   7  14
BRANCH   1  25
ATOM     25  C   LIG    1       -3.513   4.362  -4.327  0.00  0.00    +0.550 C 
ATOM     26  O   LIG    1       -3.991   3.509  -5.049  0.00  0.00    -0.570 OA
BRANCH  25  28
ATOM     27  C   LIG    1       -5.451   5.725  -5.059  0.00  0.00    +0.040 C 
ATOM     28  C   LIG    1       -4.191   5.701  -4.191  0.00  0.00    +0.080 C 
ENDBRANCH  25  28
ENDBRANCH   1  25
TORSDOF 4
