REMARK  Name = ZINCpe000000UVfL.0
REMARK                            x       y       z     vdW  Elec       q    Type
REMARK                         _______ _______ _______ _____ _____    ______ ____
ROOT
ATOM      1  N   LIG    1        2.318   1.088   0.095  0.00  0.00    -0.730 N 
ATOM      2  H   LIG    1        2.367   0.121   0.160  0.00  0.00    +0.400 HD
ATOM      3  C   LIG    1        1.120   1.698   0.006  0.00  0.00    +0.710 C 
ATOM      4  N   LIG    1       -0.011   0.966   0.007  0.00  0.00    -0.680 N 
ATOM      5  H   LIG    1        0.038  -0.003   0.004  0.00  0.00    +0.410 HD
ATOM      6  O   LIG    1        1.060   2.910  -0.075  0.00  0.00    -0.560 OA
ENDROOT
BRANCH   4   7
ATOM      7  C   LIG    1       -1.258   1.603   0.007  0.00  0.00    +0.210 A 
ATOM      8  C   LIG    1       -2.325   1.040   0.694  0.00  0.00    +0.020 A 
ATOM      9  C   LIG    1       -3.554   1.671   0.699  0.00  0.00    +0.080 A 
ATOM     10  C   LIG    1       -3.726   2.862   0.007  0.00  0.00    +0.070 A 
ATOM     11  C   LIG    1       -2.659   3.423  -0.686  0.00  0.00    +0.150 A 
ATOM     12  F   LIG    1       -2.826   4.582  -1.360  0.00  0.00    -0.110 F 
ATOM     13  C   LIG    1       -1.428   2.795  -0.686  0.00  0.00    +0.030 A 
BRANCH  10  14
ATOM     14  N   LIG    1       -4.976   3.499   0.008  0.00  0.00    -0.330 N 
ATOM     15  C   LIG    1       -6.106   3.087   0.621  0.00  0.00    +0.460 A 
ATOM     16  N   LIG    1       -7.032   3.975   0.367  0.00  0.00    -0.330 NA
ATOM     17  N   LIG    1       -6.566   4.915  -0.373  0.00  0.00    -0.030 NA
ATOM     18  N   LIG    1       -5.322   4.700  -0.636  0.00  0.00    -0.060 NA
ENDBRANCH  10  14
ENDBRANCH   4   7
BRANCH   1  23
ATOM     19  C   LIG    1        4.710   1.084   0.719  0.00  0.00    -0.010 C 
ATOM     20  C   LIG    1        5.970   1.432  -0.094  0.00  0.00    +0.040 C 
ATOM     21  C   LIG    1        5.529   2.431  -1.184  0.00  0.00    +0.030 C 
ATOM     22  C   LIG    1        4.014   2.160  -1.357  0.00  0.00    +0.010 C 
ATOM     23  C   LIG    1        3.548   1.884   0.094  0.00  0.00    +0.290 C 
BRANCH  19  27
ATOM     24  C   LIG    1        6.047   1.298   4.299  0.00  0.00    +0.280 C 
ATOM     25  N   LIG    1        5.865   0.908   2.899  0.00  0.00    -0.730 N 
ATOM     26  H   LIG    1        6.439   0.233   2.505  0.00  0.00    +0.400 HD
ATOM     27  C   LIG    1        4.898   1.486   2.159  0.00  0.00    +0.510 C 
ATOM     28  O   LIG    1        4.179   2.329   2.652  0.00  0.00    -0.530 OA
ENDBRANCH  19  27
ENDBRANCH   1  23
TORSDOF 4
