REMARK  Name = ZINCqH0000036cka.0
REMARK                            x       y       z     vdW  Elec       q    Type
REMARK                         _______ _______ _______ _____ _____    ______ ____
ROOT
ATOM      1  N   LIG    1       -4.400   6.330   0.600  0.00  0.00    -0.660 NA
ATOM      2  H   LIG    1       -3.466   6.622   0.843  0.00  0.00    +0.350 HD
ENDROOT
BRANCH   1   3
ATOM      3  C   LIG    1       -4.726   6.707  -0.782  0.00  0.00    +0.220 C 
BRANCH   3   9
ATOM      4  C   LIG    1       -1.012   3.318  -4.839  0.00  0.00    +0.130 A 
ATOM      5  C   LIG    1       -0.816   4.560  -4.307  0.00  0.00    -0.030 A 
ATOM      6  C   LIG    1       -1.775   5.101  -3.434  0.00  0.00    -0.010 A 
ATOM      7  C   LIG    1       -1.608   6.377  -2.868  0.00  0.00    +0.010 A 
ATOM      8  C   LIG    1       -2.557   6.870  -2.027  0.00  0.00    +0.020 A 
ATOM      9  C   LIG    1       -3.696   6.129  -1.718  0.00  0.00    -0.100 A 
ATOM     10  C   LIG    1       -3.892   4.890  -2.247  0.00  0.00    +0.070 A 
ATOM     11  C   LIG    1       -2.933   4.347  -3.119  0.00  0.00    -0.080 A 
ATOM     12  C   LIG    1       -3.105   3.074  -3.689  0.00  0.00    +0.070 A 
ATOM     13  C   LIG    1       -2.156   2.576  -4.526  0.00  0.00    -0.060 A 
BRANCH   4  15
ATOM     14  C   LIG    1       -0.344   1.492  -6.207  0.00  0.00    +0.250 C 
ATOM     15  O   LIG    1       -0.084   2.796  -5.683  0.00  0.00    -0.320 OA
ENDBRANCH   4  15
ENDBRANCH   3   9
ENDBRANCH   1   3
BRANCH   1  16
ATOM     16  C   LIG    1       -5.385   6.878   1.541  0.00  0.00    +0.190 C 
BRANCH  16  17
ATOM     17  C   LIG    1       -4.753   7.024   2.901  0.00  0.00    -0.100 A 
ATOM     18  C   LIG    1       -3.795   6.119   3.319  0.00  0.00    +0.050 A 
ATOM     19  C   LIG    1       -3.212   6.255   4.565  0.00  0.00    +0.010 A 
ATOM     20  C   LIG    1       -3.593   7.292   5.397  0.00  0.00    +0.010 A 
ATOM     21  C   LIG    1       -4.555   8.194   4.981  0.00  0.00    +0.010 A 
ATOM     22  C   LIG    1       -5.135   8.060   3.733  0.00  0.00    +0.010 A 
ENDBRANCH  16  17
BRANCH  16  23
ATOM     23  C   LIG    1       -6.565   5.944   1.634  0.00  0.00    +0.520 C 
ATOM     24  N   LIG    1       -7.796   6.436   1.877  0.00  0.00    -0.630 N 
ATOM     25  C   LIG    1       -8.005   7.885   1.949  0.00  0.00    +0.280 C 
ATOM     26  C   LIG    1       -8.925   5.523   2.070  0.00  0.00    +0.280 C 
ATOM     27  O   LIG    1       -6.407   4.751   1.489  0.00  0.00    -0.510 OA
ENDBRANCH  16  23
ENDBRANCH   1  16
TORSDOF 6
