REMARK  Name = ZINCnE000005reGN.1
REMARK                            x       y       z     vdW  Elec       q    Type
REMARK                         _______ _______ _______ _____ _____    ______ ____
ROOT
ATOM      1  N   LIG    1        1.123   3.420   0.010  0.00  0.00    -0.610 N 
ATOM      2  C   LIG    1        1.141   2.073   0.002  0.00  0.00    +0.650 C 
ATOM      3  N   LIG    1       -0.017   1.383   0.010  0.00  0.00    -0.690 NA
ATOM      4  O   LIG    1        2.202   1.479  -0.011  0.00  0.00    -0.650 OA
ENDROOT
BRANCH   3   5
ATOM      5  C   LIG    1        0.002  -0.004   0.002  0.00  0.00    +0.290 A 
ATOM      6  C   LIG    1       -1.079  -0.838   0.013  0.00  0.00    -0.230 A 
ATOM      7  C   LIG    1       -0.512  -2.128  -0.005  0.00  0.00    +0.010 A 
ATOM      8  N   LIG    1        0.781  -1.965  -0.016  0.00  0.00    -0.430 NA
ATOM      9  C   LIG    1       -1.254  -3.440  -0.005  0.00  0.00    +0.130 C 
ATOM     10  O   LIG    1        1.087  -0.795  -0.012  0.00  0.00    +0.030 OA
ENDBRANCH   3   5
BRANCH   1  12
ATOM     11  C   LIG    1       -0.587   4.377   1.474  0.00  0.00    -0.010 C 
ATOM     12  C   LIG    1       -0.156   4.135   0.026  0.00  0.00    +0.260 C 
ENDBRANCH   1  12
BRANCH   1  13
ATOM     13  C   LIG    1        2.381   4.170   0.002  0.00  0.00    +0.250 C 
ATOM     14  C   LIG    1        2.462   5.044   1.255  0.00  0.00    +0.010 C 
BRANCH  13  15
ATOM     15  C   LIG    1        2.439   5.057  -1.243  0.00  0.00    +0.050 C 
BRANCH  15  16
ATOM     16  C   LIG    1        2.483   4.191  -2.476  0.00  0.00    -0.100 A 
ATOM     17  C   LIG    1        3.700   3.791  -2.995  0.00  0.00    +0.040 A 
ATOM     18  C   LIG    1        3.743   2.992  -4.121  0.00  0.00    -0.090 A 
ATOM     19  C   LIG    1        2.563   2.601  -4.738  0.00  0.00    +0.120 A 
ATOM     20  C   LIG    1        1.343   3.009  -4.219  0.00  0.00    -0.030 A 
ATOM     21  C   LIG    1        1.306   3.803  -3.089  0.00  0.00    +0.060 A 
BRANCH  19  22
ATOM     22  O   LIG    1        2.603   1.820  -5.849  0.00  0.00    -0.320 OA
ATOM     23  C   LIG    1        3.894   1.438  -6.328  0.00  0.00    +0.230 C 
ENDBRANCH  19  22
ENDBRANCH  15  16
ENDBRANCH  13  15
ENDBRANCH   1  13
TORSDOF 6
