REMARK  Name = ZINCkj000005jmtn.1
REMARK                            x       y       z     vdW  Elec       q    Type
REMARK                         _______ _______ _______ _____ _____    ______ ____
ROOT
ATOM      1  S   LIG    1       -0.020   1.652   0.011  0.00  0.00    +2.700 S 
ATOM      2  O   LIG    1       -0.558   2.039   1.268  0.00  0.00    -0.920 OA
ATOM      3  O   LIG    1       -0.582   2.052  -1.231  0.00  0.00    -0.920 OA
ENDROOT
BRANCH   1   4
ATOM      4  C   LIG    1        1.655   2.196  -0.002  0.00  0.00    -0.790 A 
ATOM      5  C   LIG    1        2.323   2.409   1.192  0.00  0.00    +0.250 A 
ATOM      6  C   LIG    1        3.641   2.833   1.181  0.00  0.00    -0.050 A 
ATOM      7  C   LIG    1        4.288   3.052  -0.022  0.00  0.00    +0.230 A 
ATOM      8  C   LIG    1        3.619   2.844  -1.216  0.00  0.00    -0.050 A 
ATOM      9  F   LIG    1        5.573   3.470  -0.033  0.00  0.00    -0.100 F 
ATOM     10  F   LIG    1        1.690   2.199   2.367  0.00  0.00    -0.090 F 
ATOM     11  C   LIG    1        2.302   2.417  -1.206  0.00  0.00    +0.260 A 
ATOM     12  F   LIG    1        1.649   2.214  -2.371  0.00  0.00    -0.090 F 
ENDBRANCH   1   4
BRANCH   1  13
ATOM     13  N   LIG    1        0.002  -0.004   0.002  0.00  0.00    -1.120 NA
ATOM     14  H   LIG    1       -0.354  -0.490  -0.759  0.00  0.00    +0.420 HD
BRANCH  13  23
ATOM     15  C   LIG    1        2.329  -1.639  -0.375  0.00  0.00    +0.070 C 
ATOM     16  C   LIG    1        1.251  -2.008   0.646  0.00  0.00    -0.010 C 
ATOM     17  C   LIG    1        0.215  -2.922  -0.012  0.00  0.00    +0.260 C 
ATOM     18  N   LIG    1       -0.822  -3.276   0.965  0.00  0.00    -0.500 N 
ATOM     19  C   LIG    1       -1.538  -2.067   1.392  0.00  0.00    +0.260 C 
ATOM     20  C   LIG    1       -0.569  -1.121   2.104  0.00  0.00    +0.070 C 
ATOM     21  H   LIG    1       -1.473  -3.920   0.543  0.00  0.00    +0.430 HD
ATOM     22  H   LIG    1       -0.392  -3.712   1.767  0.00  0.00    +0.430 HD
ATOM     23  C   LIG    1        0.559  -0.735   1.143  0.00  0.00    +0.250 C 
ENDBRANCH  13  23
ENDBRANCH   1  13
TORSDOF 3
