REMARK  Name = ZINCrD000000C6PZ.0
REMARK                            x       y       z     vdW  Elec       q    Type
REMARK                         _______ _______ _______ _____ _____    ______ ____
ROOT
ATOM      1  C   LIG    1       -2.095   0.345   9.308  0.00  0.00    -0.100 A 
ATOM      2  C   LIG    1       -1.767   1.147   8.233  0.00  0.00    -0.010 A 
ATOM      3  C   LIG    1       -1.793   0.626   6.946  0.00  0.00    +0.160 A 
ATOM      4  C   LIG    1       -2.154  -0.700   6.745  0.00  0.00    +0.040 A 
ATOM      5  C   LIG    1       -2.474  -1.499   7.825  0.00  0.00    +0.030 A 
ATOM      6  C   LIG    1       -2.447  -0.977   9.105  0.00  0.00    +0.030 A 
ENDROOT
BRANCH   3   7
ATOM      7  N   LIG    1       -1.462   1.436   5.854  0.00  0.00    -0.690 N 
ATOM      8  H   LIG    1       -1.708   2.374   5.854  0.00  0.00    +0.400 HD
ATOM      9  C   LIG    1       -0.801   0.913   4.803  0.00  0.00    +0.710 C 
ATOM     10  N   LIG    1       -0.402   1.711   3.793  0.00  0.00    -0.620 N 
ATOM     11  C   LIG    1       -0.779   3.131   3.766  0.00  0.00    +0.250 C 
ATOM     12  C   LIG    1       -1.449   3.436   2.424  0.00  0.00    +0.020 C 
ATOM     13  C   LIG    1       -0.520   3.013   1.283  0.00  0.00    -0.010 C 
ATOM     14  C   LIG    1       -1.182   3.348  -0.056  0.00  0.00    +0.010 C 
ATOM     15  C   LIG    1       -0.263   2.923  -1.202  0.00  0.00    +0.000 C 
ATOM     16  C   LIG    1       -0.014   1.415  -1.122  0.00  0.00    +0.000 C 
ATOM     17  C   LIG    1        0.653   1.081   0.214  0.00  0.00    +0.020 C 
ATOM     18  C   LIG    1       -0.263   1.506   1.364  0.00  0.00    -0.020 C 
ATOM     19  C   LIG    1        0.418   1.179   2.696  0.00  0.00    +0.300 C 
ATOM     20  O   LIG    1       -0.564  -0.279   4.765  0.00  0.00    -0.570 OA
ENDBRANCH   3   7
BRANCH   1  21
ATOM     21  C   LIG    1       -2.067   0.910  10.705  0.00  0.00    +0.350 C 
BRANCH  21  28
ATOM     22  O   LIG    1       -4.059  -0.480  11.852  0.00  0.00    -0.530 OA
ATOM     23  C   LIG    1       -4.316   0.687  11.608  0.00  0.00    +0.630 A 
ATOM     24  N   LIG    1       -5.521   1.173  11.916  0.00  0.00    -0.550 NA
ATOM     25  C   LIG    1       -5.827   2.429  11.664  0.00  0.00    +0.430 A 
ATOM     26  C   LIG    1       -4.882   3.269  11.067  0.00  0.00    -0.140 A 
ATOM     27  C   LIG    1       -3.654   2.769  10.761  0.00  0.00    +0.360 A 
ATOM     28  N   LIG    1       -3.382   1.466  11.033  0.00  0.00    -0.510 N 
ENDBRANCH  21  28
ENDBRANCH   1  21
TORSDOF 3
