REMARK  Name = ZINCrH00000No4CL.0
REMARK                            x       y       z     vdW  Elec       q    Type
REMARK                         _______ _______ _______ _____ _____    ______ ____
ROOT
ATOM      1  C   LIG    1        6.521   5.854  -0.755  0.00  0.00    +0.250 C 
ATOM      2  N   LIG    1        5.140   5.396  -0.584  0.00  0.00    -0.550 NA
ATOM      3  C   LIG    1        4.896   4.141  -0.302  0.00  0.00    +0.360 A 
ATOM      4  S   LIG    1        6.077   2.837  -0.084  0.00  0.00    -0.030 S 
ATOM      5  C   LIG    1        4.860   1.593   0.253  0.00  0.00    -0.040 A 
ATOM      6  C   LIG    1        3.676   2.212   0.176  0.00  0.00    +0.180 A 
ATOM      7  N   LIG    1        3.673   3.552  -0.111  0.00  0.00    -0.390 N 
ENDROOT
BRANCH   6   8
ATOM      8  C   LIG    1        2.413   1.476   0.401  0.00  0.00    -0.020 A 
ATOM      9  C   LIG    1        1.339   1.646  -0.474  0.00  0.00    +0.060 A 
ATOM     10  C   LIG    1        0.160   0.959  -0.266  0.00  0.00    +0.050 A 
ATOM     11  C   LIG    1        0.040   0.098   0.811  0.00  0.00    +0.090 A 
ATOM     12  O   LIG    1       -1.118  -0.585   1.024  0.00  0.00    -0.300 OA
ATOM     13  C   LIG    1       -0.999  -1.887   1.603  0.00  0.00    +0.300 C 
ATOM     14  C   LIG    1       -0.056  -1.834   2.778  0.00  0.00    +0.490 C 
ATOM     15  N   LIG    1        0.968  -0.953   2.776  0.00  0.00    -0.660 N 
ATOM     16  H   LIG    1        1.595  -0.926   3.515  0.00  0.00    +0.420 HD
ATOM     17  O   LIG    1       -0.215  -2.581   3.720  0.00  0.00    -0.510 OA
ATOM     18  C   LIG    1        1.109  -0.078   1.690  0.00  0.00    +0.100 A 
ATOM     19  C   LIG    1        2.293   0.607   1.487  0.00  0.00    +0.050 A 
ENDBRANCH   6   8
BRANCH   7  20
ATOM     20  N   LIG    1        2.481   4.282  -0.206  0.00  0.00    -0.210 NA
ATOM     21  C   LIG    1        2.167   4.870  -1.320  0.00  0.00    +0.290 C 
BRANCH  21  22
ATOM     22  C   LIG    1        0.975   5.735  -1.386  0.00  0.00    -0.050 A 
ATOM     23  C   LIG    1        0.700   6.463  -2.546  0.00  0.00    +0.070 A 
ATOM     24  C   LIG    1       -0.421   7.265  -2.603  0.00  0.00    +0.030 A 
ATOM     25  C   LIG    1       -1.264   7.361  -1.511  0.00  0.00    +0.050 A 
ATOM     26  C   LIG    1       -0.995   6.648  -0.356  0.00  0.00    +0.040 A 
ATOM     27  C   LIG    1        0.118   5.836  -0.286  0.00  0.00    -0.060 A 
ATOM     28 BR   LIG    1        0.484   4.862   1.293  0.00  0.00    +0.000 Br
ENDBRANCH  21  22
ENDBRANCH   7  20
TORSDOF 3
