REMARK  Name = ZINCb80000002lVh.0
REMARK                            x       y       z     vdW  Elec       q    Type
REMARK                         _______ _______ _______ _____ _____    ______ ____
ROOT
ATOM      1  C   LIG    1       -1.304   3.004   0.731  0.00  0.00    -0.020 C 
ATOM      2  C   LIG    1       -0.815   1.624   1.222  0.00  0.00    +0.080 C 
ATOM      3  C   LIG    1       -0.013   1.086   0.008  0.00  0.00    +0.060 C 
ATOM      4  C   LIG    1       -0.837   1.636  -1.182  0.00  0.00    +0.260 C 
ATOM      5  N   LIG    1       -1.287   2.974  -0.743  0.00  0.00    -0.490 N 
ATOM      6  H   LIG    1       -2.216   3.153  -1.097  0.00  0.00    +0.430 HD
ATOM      7  H   LIG    1       -0.652   3.677  -1.090  0.00  0.00    +0.410 HD
ENDROOT
BRANCH   1   8
ATOM      8  C   LIG    1       -2.704   3.261   1.223  0.00  0.00    +0.500 C 
ATOM      9  O   LIG    1       -2.928   3.322   2.420  0.00  0.00    -0.610 OA
ATOM     10  O   LIG    1       -3.614   3.408   0.424  0.00  0.00    -0.670 OA
ENDBRANCH   1   8
BRANCH   1  11
ATOM     11  C   LIG    1       -0.364   4.099   1.240  0.00  0.00    +0.200 C 
BRANCH  11  13
ATOM     12  C   LIG    1       -0.405   4.137   3.885  0.00  0.00    +0.070 C 
ATOM     13  C   LIG    1       -0.387   4.120   2.711  0.00  0.00    -0.190 C 
ENDBRANCH  11  13
ENDBRANCH   1  11
TORSDOF 3
