REMARK  Name = ZINCqH0000001b9G.0
REMARK                            x       y       z     vdW  Elec       q    Type
REMARK                         _______ _______ _______ _____ _____    ______ ____
ROOT
ATOM      1  N   LIG    1       -2.421   1.028   0.040  0.00  0.00    -0.730 N 
ATOM      2  H   LIG    1       -2.409   0.066   0.160  0.00  0.00    +0.410 HD
ENDROOT
BRANCH   1   6
ATOM      3  C   LIG    1        1.156   3.169   0.013  0.00  0.00    +0.090 A 
ATOM      4  C   LIG    1        1.173   1.791   0.185  0.00  0.00    +0.060 A 
ATOM      5  C   LIG    1       -0.012   1.082   0.197  0.00  0.00    -0.040 A 
ATOM      6  C   LIG    1       -1.220   1.747   0.033  0.00  0.00    +0.210 A 
ATOM      7  C   LIG    1       -1.237   3.126  -0.134  0.00  0.00    -0.060 A 
ATOM      8  C   LIG    1       -0.052   3.834  -0.147  0.00  0.00    +0.020 A 
BRANCH   3  10
ATOM      9  C   LIG    1        3.474   3.326  -0.507  0.00  0.00    +0.510 C 
ATOM     10  N   LIG    1        2.359   3.888  -0.001  0.00  0.00    -0.670 N 
ATOM     11  H   LIG    1        2.389   4.790   0.355  0.00  0.00    +0.410 HD
ATOM     12  O   LIG    1        3.417   2.237  -1.038  0.00  0.00    -0.520 OA
BRANCH   9  14
ATOM     13  C   LIG    1        5.888   3.202  -1.061  0.00  0.00    +0.050 C 
ATOM     14  C   LIG    1        4.792   4.051  -0.415  0.00  0.00    -0.010 C 
ATOM     15  C   LIG    1        4.689   5.392  -1.144  0.00  0.00    +0.040 C 
ENDBRANCH   9  14
ENDBRANCH   3  10
ENDBRANCH   1   6
BRANCH   1  16
ATOM     16  C   LIG    1       -3.695   1.729  -0.134  0.00  0.00    +0.290 C 
BRANCH  16  17
ATOM     17  C   LIG    1       -3.976   1.904  -1.604  0.00  0.00    -0.110 A 
ATOM     18  C   LIG    1       -3.684   0.884  -2.490  0.00  0.00    +0.030 A 
ATOM     19  C   LIG    1       -3.945   1.043  -3.838  0.00  0.00    +0.000 A 
ATOM     20  C   LIG    1       -4.491   2.225  -4.301  0.00  0.00    +0.010 A 
ATOM     21  C   LIG    1       -4.779   3.247  -3.417  0.00  0.00    +0.010 A 
ATOM     22  C   LIG    1       -4.521   3.087  -2.068  0.00  0.00    +0.010 A 
ENDBRANCH  16  17
BRANCH  16  23
ATOM     23  C   LIG    1       -4.802   0.924   0.497  0.00  0.00    +0.520 C 
ATOM     24  N   LIG    1       -6.071   1.377   0.459  0.00  0.00    -0.690 N 
ATOM     25  H   LIG    1       -6.271   2.221   0.026  0.00  0.00    +0.400 HD
ATOM     26  O   LIG    1       -4.550  -0.132   1.038  0.00  0.00    -0.530 OA
BRANCH  24  27
ATOM     27  C   LIG    1       -7.146   0.593   1.072  0.00  0.00    +0.220 C 
ATOM     28  C   LIG    1       -8.452   0.452   0.288  0.00  0.00    +0.010 C 
ATOM     29  C   LIG    1       -8.397   1.347   1.528  0.00  0.00    +0.020 C 
ENDBRANCH  24  27
ENDBRANCH  16  23
ENDBRANCH   1  16
TORSDOF 7
