REMARK  Name = ZINCqH0000037ln5.0
REMARK                            x       y       z     vdW  Elec       q    Type
REMARK                         _______ _______ _______ _____ _____    ______ ____
ROOT
ATOM      1  C   LIG    1       -3.211   7.723  -0.257  0.00  0.00    +0.180 A 
ATOM      2  N   LIG    1       -1.902   7.766  -0.194  0.00  0.00    -0.440 NA
ATOM      3  C   LIG    1       -1.503   6.487  -0.075  0.00  0.00    +0.180 A 
ATOM      4  N   LIG    1       -2.569   5.745  -0.078  0.00  0.00    -0.360 NA
ATOM      5  O   LIG    1       -3.561   6.436  -0.176  0.00  0.00    +0.090 OA
ENDROOT
BRANCH   3   6
ATOM      6  C   LIG    1       -0.079   6.003   0.033  0.00  0.00    +0.070 C 
ATOM      7  C   LIG    1        0.728   6.524  -1.158  0.00  0.00    +0.080 C 
ATOM      8  C   LIG    1        0.538   6.522   1.334  0.00  0.00    +0.070 C 
BRANCH   6   9
ATOM      9  C   LIG    1       -0.060   4.497   0.034  0.00  0.00    -0.080 A 
ATOM     10  C   LIG    1       -0.627   3.798   1.083  0.00  0.00    +0.050 A 
ATOM     11  C   LIG    1       -0.609   2.416   1.084  0.00  0.00    +0.030 A 
ATOM     12  C   LIG    1       -0.024   1.732   0.034  0.00  0.00    -0.030 A 
ATOM     13  C   LIG    1        0.548   2.431  -1.014  0.00  0.00    +0.030 A 
ATOM     14 CL   LIG    1       -0.000  -0.004   0.035  0.00  0.00    -0.070 Cl
ATOM     15  C   LIG    1        0.526   3.813  -1.016  0.00  0.00    +0.040 A 
ENDBRANCH   6   9
ENDBRANCH   3   6
BRANCH   1  17
ATOM     16  C   LIG    1       -4.680   8.960  -1.825  0.00  0.00    +0.120 C 
ATOM     17  C   LIG    1       -4.142   8.899  -0.394  0.00  0.00    -0.310 C 
BRANCH  17  18
ATOM     18  S   LIG    1       -5.526   8.714   0.765  0.00  0.00    +2.410 S 
ATOM     19  O   LIG    1       -5.038   8.904   2.086  0.00  0.00    -0.910 OA
ATOM     20  O   LIG    1       -6.224   7.517   0.448  0.00  0.00    -0.910 OA
BRANCH  18  21
ATOM     21  C   LIG    1       -6.574  10.128   0.327  0.00  0.00    -0.420 C 
ATOM     22  C   LIG    1       -5.755  11.419   0.414  0.00  0.00    +0.040 C 
ATOM     23  C   LIG    1       -6.668  12.613   0.122  0.00  0.00    +0.240 C 
ATOM     24  O   LIG    1       -7.759  12.617   1.045  0.00  0.00    -0.380 OA
ATOM     25  C   LIG    1       -8.587  11.454   0.973  0.00  0.00    +0.240 C 
ATOM     26  C   LIG    1       -7.752  10.213   1.302  0.00  0.00    +0.040 C 
ENDBRANCH  18  21
ENDBRANCH  17  18
ENDBRANCH   1  17
TORSDOF 5
