REMARK  Name = ZINCrg000000nN5u.0
REMARK                            x       y       z     vdW  Elec       q    Type
REMARK                         _______ _______ _______ _____ _____    ______ ____
ROOT
ATOM      1  O   LIG    1        0.860  -1.353   1.174  0.00  0.00    -0.330 OA
ENDROOT
BRANCH   1   2
ATOM      2  C   LIG    1        0.153  -1.208   2.306  0.00  0.00    +0.480 C 
ATOM      3  O   LIG    1       -0.979  -0.789   2.261  0.00  0.00    -0.480 OA
BRANCH   2   4
ATOM      4  C   LIG    1        0.773  -1.566   3.632  0.00  0.00    +0.220 C 
BRANCH   4   5
ATOM      5  C   LIG    1        1.470  -0.358   4.203  0.00  0.00    -0.100 A 
ATOM      6  C   LIG    1        0.729   0.699   4.698  0.00  0.00    +0.040 A 
ATOM      7  C   LIG    1        1.368   1.805   5.226  0.00  0.00    +0.010 A 
ATOM      8  C   LIG    1        2.749   1.858   5.251  0.00  0.00    +0.010 A 
ATOM      9  C   LIG    1        3.491   0.804   4.751  0.00  0.00    +0.010 A 
ATOM     10  C   LIG    1        2.851  -0.304   4.227  0.00  0.00    +0.030 A 
ENDBRANCH   4   5
BRANCH   4  11
ATOM     11  N   LIG    1       -0.277  -2.009   4.559  0.00  0.00    -0.520 NA
ATOM     12  C   LIG    1        0.171  -1.898   5.954  0.00  0.00    +0.210 C 
BRANCH  11  14
ATOM     13  C   LIG    1       -1.394  -3.404   2.885  0.00  0.00    +0.020 C 
ATOM     14  C   LIG    1       -0.707  -3.380   4.252  0.00  0.00    +0.180 C 
ENDBRANCH  11  14
ENDBRANCH   4  11
ENDBRANCH   2   4
ENDBRANCH   1   2
BRANCH   1  15
ATOM     15  C   LIG    1        0.200  -0.989  -0.067  0.00  0.00    +0.180 C 
ATOM     16  C   LIG    1        0.461   0.488  -0.369  0.00  0.00    +0.060 C 
BRANCH  15  17
ATOM     17  C   LIG    1        0.741  -1.834  -1.191  0.00  0.00    +0.520 C 
ATOM     18  N   LIG    1        0.202  -1.742  -2.423  0.00  0.00    -0.730 N 
ATOM     19  H   LIG    1       -0.534  -1.131  -2.586  0.00  0.00    +0.400 HD
ATOM     20  O   LIG    1        1.660  -2.598  -0.987  0.00  0.00    -0.510 OA
BRANCH  18  21
ATOM     21  C   LIG    1        0.728  -2.564  -3.516  0.00  0.00    +0.270 C 
BRANCH  21  22
ATOM     22  C   LIG    1       -0.053  -2.268  -4.798  0.00  0.00    +0.170 C 
BRANCH  22  23
ATOM     23  N   LIG    1        0.474  -3.093  -5.893  0.00  0.00    -0.530 NA
ATOM     24  C   LIG    1        1.850  -2.701  -6.232  0.00  0.00    +0.150 C 
ATOM     25  C   LIG    1        2.380  -3.622  -7.334  0.00  0.00    +0.220 C 
ATOM     26  O   LIG    1        1.505  -3.558  -8.464  0.00  0.00    -0.380 OA
ATOM     27  C   LIG    1        0.157  -3.933  -8.170  0.00  0.00    +0.220 C 
ATOM     28  C   LIG    1       -0.396  -3.016  -7.076  0.00  0.00    +0.160 C 
ENDBRANCH  22  23
ENDBRANCH  21  22
ENDBRANCH  18  21
ENDBRANCH  15  17
ENDBRANCH   1  15
TORSDOF 10
