REMARK  Name = ZINCpk000005duaE.0
REMARK                            x       y       z     vdW  Elec       q    Type
REMARK                         _______ _______ _______ _____ _____    ______ ____
ROOT
ATOM      1  N   LIG    1       -2.433   0.975   0.019  0.00  0.00    -0.520 NA
ATOM      2  C   LIG    1       -2.463   0.212  -1.236  0.00  0.00    +0.180 C 
ATOM      3  C   LIG    1       -3.528  -0.883  -1.143  0.00  0.00    +0.030 C 
ATOM      4  C   LIG    1       -4.893  -0.240  -0.882  0.00  0.00    +0.230 C 
ATOM      5  C   LIG    1       -4.821   0.588   0.404  0.00  0.00    +0.040 C 
ATOM      6  C   LIG    1       -3.718   1.640   0.267  0.00  0.00    +0.180 C 
ENDROOT
BRANCH   4   7
ATOM      7  N   LIG    1       -5.907  -1.287  -0.734  0.00  0.00    -0.730 N 
ATOM      8  H   LIG    1       -6.146  -1.610   0.149  0.00  0.00    +0.390 HD
ATOM      9  C   LIG    1       -6.510  -1.800  -1.825  0.00  0.00    +0.590 C 
ATOM     10  O   LIG    1       -6.211  -1.394  -2.933  0.00  0.00    -0.530 OA
BRANCH   9  11
ATOM     11  C   LIG    1       -7.525  -2.848  -1.677  0.00  0.00    -0.060 A 
ATOM     12  C   LIG    1       -8.223  -3.457  -2.699  0.00  0.00    +0.050 A 
ATOM     13  C   LIG    1       -9.080  -4.392  -2.110  0.00  0.00    -0.060 A 
ATOM     14  C   LIG    1       -8.902  -4.333  -0.769  0.00  0.00    +0.200 A 
ATOM     15  N   LIG    1       -7.959  -3.399  -0.492  0.00  0.00    -0.540 N 
ATOM     16  H   LIG    1       -7.643  -3.159   0.393  0.00  0.00    +0.420 HD
ENDBRANCH   9  11
ENDBRANCH   4   7
BRANCH   1  17
ATOM     17  C   LIG    1       -1.330   1.944   0.019  0.00  0.00    +0.220 C 
BRANCH  17  20
ATOM     18  C   LIG    1        1.124   3.363   0.009  0.00  0.00    +0.280 C 
ATOM     19  N   LIG    1        1.143   1.898   0.001  0.00  0.00    -0.620 N 
ATOM     20  C   LIG    1       -0.014   1.209   0.009  0.00  0.00    +0.510 C 
ATOM     21  O   LIG    1        0.002  -0.004   0.002  0.00  0.00    -0.510 OA
BRANCH  19  22
ATOM     22  C   LIG    1        2.422   1.183  -0.015  0.00  0.00    +0.410 C 
BRANCH  22  23
ATOM     23  C   LIG    1        2.847   0.946  -1.441  0.00  0.00    -0.030 A 
ATOM     24  C   LIG    1        3.601   1.774  -2.185  0.00  0.00    -0.050 A 
ATOM     25  C   LIG    1        3.754   1.162  -3.451  0.00  0.00    -0.070 A 
ATOM     26  C   LIG    1        3.084  -0.003  -3.404  0.00  0.00    +0.170 A 
ATOM     27  O   LIG    1        2.541  -0.132  -2.182  0.00  0.00    -0.160 OA
ENDBRANCH  22  23
ENDBRANCH  19  22
ENDBRANCH  17  20
ENDBRANCH   1  17
TORSDOF 6
