REMARK  Name = ZINCpk00000KfKSB.0
REMARK                            x       y       z     vdW  Elec       q    Type
REMARK                         _______ _______ _______ _____ _____    ______ ____
ROOT
ATOM      1  C   LIG    1        3.363   6.517   5.230  0.00  0.00    +0.450 A 
ATOM      2  C   LIG    1        2.726   5.748   4.262  0.00  0.00    -0.160 A 
ATOM      3  C   LIG    1        3.433   5.422   3.108  0.00  0.00    +0.380 A 
ATOM      4  N   LIG    1        4.681   5.865   2.969  0.00  0.00    -0.600 NA
ATOM      5  C   LIG    1        5.248   6.596   3.907  0.00  0.00    +0.560 A 
ATOM      6  N   LIG    1        4.614   6.921   5.015  0.00  0.00    -0.590 NA
ENDROOT
BRANCH   3   7
ATOM      7  N   LIG    1        2.844   4.654   2.116  0.00  0.00    -0.450 N 
ATOM      8  C   LIG    1        1.659   5.341   1.535  0.00  0.00    +0.190 C 
ATOM      9  C   LIG    1        1.477   4.642   0.164  0.00  0.00    +0.040 C 
ATOM     10  C   LIG    1        2.933   4.408  -0.301  0.00  0.00    +0.020 C 
ATOM     11  C   LIG    1        3.776   4.442   0.987  0.00  0.00    +0.170 C 
BRANCH  11  12
ATOM     12  C   LIG    1        4.513   3.112   1.162  0.00  0.00    +0.190 C 
BRANCH  12  13
ATOM     13  O   LIG    1        3.576   2.035   1.090  0.00  0.00    -0.560 OA
ATOM     14  H   LIG    1        3.974   1.160   1.193  0.00  0.00    +0.370 HD
ENDBRANCH  12  13
ENDBRANCH  11  12
ENDBRANCH   3   7
BRANCH   1  15
ATOM     15  N   LIG    1        2.703   6.863   6.399  0.00  0.00    -0.710 N 
ATOM     16  H   LIG    1        3.153   7.403   7.068  0.00  0.00    +0.410 HD
BRANCH  15  21
ATOM     17  C   LIG    1       -2.354   7.295   8.220  0.00  0.00    +0.520 C 
ATOM     18  N   LIG    1       -1.309   6.705   7.606  0.00  0.00    -0.620 N 
ATOM     19  C   LIG    1       -0.379   5.856   8.362  0.00  0.00    +0.290 C 
ATOM     20  C   LIG    1        1.049   6.359   8.129  0.00  0.00    +0.030 C 
ATOM     21  C   LIG    1        1.327   6.413   6.625  0.00  0.00    +0.240 C 
ATOM     22  C   LIG    1        0.356   7.390   5.959  0.00  0.00    +0.000 C 
ATOM     23  C   LIG    1       -1.080   6.898   6.168  0.00  0.00    +0.280 C 
ATOM     24  O   LIG    1       -3.070   8.055   7.603  0.00  0.00    -0.530 OA
BRANCH  17  26
ATOM     25  C   LIG    1       -3.506   8.126  10.253  0.00  0.00    +0.050 C 
ATOM     26  C   LIG    1       -2.632   7.012   9.674  0.00  0.00    -0.030 C 
ATOM     27  C   LIG    1       -3.362   5.673   9.801  0.00  0.00    +0.050 C 
ENDBRANCH  17  26
ENDBRANCH  15  21
ENDBRANCH   1  15
TORSDOF 6
