REMARK  Name = ZINCqH0000033EXJ.0
REMARK                            x       y       z     vdW  Elec       q    Type
REMARK                         _______ _______ _______ _____ _____    ______ ____
ROOT
ATOM      1  C   LIG    1        5.443  -2.701   4.372  0.00  0.00    +0.570 C 
ATOM      2  N   LIG    1        4.988  -2.269   3.179  0.00  0.00    -0.610 N 
ATOM      3  C   LIG    1        5.006  -3.149   2.001  0.00  0.00    +0.280 C 
ATOM      4  C   LIG    1        5.683  -2.403   0.847  0.00  0.00    +0.170 C 
ATOM      5  N   LIG    1        5.015  -1.110   0.646  0.00  0.00    -0.530 NA
ATOM      6  C   LIG    1        5.156  -0.248   1.827  0.00  0.00    +0.180 C 
ATOM      7  C   LIG    1        4.458  -0.906   3.022  0.00  0.00    +0.300 C 
ATOM      8  O   LIG    1        5.511  -1.931   5.311  0.00  0.00    -0.530 OA
ENDROOT
BRANCH   1  12
ATOM      9  C   LIG    1        6.640  -6.752   4.848  0.00  0.00    +0.100 A 
ATOM     10  C   LIG    1        5.607  -6.430   3.976  0.00  0.00    -0.030 A 
ATOM     11  C   LIG    1        5.213  -5.117   3.824  0.00  0.00    +0.040 A 
ATOM     12  C   LIG    1        5.860  -4.107   4.539  0.00  0.00    -0.090 A 
ATOM     13  C   LIG    1        6.898  -4.430   5.416  0.00  0.00    +0.010 A 
ATOM     14 CL   LIG    1        4.808  -7.685   3.081  0.00  0.00    -0.030 Cl
ATOM     15  C   LIG    1        7.285  -5.748   5.569  0.00  0.00    +0.120 A 
BRANCH  15  16
ATOM     16  O   LIG    1        8.295  -6.065   6.422  0.00  0.00    -0.300 OA
ATOM     17  C   LIG    1        8.911  -4.987   7.128  0.00  0.00    +0.250 C 
ENDBRANCH  15  16
BRANCH   9  18
ATOM     18  O   LIG    1        7.021  -8.046   4.999  0.00  0.00    -0.310 OA
BRANCH  18  20
ATOM     19  C   LIG    1        6.921 -10.227   6.037  0.00  0.00    +0.070 C 
ATOM     20  C   LIG    1        6.362  -8.803   6.017  0.00  0.00    +0.180 C 
ENDBRANCH  18  20
ENDBRANCH   9  18
ENDBRANCH   1  12
BRANCH   5  21
ATOM     21  C   LIG    1        5.520  -0.438  -0.559  0.00  0.00    +0.280 C 
BRANCH  21  22
ATOM     22  C   LIG    1        4.652   0.754  -0.870  0.00  0.00    -0.170 A 
ATOM     23  C   LIG    1        4.851   1.990  -0.411  0.00  0.00    +0.000 A 
ATOM     24  C   LIG    1        3.921   2.926  -0.833  0.00  0.00    +0.000 A 
ATOM     25  C   LIG    1        2.969   2.449  -1.635  0.00  0.00    -0.050 A 
ATOM     26  S   LIG    1        3.224   0.728  -1.896  0.00  0.00    +0.120 S 
ENDBRANCH  21  22
ENDBRANCH   5  21
TORSDOF 6
