REMARK  Name = ZINCrH000004kSYj.0
REMARK                            x       y       z     vdW  Elec       q    Type
REMARK                         _______ _______ _______ _____ _____    ______ ____
ROOT
ATOM      1  S   LIG    1       -3.997   3.825   4.743  0.00  0.00    +2.700 S 
ATOM      2  O   LIG    1       -4.661   3.621   5.983  0.00  0.00    -0.930 OA
ATOM      3  O   LIG    1       -4.610   3.584   3.485  0.00  0.00    -0.940 OA
ENDROOT
BRANCH   1   6
ATOM      4  C   LIG    1       -0.802   1.632   3.645  0.00  0.00    -0.120 A 
ATOM      5  C   LIG    1       -1.949   2.427   3.609  0.00  0.00    +0.200 A 
ATOM      6  C   LIG    1       -2.544   2.829   4.787  0.00  0.00    -0.690 A 
ATOM      7  C   LIG    1       -1.999   2.457   6.004  0.00  0.00    +0.180 A 
ATOM      8  C   LIG    1       -0.859   1.674   6.048  0.00  0.00    +0.040 A 
ATOM      9  C   LIG    1       -0.257   1.259   4.877  0.00  0.00    +0.010 A 
ATOM     10 BR   LIG    1        1.301   0.189   4.939  0.00  0.00    +0.010 Br
BRANCH   4  11
ATOM     11  C   LIG    1       -0.164   1.193   2.388  0.00  0.00    +0.500 C 
ATOM     12  O   LIG    1        0.837   0.505   2.423  0.00  0.00    -0.470 OA
BRANCH  11  14
ATOM     13  C   LIG    1       -0.013   1.086   0.008  0.00  0.00    +0.290 C 
ATOM     14  O   LIG    1       -0.692   1.554   1.203  0.00  0.00    -0.350 OA
ENDBRANCH  11  14
ENDBRANCH   4  11
ENDBRANCH   1   6
BRANCH   1  15
ATOM     15  N   LIG    1       -3.507   5.407   4.730  0.00  0.00    -1.000 NA
ATOM     16  C   LIG    1       -3.229   6.210   3.525  0.00  0.00    +0.280 C 
ATOM     17  C   LIG    1       -2.257   7.318   4.003  0.00  0.00    +0.040 C 
ATOM     18  C   LIG    1       -2.809   7.626   5.420  0.00  0.00    +0.050 C 
ATOM     19  C   LIG    1       -3.283   6.244   5.917  0.00  0.00    +0.280 C 
BRANCH  19  20
ATOM     20  C   LIG    1       -4.567   6.388   6.692  0.00  0.00    -0.060 A 
ATOM     21  C   LIG    1       -5.764   6.557   6.021  0.00  0.00    -0.030 A 
ATOM     22  C   LIG    1       -6.944   6.689   6.730  0.00  0.00    +0.050 A 
ATOM     23  C   LIG    1       -6.930   6.653   8.111  0.00  0.00    -0.070 A 
ATOM     24  C   LIG    1       -5.730   6.483   8.787  0.00  0.00    +0.130 A 
ATOM     25  C   LIG    1       -4.548   6.345   8.073  0.00  0.00    +0.000 A 
BRANCH  24  26
ATOM     26  O   LIG    1       -5.713   6.446  10.145  0.00  0.00    -0.320 OA
ATOM     27  C   LIG    1       -6.968   6.589  10.813  0.00  0.00    +0.250 C 
ENDBRANCH  24  26
ENDBRANCH  19  20
ENDBRANCH   1  15
TORSDOF 6
