REMARK  Name = ZINCqH0000036tgH.0
REMARK                            x       y       z     vdW  Elec       q    Type
REMARK                         _______ _______ _______ _____ _____    ______ ____
ROOT
ATOM      1  N   LIG    1       -0.867   3.618   1.474  0.00  0.00    -0.630 N 
ATOM      2  H   LIG    1       -0.513   4.257   0.835  0.00  0.00    +0.430 HD
ATOM      3  C   LIG    1       -0.728   2.296   1.252  0.00  0.00    +0.530 C 
ATOM      4  O   LIG    1       -1.170   1.497   2.050  0.00  0.00    -0.440 OA
ENDROOT
BRANCH   1  10
ATOM      5  C   LIG    1       -3.779   5.429   6.593  0.00  0.00    -0.650 A 
ATOM      6  C   LIG    1       -3.808   4.045   6.672  0.00  0.00    +0.140 A 
ATOM      7  C   LIG    1       -3.243   3.277   5.685  0.00  0.00    +0.070 A 
ATOM      8  C   LIG    1       -2.621   3.885   4.574  0.00  0.00    +0.160 A 
ATOM      9  N   LIG    1       -2.024   3.301   3.517  0.00  0.00    -0.470 NA
ATOM     10  C   LIG    1       -1.515   4.065   2.613  0.00  0.00    +0.350 A 
ATOM     11  S   LIG    1       -1.767   5.755   3.028  0.00  0.00    +0.090 S 
ATOM     12  C   LIG    1       -2.598   5.282   4.508  0.00  0.00    -0.210 A 
ATOM     13  C   LIG    1       -3.177   6.045   5.518  0.00  0.00    +0.190 A 
BRANCH   5  15
ATOM     14  C   LIG    1       -6.226   6.634   7.333  0.00  0.00    -0.250 C 
ATOM     15  S   LIG    1       -4.509   6.400   7.870  0.00  0.00    +2.500 S 
ATOM     16  O   LIG    1       -3.800   7.631   7.823  0.00  0.00    -0.930 OA
ATOM     17  O   LIG    1       -4.455   5.566   9.019  0.00  0.00    -0.930 OA
ENDBRANCH   5  15
ENDBRANCH   1  10
BRANCH   3  18
ATOM     18  C   LIG    1       -0.022   1.810   0.012  0.00  0.00    +0.100 C 
BRANCH  18  19
ATOM     19  S   LIG    1        0.002  -0.004   0.002  0.00  0.00    +0.010 S 
BRANCH  19  20
ATOM     20  C   LIG    1        0.852  -0.381  -1.495  0.00  0.00    -0.090 A 
ATOM     21  C   LIG    1        1.070  -1.704  -1.857  0.00  0.00    +0.070 A 
ATOM     22  C   LIG    1        1.736  -1.998  -3.031  0.00  0.00    +0.060 A 
ATOM     23  C   LIG    1        2.185  -0.976  -3.848  0.00  0.00    +0.060 A 
ATOM     24  C   LIG    1        1.970   0.347  -3.490  0.00  0.00    +0.090 A 
ATOM     25  F   LIG    1        2.410   1.344  -4.289  0.00  0.00    -0.120 F 
ATOM     26  F   LIG    1        2.836  -1.266  -4.996  0.00  0.00    -0.120 F 
ATOM     27  C   LIG    1        1.299   0.645  -2.318  0.00  0.00    -0.010 A 
ENDBRANCH  19  20
ENDBRANCH  18  19
ENDBRANCH   3  18
TORSDOF 5
