REMARK  Name = ZINCrD0000071FaR.0
REMARK                            x       y       z     vdW  Elec       q    Type
REMARK                         _______ _______ _______ _____ _____    ______ ____
ROOT
ATOM      1  N   LIG    1        3.561  -5.298  -5.420  0.00  0.00    -0.520 N 
ATOM      2  C   LIG    1        3.505  -6.582  -5.795  0.00  0.00    +0.530 C 
ATOM      3  C   LIG    1        3.946  -6.700  -7.238  0.00  0.00    +0.100 C 
ATOM      4  C   LIG    1        4.279  -5.247  -7.633  0.00  0.00    +0.150 C 
ATOM      5  O   LIG    1        3.154  -7.505  -5.091  0.00  0.00    -0.470 OA
ATOM      6  C   LIG    1        3.987  -4.460  -6.374  0.00  0.00    +0.540 C 
ATOM      7  O   LIG    1        4.117  -3.262  -6.248  0.00  0.00    -0.450 OA
ENDROOT
BRANCH   1  11
ATOM      8  C   LIG    1        2.513  -4.015  -1.591  0.00  0.00    +0.150 A 
ATOM      9  C   LIG    1        3.830  -3.924  -2.017  0.00  0.00    -0.060 A 
ATOM     10  C   LIG    1        4.179  -4.353  -3.282  0.00  0.00    +0.070 A 
ATOM     11  C   LIG    1        3.209  -4.867  -4.132  0.00  0.00    +0.070 A 
ATOM     12  C   LIG    1        1.890  -4.954  -3.707  0.00  0.00    +0.070 A 
ATOM     13  C   LIG    1        1.544  -4.529  -2.440  0.00  0.00    +0.000 A 
BRANCH   8  14
ATOM     14  O   LIG    1        2.172  -3.596  -0.344  0.00  0.00    -0.310 OA
BRANCH  14  15
ATOM     15  C   LIG    1        3.221  -3.079   0.477  0.00  0.00    +0.180 C 
BRANCH  15  17
ATOM     16  C   LIG    1        3.772  -2.107   2.712  0.00  0.00    +0.040 C 
ATOM     17  C   LIG    1        2.649  -2.662   1.833  0.00  0.00    +0.020 C 
ENDBRANCH  15  17
ENDBRANCH  14  15
ENDBRANCH   8  14
ENDBRANCH   1  11
BRANCH   4  18
ATOM     18  N   LIG    1        3.416  -4.799  -8.734  0.00  0.00    -0.490 NA
BRANCH  18  19
ATOM     19  C   LIG    1        3.655  -3.384  -9.048  0.00  0.00    +0.090 C 
ATOM     20  C   LIG    1        2.723  -2.352  -8.409  0.00  0.00    +0.050 C 
ATOM     21  C   LIG    1        2.609  -2.664  -9.903  0.00  0.00    +0.040 C 
ENDBRANCH  18  19
BRANCH  18  22
ATOM     22  C   LIG    1        3.602  -5.641  -9.924  0.00  0.00    +0.310 C 
BRANCH  22  23
ATOM     23  C   LIG    1        2.445  -5.438 -10.868  0.00  0.00    -0.010 A 
ATOM     24  C   LIG    1        2.431  -4.612 -11.929  0.00  0.00    -0.040 A 
ATOM     25  C   LIG    1        1.157  -4.738 -12.529  0.00  0.00    -0.070 A 
ATOM     26  C   LIG    1        0.465  -5.627 -11.793  0.00  0.00    +0.160 A 
ATOM     27  O   LIG    1        1.250  -6.048 -10.788  0.00  0.00    -0.170 OA
ENDBRANCH  22  23
ENDBRANCH  18  22
ENDBRANCH   4  18
TORSDOF 8
