REMARK  Name = ZINCpk000004APdr.0
REMARK                            x       y       z     vdW  Elec       q    Type
REMARK                         _______ _______ _______ _____ _____    ______ ____
ROOT
ATOM      1  C   LIG    1       -7.691   7.972  -0.761  0.00  0.00    +0.550 C 
ATOM      2  N   LIG    1       -7.931   6.753  -1.282  0.00  0.00    -0.550 N 
ATOM      3  C   LIG    1       -9.161   6.496  -2.043  0.00  0.00    +0.280 C 
ATOM      4  C   LIG    1       -9.737   5.156  -1.567  0.00  0.00    +0.020 C 
ATOM      5  C   LIG    1       -8.740   4.045  -1.897  0.00  0.00    +0.080 C 
ATOM      6  C   LIG    1       -7.368   4.399  -1.386  0.00  0.00    -0.130 A 
ATOM      7  C   LIG    1       -6.445   3.389  -1.203  0.00  0.00    +0.100 A 
ATOM      8  C   LIG    1       -5.165   3.685  -0.730  0.00  0.00    -0.160 A 
ATOM      9  C   LIG    1       -4.815   5.009  -0.451  0.00  0.00    +0.060 A 
ATOM     10  C   LIG    1       -5.737   6.013  -0.638  0.00  0.00    +0.010 A 
ATOM     11  C   LIG    1       -7.015   5.714  -1.105  0.00  0.00    +0.180 A 
ATOM     12  O   LIG    1       -6.647   8.189  -0.175  0.00  0.00    -0.520 OA
ENDROOT
BRANCH   8  13
ATOM     13  C   LIG    1       -4.182   2.602  -0.532  0.00  0.00    +0.570 C 
ATOM     14  N   LIG    1       -2.871   2.895  -0.420  0.00  0.00    -0.600 N 
ATOM     15  C   LIG    1       -2.439   4.290  -0.309  0.00  0.00    +0.310 C 
ATOM     16  O   LIG    1       -4.554   1.447  -0.468  0.00  0.00    -0.540 OA
BRANCH  14  17
ATOM     17  C   LIG    1       -1.879   1.817  -0.410  0.00  0.00    +0.250 C 
ATOM     18  C   LIG    1       -0.917   1.854  -1.609  0.00  0.00    +0.050 C 
ATOM     19  C   LIG    1        0.201   1.470  -0.624  0.00  0.00    -0.020 C 
ATOM     20  C   LIG    1       -0.656   2.113   0.479  0.00  0.00    +0.050 C 
BRANCH  19  21
ATOM     21  C   LIG    1        1.501   2.190  -0.876  0.00  0.00    +0.530 C 
ATOM     22  O   LIG    1        1.595   2.964  -1.805  0.00  0.00    -0.540 OA
ATOM     23  N   LIG    1        2.558   1.973  -0.069  0.00  0.00    -0.850 N 
ATOM     24  H   LIG    1        3.395   2.436  -0.231  0.00  0.00    +0.400 HD
ATOM     25  H   LIG    1        2.482   1.353   0.674  0.00  0.00    +0.400 HD
ENDBRANCH  19  21
ENDBRANCH  14  17
ENDBRANCH   8  13
BRANCH   1  27
ATOM     26  C   LIG    1       -8.413  10.272  -0.478  0.00  0.00    +0.160 C 
ATOM     27  C   LIG    1       -8.691   9.042  -0.901  0.00  0.00    -0.100 C 
ENDBRANCH   1  27
TORSDOF 4
