REMARK  Name = ZINCqH0000003DAC.0
REMARK                            x       y       z     vdW  Elec       q    Type
REMARK                         _______ _______ _______ _____ _____    ______ ____
ROOT
ATOM      1  N   LIG    1        3.418   0.226   0.775  0.00  0.00    -0.710 N 
ATOM      2  H   LIG    1        3.899   1.060   0.658  0.00  0.00    +0.400 HD
ATOM      3  C   LIG    1        3.060  -0.177   2.011  0.00  0.00    +0.520 C 
ATOM      4  O   LIG    1        2.459  -1.220   2.157  0.00  0.00    -0.540 OA
ENDROOT
BRANCH   1   7
ATOM      5  C   LIG    1        3.099  -0.553  -2.510  0.00  0.00    +0.160 C 
ATOM      6  C   LIG    1        4.201  -0.662  -1.442  0.00  0.00    +0.010 C 
ATOM      7  C   LIG    1        3.081  -0.595  -0.390  0.00  0.00    +0.250 C 
ATOM      8  C   LIG    1        2.247   0.145  -1.443  0.00  0.00    -0.080 C 
ATOM      9  C   LIG    1        0.778  -0.275  -1.463  0.00  0.00    +0.030 C 
ATOM     10  C   LIG    1        0.064   0.332  -0.252  0.00  0.00    +0.010 C 
ATOM     11  C   LIG    1        0.208   1.854  -0.287  0.00  0.00    +0.000 C 
ATOM     12  C   LIG    1        1.687   2.234  -0.202  0.00  0.00    +0.000 C 
ATOM     13  C   LIG    1        2.431   1.661  -1.411  0.00  0.00    +0.050 C 
BRANCH   5  14
ATOM     14  O   LIG    1        3.447   0.291  -3.609  0.00  0.00    -0.370 OA
BRANCH  14  16
ATOM     15  C   LIG    1        3.981   0.595  -5.946  0.00  0.00    +0.040 C 
ATOM     16  C   LIG    1        3.611  -0.403  -4.847  0.00  0.00    +0.160 C 
ENDBRANCH  14  16
ENDBRANCH   5  14
ENDBRANCH   1   7
BRANCH   3  17
ATOM     17  C   LIG    1        3.407   0.667   3.209  0.00  0.00    +0.080 C 
BRANCH  17  18
ATOM     18  C   LIG    1        2.890  -0.012   4.479  0.00  0.00    +0.180 C 
BRANCH  18  19
ATOM     19  C   LIG    1        3.237   0.833   5.678  0.00  0.00    +0.290 A 
ATOM     20  N   LIG    1        4.436   1.234   5.985  0.00  0.00    -0.490 NA
ATOM     21  C   LIG    1        4.392   1.974   7.122  0.00  0.00    +0.050 A 
ATOM     22  C   LIG    1        5.362   2.635   7.880  0.00  0.00    +0.070 A 
ATOM     23  C   LIG    1        4.999   3.315   9.008  0.00  0.00    +0.000 A 
ATOM     24  C   LIG    1        3.672   3.359   9.411  0.00  0.00    +0.030 A 
ATOM     25  C   LIG    1        2.697   2.714   8.679  0.00  0.00    +0.010 A 
ATOM     26  C   LIG    1        3.048   2.018   7.530  0.00  0.00    +0.050 A 
ATOM     27  N   LIG    1        2.342   1.291   6.593  0.00  0.00    -0.600 N 
ATOM     28  H   LIG    1        1.384   1.134   6.590  0.00  0.00    +0.420 HD
ENDBRANCH  18  19
ENDBRANCH  17  18
ENDBRANCH   3  17
TORSDOF 6
