REMARK  Name = ZINCrg000000sX5I.0
REMARK                            x       y       z     vdW  Elec       q    Type
REMARK                         _______ _______ _______ _____ _____    ______ ____
ROOT
ATOM      1  N   LIG    1       -0.215   1.550  -1.549  0.00  0.00    -0.500 NA
ATOM      2  C   LIG    1        0.117   1.061  -0.203  0.00  0.00    +0.210 C 
ATOM      3  C   LIG    1       -0.391   2.060   0.839  0.00  0.00    +0.220 C 
ATOM      4  N   LIG    1        0.219   3.374   0.593  0.00  0.00    -0.450 N 
ATOM      5  C   LIG    1       -0.113   3.862  -0.753  0.00  0.00    +0.230 C 
ATOM      6  C   LIG    1        0.395   2.864  -1.795  0.00  0.00    +0.210 C 
ENDROOT
BRANCH   4   7
ATOM      7  C   LIG    1       -0.163   4.287   1.560  0.00  0.00    +0.430 A 
ATOM      8  N   LIG    1       -1.033   5.262   1.414  0.00  0.00    -0.350 NA
ATOM      9  N   LIG    1       -1.157   5.922   2.509  0.00  0.00    -0.020 NA
ATOM     10  N   LIG    1       -0.385   5.434   3.417  0.00  0.00    -0.080 NA
ATOM     11  N   LIG    1        0.294   4.349   2.835  0.00  0.00    -0.330 N 
BRANCH  11  12
ATOM     12  C   LIG    1        1.241   3.511   3.442  0.00  0.00    +0.120 A 
ATOM     13  C   LIG    1        1.109   3.169   4.781  0.00  0.00    +0.040 A 
ATOM     14  C   LIG    1        2.040   2.340   5.375  0.00  0.00    +0.030 A 
ATOM     15  C   LIG    1        3.108   1.859   4.641  0.00  0.00    +0.030 A 
ATOM     16  C   LIG    1        3.245   2.203   3.308  0.00  0.00    +0.040 A 
ATOM     17  C   LIG    1        2.314   3.027   2.707  0.00  0.00    +0.040 A 
ENDBRANCH  11  12
ENDBRANCH   4   7
BRANCH   1  18
ATOM     18  C   LIG    1        0.190   0.580  -2.576  0.00  0.00    +0.230 C 
BRANCH  18  19
ATOM     19  C   LIG    1       -0.242   1.075  -3.932  0.00  0.00    -0.080 A 
ATOM     20  C   LIG    1        0.459   2.092  -4.553  0.00  0.00    +0.010 A 
ATOM     21  C   LIG    1        0.066   2.542  -5.799  0.00  0.00    +0.000 A 
ATOM     22  C   LIG    1       -1.036   1.983  -6.420  0.00  0.00    +0.010 A 
ATOM     23  C   LIG    1       -1.740   0.969  -5.797  0.00  0.00    +0.010 A 
ATOM     24  C   LIG    1       -1.343   0.515  -4.553  0.00  0.00    +0.040 A 
ENDBRANCH  18  19
BRANCH  18  28
ATOM     25  N   LIG    1        2.290  -0.423  -3.414  0.00  0.00    -0.850 N 
ATOM     26  H   LIG    1        3.255  -0.525  -3.400  0.00  0.00    +0.400 HD
ATOM     27  H   LIG    1        1.759  -0.928  -4.049  0.00  0.00    +0.400 HD
ATOM     28  C   LIG    1        1.689   0.422  -2.553  0.00  0.00    +0.490 C 
ATOM     29  O   LIG    1        2.354   1.054  -1.760  0.00  0.00    -0.530 OA
ENDBRANCH  18  28
ENDBRANCH   1  18
TORSDOF 5
