REMARK  Name = ZINCAx0000000d1y.0
REMARK                            x       y       z     vdW  Elec       q    Type
REMARK                         _______ _______ _______ _____ _____    ______ ____
ROOT
ATOM      1  C   LIG    1       -0.129   1.716   0.032  0.00  0.00    +0.270 C 
ENDROOT
BRANCH   1   5
ATOM      2  C   LIG    1       -1.426   4.624  -1.747  0.00  0.00    +0.270 C 
ATOM      3  C   LIG    1       -2.630   3.917  -1.070  0.00  0.00    +0.050 C 
ATOM      4  C   LIG    1       -2.187   2.439  -1.030  0.00  0.00    +0.220 C 
ATOM      5  N   LIG    1       -0.715   2.422  -1.115  0.00  0.00    -0.490 NA
ATOM      6  C   LIG    1       -0.231   3.817  -1.182  0.00  0.00    +0.190 C 
BRANCH   2   9
ATOM      7  C   LIG    1       -1.284   8.209  -1.359  0.00  0.00    -0.100 A 
ATOM      8  C   LIG    1       -1.387   7.103  -2.157  0.00  0.00    +0.140 A 
ATOM      9  N   LIG    1       -1.349   6.030  -1.342  0.00  0.00    -0.350 N 
ATOM     10  N   LIG    1       -1.227   6.517  -0.034  0.00  0.00    -0.050 NA
ATOM     11  C   LIG    1       -1.517   7.088  -3.658  0.00  0.00    +0.190 C 
ATOM     12  N   LIG    1       -1.186   7.803  -0.081  0.00  0.00    -0.180 NA
BRANCH   7  13
ATOM     13  C   LIG    1       -1.281   9.608  -1.823  0.00  0.00    +0.560 C 
ATOM     14  O   LIG    1       -1.376   9.855  -3.008  0.00  0.00    -0.500 OA
BRANCH  13  16
ATOM     15  C   LIG    1       -1.178  11.965  -1.458  0.00  0.00    +0.290 C 
ATOM     16  O   LIG    1       -1.174  10.612  -0.931  0.00  0.00    -0.340 OA
ENDBRANCH  13  16
ENDBRANCH   7  13
ENDBRANCH   2   9
ENDBRANCH   1   5
BRANCH   1  17
ATOM     17  C   LIG    1       -0.530   2.411   1.308  0.00  0.00    +0.150 A 
ATOM     18  N   LIG    1       -1.739   2.783   1.650  0.00  0.00    -0.290 NA
ATOM     19  N   LIG    1       -1.671   3.342   2.809  0.00  0.00    -0.070 NA
ATOM     20  N   LIG    1       -0.449   3.336   3.215  0.00  0.00    -0.090 NA
ATOM     21  N   LIG    1        0.284   2.766   2.319  0.00  0.00    -0.300 N 
BRANCH  21  22
ATOM     22  C   LIG    1        1.731   2.549   2.389  0.00  0.00    +0.350 C 
BRANCH  22  23
ATOM     23  C   LIG    1        2.013   1.184   3.022  0.00  0.00    -0.040 C 
ATOM     24  C   LIG    1        3.527   0.878   2.998  0.00  0.00    +0.040 C 
ATOM     25  C   LIG    1        3.907   0.747   4.489  0.00  0.00    +0.200 C 
ATOM     26  O   LIG    1        2.674   0.392   5.154  0.00  0.00    -0.370 OA
ATOM     27  C   LIG    1        1.653   1.200   4.524  0.00  0.00    +0.210 C 
ENDBRANCH  22  23
ENDBRANCH  21  22
ENDBRANCH   1  17
BRANCH   1  28
ATOM     28  C   LIG    1       -0.638   0.273   0.057  0.00  0.00    +0.040 C 
BRANCH  28  29
ATOM     29  C   LIG    1       -0.126  -0.469  -1.179  0.00  0.00    +0.050 C 
ATOM     30  C   LIG    1        1.400  -0.583  -1.114  0.00  0.00    +0.010 C 
ATOM     31  C   LIG    1        1.901  -1.403  -2.304  0.00  0.00    +0.000 C 
ATOM     32  C   LIG    1        1.346  -2.826  -2.224  0.00  0.00    +0.000 C 
ATOM     33  C   LIG    1       -0.182  -2.784  -2.325  0.00  0.00    +0.050 C 
ATOM     34  C   LIG    1       -0.730  -1.877  -1.219  0.00  0.00    -0.110 C 
ATOM     35  C   LIG    1       -2.199  -2.032  -0.831  0.00  0.00    +0.000 C 
ATOM     36  C   LIG    1       -1.101  -2.528   0.113  0.00  0.00    +0.000 C 
ENDBRANCH  28  29
ENDBRANCH   1  28
TORSDOF 9
