REMARK  Name = ZINCCC000000091N.0
REMARK                            x       y       z     vdW  Elec       q    Type
REMARK                         _______ _______ _______ _____ _____    ______ ____
ROOT
ATOM      1  N   LIG    1        0.069  -2.820  -0.026  0.00  0.00    -0.560 N 
ATOM      2  C   LIG    1        1.235  -2.147  -0.048  0.00  0.00    +0.580 A 
ATOM      3  C   LIG    1        1.245  -0.676  -0.048  0.00  0.00    -0.180 A 
ATOM      4  C   LIG    1        2.424   0.054  -0.070  0.00  0.00    +0.160 A 
ATOM      5  C   LIG    1        2.385   1.444  -0.068  0.00  0.00    +0.010 A 
ATOM      6  C   LIG    1        1.203   2.125  -0.045  0.00  0.00    +0.120 A 
ATOM      7  C   LIG    1       -0.015   1.423  -0.022  0.00  0.00    -0.060 A 
ATOM      8  C   LIG    1       -1.255   2.082  -0.004  0.00  0.00    +0.120 A 
ATOM      9  C   LIG    1       -2.425   1.348   0.024  0.00  0.00    +0.120 A 
ATOM     10  C   LIG    1       -2.404  -0.048   0.023  0.00  0.00    +0.140 A 
ATOM     11  C   LIG    1       -1.195  -0.726  -0.001  0.00  0.00    -0.160 A 
ATOM     12  C   LIG    1        0.010   0.012  -0.024  0.00  0.00    +0.000 A 
ATOM     13  O   LIG    1        2.286  -2.759  -0.069  0.00  0.00    -0.490 OA
ATOM     14  C   LIG    1       -1.124  -2.196  -0.003  0.00  0.00    +0.580 A 
ATOM     15  O   LIG    1       -2.148  -2.850   0.016  0.00  0.00    -0.490 OA
ENDROOT
BRANCH   9  16
ATOM     16  N   LIG    1       -3.654   2.016   0.048  0.00  0.00    -0.680 N 
ATOM     17  H   LIG    1       -4.417   1.645  -0.423  0.00  0.00    +0.420 HD
ATOM     18  C   LIG    1       -3.779   3.175   0.724  0.00  0.00    +0.520 C 
ATOM     19  O   LIG    1       -2.807   3.681   1.244  0.00  0.00    -0.510 OA
BRANCH  18  20
ATOM     20  C   LIG    1       -5.125   3.842   0.835  0.00  0.00    +0.000 C 
ATOM     21  C   LIG    1       -5.647   4.173  -0.565  0.00  0.00    +0.030 C 
ATOM     22  C   LIG    1       -7.014   4.851  -0.453  0.00  0.00    +0.020 C 
ATOM     23  C   LIG    1       -6.880   6.140   0.360  0.00  0.00    +0.010 C 
ATOM     24  C   LIG    1       -6.358   5.809   1.759  0.00  0.00    +0.010 C 
ATOM     25  C   LIG    1       -4.991   5.131   1.647  0.00  0.00    +0.040 C 
ENDBRANCH  18  20
ENDBRANCH   9  16
BRANCH   1  26
ATOM     26  C   LIG    1        0.099  -4.284  -0.027  0.00  0.00    +0.310 C 
BRANCH  26  27
ATOM     27  C   LIG    1        0.137  -4.795   1.415  0.00  0.00    +0.260 C 
BRANCH  27  28
ATOM     28  N   LIG    1        0.168  -6.263   1.414  0.00  0.00    -0.490 N 
ATOM     29  H   LIG    1        0.989  -6.582   0.923  0.00  0.00    +0.440 HD
ATOM     30  H   LIG    1       -0.658  -6.616   0.954  0.00  0.00    +0.440 HD
BRANCH  28  31
ATOM     31  C   LIG    1        0.204  -6.753   2.799  0.00  0.00    +0.290 C 
BRANCH  31  33
ATOM     32  O   LIG    1        0.228  -8.866   1.747  0.00  0.00    -0.530 OA
ATOM     33  C   LIG    1        0.236  -8.260   2.798  0.00  0.00    +0.500 C 
ATOM     34  N   LIG    1        0.272  -8.934   3.964  0.00  0.00    -0.700 N 
ATOM     35  H   LIG    1        0.278  -8.449   4.804  0.00  0.00    +0.410 HD
BRANCH  34  36
ATOM     36  C   LIG    1        0.302 -10.399   3.963  0.00  0.00    +0.370 C 
BRANCH  36  37
ATOM     37  C   LIG    1        0.340 -10.901   5.383  0.00  0.00    +0.090 A 
ATOM     38  C   LIG    1       -0.838 -11.252   6.015  0.00  0.00    -0.010 A 
ATOM     39  C   LIG    1       -0.792 -11.714   7.322  0.00  0.00    +0.070 A 
ATOM     40  C   LIG    1        0.442 -11.805   7.947  0.00  0.00    -0.010 A 
ATOM     41  C   LIG    1        1.578 -11.436   7.251  0.00  0.00    +0.260 A 
ATOM     42  N   LIG    1        1.497 -11.006   6.007  0.00  0.00    -0.470 NA
ENDBRANCH  36  37
ENDBRANCH  34  36
ENDBRANCH  31  33
ENDBRANCH  28  31
ENDBRANCH  27  28
ENDBRANCH  26  27
ENDBRANCH   1  26
TORSDOF 9
