REMARK  Name = ZINCb70000001CJ1.0
REMARK                            x       y       z     vdW  Elec       q    Type
REMARK                         _______ _______ _______ _____ _____    ______ ____
ROOT
ATOM      1  C   LIG    1        1.229  -2.186  -0.022  0.00  0.00    +0.240 C 
ENDROOT
BRANCH   1   2
ATOM      2  C   LIG    1        1.208  -0.679  -0.014  0.00  0.00    -0.160 A 
ATOM      3  C   LIG    1        0.002  -0.004   0.002  0.00  0.00    +0.060 A 
ATOM      4  C   LIG    1       -0.017   1.378   0.010  0.00  0.00    +0.030 A 
ATOM      5  C   LIG    1        1.171   2.086   0.002  0.00  0.00    +0.060 A 
ATOM      6  C   LIG    1        2.377   1.411  -0.014  0.00  0.00    +0.040 A 
ATOM      7  C   LIG    1        2.396   0.029  -0.021  0.00  0.00    +0.020 A 
ENDBRANCH   1   2
BRANCH   1  11
ATOM      8  N   LIG    1        0.450  -2.720  -2.308  0.00  0.00    -0.820 N 
ATOM      9  H   LIG    1        0.604  -3.036  -3.212  0.00  0.00    +0.430 HD
ATOM     10  H   LIG    1       -0.437  -2.434  -2.039  0.00  0.00    +0.410 HD
ATOM     11  C   LIG    1        1.468  -2.677  -1.426  0.00  0.00    +0.510 C 
ATOM     12  O   LIG    1        2.578  -3.034  -1.763  0.00  0.00    -0.520 OA
ENDBRANCH   1  11
BRANCH   1  13
ATOM     13  N   LIG    1        2.305  -2.666   0.855  0.00  0.00    -0.620 N 
ATOM     14  H   LIG    1        2.145  -2.337   1.795  0.00  0.00    +0.450 HD
ATOM     15  H   LIG    1        3.191  -2.315   0.523  0.00  0.00    +0.440 HD
ATOM     16  H   LIG    1        2.319  -3.675   0.850  0.00  0.00    +0.440 HD
ENDBRANCH   1  13
TORSDOF 3
