REMARK  Name = ZINCrD000000B9oO.0
REMARK                            x       y       z     vdW  Elec       q    Type
REMARK                         _______ _______ _______ _____ _____    ______ ____
ROOT
ATOM      1  O   LIG    1       -0.673   1.568   1.702  0.00  0.00    -0.510 OA
ATOM      2  C   LIG    1        0.304   1.024   1.221  0.00  0.00    +0.580 C 
ATOM      3  N   LIG    1        0.192  -0.204   0.677  0.00  0.00    -0.710 N 
ATOM      4  H   LIG    1        0.970  -0.636   0.290  0.00  0.00    +0.400 HD
ENDROOT
BRANCH   2   5
ATOM      5  C   LIG    1        1.597   1.705   1.228  0.00  0.00    -0.290 A 
ATOM      6  C   LIG    1        1.838   2.952   1.750  0.00  0.00    +0.190 A 
ATOM      7  C   LIG    1        3.155   3.347   1.620  0.00  0.00    +0.000 A 
ATOM      8  C   LIG    1        3.954   2.462   1.018  0.00  0.00    -0.030 A 
ATOM      9  S   LIG    1        3.095   1.056   0.577  0.00  0.00    +0.250 S 
BRANCH   6  10
ATOM     10  N   LIG    1        0.852   3.741   2.352  0.00  0.00    -0.390 N 
ATOM     11  C   LIG    1       -0.370   4.034   1.817  0.00  0.00    +0.210 A 
ATOM     12  C   LIG    1       -1.037   4.814   2.691  0.00  0.00    -0.070 A 
ATOM     13  C   LIG    1       -0.195   5.018   3.804  0.00  0.00    -0.040 A 
ATOM     14  C   LIG    1        0.953   4.350   3.570  0.00  0.00    +0.140 A 
ENDBRANCH   6  10
ENDBRANCH   2   5
BRANCH   3  15
ATOM     15  C   LIG    1       -1.104  -0.887   0.670  0.00  0.00    +0.280 C 
BRANCH  15  16
ATOM     16  C   LIG    1       -0.957  -2.254  -0.001  0.00  0.00    +0.210 C 
BRANCH  16  17
ATOM     17  N   LIG    1       -0.377  -2.083  -1.340  0.00  0.00    -0.520 NA
ATOM     18  C   LIG    1       -1.256  -1.270  -2.194  0.00  0.00    +0.150 C 
ATOM     19  C   LIG    1       -0.589  -1.067  -3.557  0.00  0.00    +0.220 C 
ATOM     20  O   LIG    1       -0.299  -2.343  -4.135  0.00  0.00    -0.380 OA
ATOM     21  C   LIG    1        0.554  -3.160  -3.330  0.00  0.00    +0.220 C 
ATOM     22  C   LIG    1       -0.102  -3.384  -1.965  0.00  0.00    +0.160 C 
ENDBRANCH  16  17
BRANCH  16  23
ATOM     23  C   LIG    1       -2.311  -2.904  -0.119  0.00  0.00    -0.120 A 
ATOM     24  C   LIG    1       -3.377  -2.192  -0.637  0.00  0.00    +0.010 A 
ATOM     25  C   LIG    1       -4.618  -2.790  -0.750  0.00  0.00    +0.000 A 
ATOM     26  C   LIG    1       -4.796  -4.097  -0.335  0.00  0.00    +0.010 A 
ATOM     27  C   LIG    1       -3.731  -4.807   0.188  0.00  0.00    +0.000 A 
ATOM     28  C   LIG    1       -2.489  -4.211   0.296  0.00  0.00    +0.020 A 
ENDBRANCH  16  23
ENDBRANCH  15  16
ENDBRANCH   3  15
TORSDOF 6
