REMARK  Name = ZINCvU0000000DGu.0
REMARK                            x       y       z     vdW  Elec       q    Type
REMARK                         _______ _______ _______ _____ _____    ______ ____
ROOT
ATOM      1  C   LIG    1       -0.133   5.609  -1.895  0.00  0.00    +0.410 A 
ATOM      2  N   LIG    1       -0.581   4.521  -2.502  0.00  0.00    -0.550 NA
ATOM      3  C   LIG    1       -0.905   4.529  -3.793  0.00  0.00    +0.400 A 
ATOM      4  N   LIG    1       -0.793   5.605  -4.550  0.00  0.00    -0.520 NA
ATOM      5  C   LIG    1       -0.344   6.756  -4.032  0.00  0.00    +0.180 A 
ATOM      6  C   LIG    1       -0.213   7.916  -4.807  0.00  0.00    +0.030 A 
ATOM      7  C   LIG    1        0.249   9.062  -4.231  0.00  0.00    +0.060 A 
ATOM      8  C   LIG    1        0.594   9.098  -2.883  0.00  0.00    +0.000 A 
ATOM      9  C   LIG    1        0.479   7.987  -2.100  0.00  0.00    +0.070 A 
ATOM     10  C   LIG    1        0.007   6.795  -2.660  0.00  0.00    -0.170 A 
ENDROOT
BRANCH   3  11
ATOM     11  C   LIG    1       -1.406   3.276  -4.409  0.00  0.00    -0.100 A 
ATOM     12  C   LIG    1       -1.753   3.239  -5.762  0.00  0.00    +0.120 A 
ATOM     13  C   LIG    1       -2.216   2.045  -6.289  0.00  0.00    -0.040 A 
ATOM     14  C   LIG    1       -2.320   0.938  -5.466  0.00  0.00    +0.270 A 
ATOM     15  N   LIG    1       -1.985   1.004  -4.192  0.00  0.00    -0.490 NA
ATOM     16  C   LIG    1       -1.534   2.116  -3.648  0.00  0.00    +0.320 A 
ENDBRANCH   3  11
BRANCH   1  21
ATOM     17  C   LIG    1       -0.035   4.248   0.025  0.00  0.00    +0.240 C 
ATOM     18  C   LIG    1       -0.483   4.520   1.482  0.00  0.00    +0.050 C 
ATOM     19  C   LIG    1       -1.346   5.798   1.312  0.00  0.00    +0.020 C 
ATOM     20  C   LIG    1       -0.607   6.570   0.198  0.00  0.00    +0.220 C 
ATOM     21  N   LIG    1        0.194   5.589  -0.556  0.00  0.00    -0.460 N 
BRANCH  17  25
ATOM     22  C   LIG    1        3.583   1.969  -0.021  0.00  0.00    +0.170 A 
ATOM     23  C   LIG    1        3.632   3.356  -0.015  0.00  0.00    -0.120 A 
ATOM     24  C   LIG    1        2.462   4.090   0.001  0.00  0.00    +0.120 A 
ATOM     25  C   LIG    1        1.240   3.445   0.009  0.00  0.00    -0.140 A 
ATOM     26  C   LIG    1        1.185   2.058   0.002  0.00  0.00    +0.180 A 
ATOM     27  C   LIG    1        2.358   1.320  -0.008  0.00  0.00    -0.100 A 
BRANCH  22  29
ATOM     28  C   LIG    1        5.960   1.982  -0.044  0.00  0.00    +0.250 C 
ATOM     29  O   LIG    1        4.735   1.248  -0.036  0.00  0.00    -0.320 OA
ENDBRANCH  22  29
BRANCH  26  30
ATOM     30  O   LIG    1       -0.017   1.425   0.010  0.00  0.00    -0.310 OA
ATOM     31  C   LIG    1        0.002  -0.004   0.002  0.00  0.00    +0.250 C 
ENDBRANCH  26  30
ENDBRANCH  17  25
ENDBRANCH   1  21
TORSDOF 5
