REMARK  Name = ZINCrD0000075Wkk.0
REMARK                            x       y       z     vdW  Elec       q    Type
REMARK                         _______ _______ _______ _____ _____    ______ ____
ROOT
ATOM      1  N   LIG    1        7.635   7.332   0.636  0.00  0.00    -0.740 N 
ATOM      2  H   LIG    1        8.399   6.992   0.145  0.00  0.00    +0.400 HD
ATOM      3  C   LIG    1        6.477   6.642   0.644  0.00  0.00    +0.710 C 
ATOM      4  N   LIG    1        6.381   5.479  -0.031  0.00  0.00    -0.740 N 
ATOM      5  H   LIG    1        7.146   5.139  -0.522  0.00  0.00    +0.400 HD
ATOM      6  O   LIG    1        5.520   7.068   1.260  0.00  0.00    -0.580 OA
ENDROOT
BRANCH   1  11
ATOM      7  O   LIG    1       10.262   9.977  -1.454  0.00  0.00    -0.550 OA
ATOM      8  C   LIG    1        9.502   9.647  -0.569  0.00  0.00    +0.520 C 
ATOM      9  C   LIG    1        8.026   9.722  -0.832  0.00  0.00    +0.070 C 
ATOM     10  C   LIG    1        7.249   9.749   0.485  0.00  0.00    +0.030 C 
ATOM     11  C   LIG    1        7.739   8.596   1.369  0.00  0.00    +0.280 C 
ATOM     12  C   LIG    1        9.199   8.860   1.736  0.00  0.00    +0.130 C 
ATOM     13  C   LIG    1        9.818   7.753   2.602  0.00  0.00    +0.040 C 
ATOM     14  C   LIG    1       10.504   8.873   3.402  0.00  0.00    +0.020 C 
ATOM     15  C   LIG    1        9.361   9.795   2.943  0.00  0.00    +0.040 C 
ATOM     16  N   LIG    1       10.021   9.236   0.592  0.00  0.00    -0.700 N 
ATOM     17  H   LIG    1       10.986   9.184   0.677  0.00  0.00    +0.400 HD
ENDBRANCH   1  11
BRANCH   4  18
ATOM     18  C   LIG    1        5.123   4.729  -0.022  0.00  0.00    +0.250 C 
ATOM     19  C   LIG    1        5.042   3.855  -1.276  0.00  0.00    +0.010 C 
ATOM     20  C   LIG    1        3.728   3.071  -1.267  0.00  0.00    +0.030 C 
ATOM     21  C   LIG    1        3.672   2.184  -0.022  0.00  0.00    +0.030 C 
ATOM     22  C   LIG    1        3.753   3.058   1.231  0.00  0.00    +0.030 C 
ATOM     23  C   LIG    1        5.067   3.841   1.223  0.00  0.00    +0.000 C 
BRANCH  21  24
ATOM     24  C   LIG    1        2.377   1.412  -0.013  0.00  0.00    -0.090 A 
ATOM     25  C   LIG    1        1.171   2.087   0.002  0.00  0.00    +0.040 A 
ATOM     26  C   LIG    1       -0.017   1.380   0.010  0.00  0.00    -0.010 A 
ATOM     27  C   LIG    1        0.002  -0.004   0.002  0.00  0.00    +0.090 A 
ATOM     28  C   LIG    1        1.211  -0.679  -0.013  0.00  0.00    -0.010 A 
ATOM     29  F   LIG    1       -1.158  -0.696   0.010  0.00  0.00    -0.140 F 
ATOM     30  C   LIG    1        2.397   0.030  -0.021  0.00  0.00    +0.040 A 
ENDBRANCH  21  24
ENDBRANCH   4  18
TORSDOF 3
