REMARK  Name = ZINCrH000004jNqY.0
REMARK                            x       y       z     vdW  Elec       q    Type
REMARK                         _______ _______ _______ _____ _____    ______ ____
ROOT
ATOM      1  C   LIG    1        0.494   4.312   0.012  0.00  0.00    +0.290 C 
ATOM      2  N   LIG    1        1.623   3.378   0.005  0.00  0.00    -0.610 N 
ATOM      3  C   LIG    1        1.398   2.050   0.008  0.00  0.00    +0.520 C 
ATOM      4  O   LIG    1        2.332   1.276   0.003  0.00  0.00    -0.530 OA
ENDROOT
BRANCH   3   5
ATOM      5  C   LIG    1       -0.015   1.524   0.019  0.00  0.00    +0.060 C 
BRANCH   5   6
ATOM      6  C   LIG    1        0.010  -0.006   0.021  0.00  0.00    +0.040 C 
BRANCH   6   7
ATOM      7  C   LIG    1       -1.424  -0.539   0.032  0.00  0.00    +0.100 C 
BRANCH   7   8
ATOM      8  C   LIG    1       -1.399  -2.046   0.034  0.00  0.00    -0.170 A 
ATOM      9  C   LIG    1       -1.494  -2.847  -1.039  0.00  0.00    +0.220 A 
ATOM     10  N   LIG    1       -1.430  -4.157  -0.650  0.00  0.00    -0.600 N 
ATOM     11  H   LIG    1       -1.474  -4.919  -1.249  0.00  0.00    +0.420 HD
ATOM     12  C   LIG    1       -1.299  -4.233   0.719  0.00  0.00    +0.090 A 
ATOM     13  C   LIG    1       -1.197  -5.293   1.613  0.00  0.00    -0.010 A 
ATOM     14  C   LIG    1       -1.073  -5.040   2.962  0.00  0.00    +0.020 A 
ATOM     15  C   LIG    1       -1.050  -3.737   3.439  0.00  0.00    -0.030 A 
ATOM     16  C   LIG    1       -1.148  -2.681   2.577  0.00  0.00    +0.050 A 
ATOM     17  C   LIG    1       -1.274  -2.914   1.207  0.00  0.00    -0.100 A 
ENDBRANCH   7   8
ENDBRANCH   6   7
ENDBRANCH   5   6
ENDBRANCH   3   5
BRANCH   2  18
ATOM     18  C   LIG    1        2.996   3.889  -0.005  0.00  0.00    +0.330 C 
BRANCH  18  19
ATOM     19  C   LIG    1        3.456   4.063  -1.430  0.00  0.00    +0.500 C 
ATOM     20  N   LIG    1        4.696   4.524  -1.686  0.00  0.00    -0.670 N 
ATOM     21  H   LIG    1        5.268   4.808  -0.956  0.00  0.00    +0.420 HD
ATOM     22  O   LIG    1        2.711   3.787  -2.346  0.00  0.00    -0.510 OA
BRANCH  20  23
ATOM     23  C   LIG    1        5.159   4.594  -3.005  0.00  0.00    +0.170 A 
ATOM     24  C   LIG    1        6.497   4.353  -3.286  0.00  0.00    -0.030 A 
ATOM     25  C   LIG    1        6.950   4.416  -4.589  0.00  0.00    +0.070 A 
ATOM     26  C   LIG    1        6.076   4.731  -5.613  0.00  0.00    -0.030 A 
ATOM     27  C   LIG    1        4.742   4.978  -5.336  0.00  0.00    +0.120 A 
ATOM     28  F   LIG    1        3.889   5.284  -6.338  0.00  0.00    -0.140 F 
ATOM     29  C   LIG    1        4.281   4.910  -4.033  0.00  0.00    -0.010 A 
ENDBRANCH  20  23
ENDBRANCH  18  19
ENDBRANCH   2  18
TORSDOF 7
