REMARK  Name = ZINCqH0000006RCa.0
REMARK                            x       y       z     vdW  Elec       q    Type
REMARK                         _______ _______ _______ _____ _____    ______ ____
ROOT
ATOM      1  C   LIG    1       -0.783   2.899   1.361  0.00  0.00    +0.160 A 
ATOM      2  C   LIG    1       -0.260   3.752   0.404  0.00  0.00    -0.090 A 
ATOM      3  C   LIG    1       -0.365   5.127   0.569  0.00  0.00    +0.210 A 
ATOM      4  C   LIG    1       -0.994   5.646   1.692  0.00  0.00    +0.000 A 
ATOM      5  C   LIG    1       -1.518   4.796   2.648  0.00  0.00    +0.090 A 
ATOM      6  C   LIG    1       -1.419   3.422   2.485  0.00  0.00    +0.090 A 
ENDROOT
BRANCH   3   7
ATOM      7  N   LIG    1        0.165   5.991  -0.399  0.00  0.00    -0.690 N 
ATOM      8  H   LIG    1        0.980   5.753  -0.867  0.00  0.00    +0.410 HD
ATOM      9  C   LIG    1       -0.459   7.152  -0.678  0.00  0.00    +0.710 C 
ATOM     10  N   LIG    1       -0.003   7.939  -1.673  0.00  0.00    -0.740 N 
ATOM     11  H   LIG    1        0.774   7.670  -2.187  0.00  0.00    +0.400 HD
ATOM     12  O   LIG    1       -1.433   7.490  -0.033  0.00  0.00    -0.560 OA
BRANCH  10  13
ATOM     13  C   LIG    1       -0.681   9.202  -1.977  0.00  0.00    +0.340 C 
BRANCH  13  14
ATOM     14  C   LIG    1        0.021   9.886  -3.122  0.00  0.00    -0.100 A 
ATOM     15  C   LIG    1        1.051  10.773  -2.870  0.00  0.00    +0.040 A 
ATOM     16  C   LIG    1        1.699  11.397  -3.920  0.00  0.00    +0.030 A 
ATOM     17  C   LIG    1        1.310  11.142  -5.221  0.00  0.00    +0.040 A 
ATOM     18  C   LIG    1        0.276  10.259  -5.474  0.00  0.00    -0.040 A 
ATOM     19 CL   LIG    1       -0.213   9.938  -7.108  0.00  0.00    -0.060 Cl
ATOM     20  C   LIG    1       -0.369   9.631  -4.423  0.00  0.00    +0.050 A 
ENDBRANCH  13  14
ENDBRANCH  10  13
ENDBRANCH   3   7
BRANCH   6  21
ATOM     21  N   LIG    1       -1.956   2.560   3.452  0.00  0.00    -0.570 N 
ATOM     22  C   LIG    1       -1.215   2.056   4.614  0.00  0.00    +0.270 C 
ATOM     23  C   LIG    1       -2.292   1.536   5.594  0.00  0.00    +0.040 C 
ATOM     24  C   LIG    1       -3.453   1.195   4.631  0.00  0.00    +0.060 C 
ATOM     25  C   LIG    1       -3.213   2.086   3.432  0.00  0.00    +0.520 C 
ATOM     26  O   LIG    1       -4.036   2.336   2.576  0.00  0.00    -0.520 OA
ENDBRANCH   6  21
BRANCH   1  28
ATOM     27  C   LIG    1       -0.023   1.087   0.021  0.00  0.00    +0.250 C 
ATOM     28  O   LIG    1       -0.682   1.553   1.200  0.00  0.00    -0.310 OA
ENDBRANCH   1  28
TORSDOF 5
