REMARK  Name = ZINCqH0000035U3g.0
REMARK                            x       y       z     vdW  Elec       q    Type
REMARK                         _______ _______ _______ _____ _____    ______ ____
ROOT
ATOM      1  C   LIG    1        2.333   5.247  -0.094  0.00  0.00    +0.510 C 
ATOM      2  N   LIG    1        2.357   3.903   0.000  0.00  0.00    -0.660 N 
ATOM      3  H   LIG    1        3.204   3.435   0.054  0.00  0.00    +0.420 HD
ATOM      4  O   LIG    1        1.274   5.838  -0.081  0.00  0.00    -0.520 OA
ENDROOT
BRANCH   2   5
ATOM      5  C   LIG    1        1.155   3.181   0.020  0.00  0.00    +0.190 A 
ATOM      6  C   LIG    1        0.035   3.713   0.637  0.00  0.00    +0.050 A 
ATOM      7  C   LIG    1       -1.151   2.999   0.655  0.00  0.00    -0.020 A 
ATOM      8  C   LIG    1       -1.222   1.756   0.053  0.00  0.00    +0.020 A 
ATOM      9  C   LIG    1       -0.107   1.216  -0.560  0.00  0.00    +0.010 A 
ATOM     10 CL   LIG    1       -2.553   3.668   1.429  0.00  0.00    -0.060 Cl
ATOM     11  C   LIG    1        1.084   1.925  -0.583  0.00  0.00    +0.060 A 
BRANCH  11  12
ATOM     12  N   LIG    1        2.213   1.382  -1.208  0.00  0.00    -0.500 N 
ATOM     13  C   LIG    1        1.983   1.208  -2.650  0.00  0.00    +0.160 C 
ATOM     14  C   LIG    1        3.259   0.669  -3.303  0.00  0.00    +0.220 C 
ATOM     15  O   LIG    1        3.636  -0.553  -2.664  0.00  0.00    -0.380 OA
ATOM     16  C   LIG    1        3.869  -0.420  -1.259  0.00  0.00    +0.220 C 
ATOM     17  C   LIG    1        2.599   0.108  -0.585  0.00  0.00    +0.160 C 
ENDBRANCH  11  12
ENDBRANCH   2   5
BRANCH   1  18
ATOM     18  C   LIG    1        3.624   6.016  -0.216  0.00  0.00    +0.070 C 
BRANCH  18  19
ATOM     19  C   LIG    1        3.319   7.513  -0.307  0.00  0.00    +0.100 C 
BRANCH  19  23
ATOM     20  C   LIG    1        6.977   9.694  -0.653  0.00  0.00    +0.120 A 
ATOM     21  C   LIG    1        6.320   9.254  -1.793  0.00  0.00    -0.020 A 
ATOM     22  C   LIG    1        5.137   8.549  -1.679  0.00  0.00    +0.060 A 
ATOM     23  C   LIG    1        4.609   8.282  -0.429  0.00  0.00    -0.120 A 
ATOM     24  C   LIG    1        5.260   8.723   0.708  0.00  0.00    +0.060 A 
ATOM     25  C   LIG    1        6.445   9.424   0.599  0.00  0.00    -0.080 A 
BRANCH  20  27
ATOM     26  C   LIG    1        8.762  10.809   0.452  0.00  0.00    +0.250 C 
ATOM     27  O   LIG    1        8.140  10.388  -0.764  0.00  0.00    -0.320 OA
ENDBRANCH  20  27
ENDBRANCH  19  23
ENDBRANCH  18  19
ENDBRANCH   1  18
TORSDOF 6
