REMARK  Name = ZINCrD00000fBGRH.0
REMARK                            x       y       z     vdW  Elec       q    Type
REMARK                         _______ _______ _______ _____ _____    ______ ____
ROOT
ATOM      1  O   LIG    1       -0.299   8.609   0.397  0.00  0.00    -0.450 OA
ATOM      2  C   LIG    1       -0.544   7.961   1.392  0.00  0.00    +0.520 C 
ATOM      3  N   LIG    1       -0.845   8.588   2.547  0.00  0.00    -0.630 N 
ATOM      4  H   LIG    1       -1.041   8.070   3.343  0.00  0.00    +0.430 HD
ENDROOT
BRANCH   3   5
ATOM      5  C   LIG    1       -0.874   9.973   2.596  0.00  0.00    +0.540 A 
ATOM      6  N   LIG    1       -0.630  10.790   1.595  0.00  0.00    -0.510 NA
ATOM      7  C   LIG    1       -0.750  12.053   2.005  0.00  0.00    +0.460 A 
ATOM      8  N   LIG    1       -1.072  12.066   3.271  0.00  0.00    -0.280 NA
ATOM      9  N   LIG    1       -1.165  10.727   3.683  0.00  0.00    -0.340 N 
BRANCH   9  10
ATOM     10  C   LIG    1       -1.489  10.265   4.958  0.00  0.00    +0.560 A 
ATOM     11  N   LIG    1       -1.536   8.962   5.181  0.00  0.00    -0.560 NA
ATOM     12  C   LIG    1       -1.836   8.490   6.379  0.00  0.00    +0.380 A 
ATOM     13  C   LIG    1       -2.113   9.380   7.406  0.00  0.00    -0.080 A 
ATOM     14  C   LIG    1       -2.060  10.738   7.136  0.00  0.00    +0.370 A 
ATOM     15  N   LIG    1       -1.748  11.142   5.916  0.00  0.00    -0.500 NA
ENDBRANCH   9  10
ENDBRANCH   3   5
BRANCH   2  16
ATOM     16  C   LIG    1       -0.512   6.455   1.338  0.00  0.00    +0.100 C 
BRANCH  16  17
ATOM     17  C   LIG    1        0.004   6.005  -0.030  0.00  0.00    +0.060 C 
BRANCH  17  18
ATOM     18  C   LIG    1        1.445   6.418  -0.184  0.00  0.00    -0.100 A 
ATOM     19  C   LIG    1        1.814   7.265  -1.213  0.00  0.00    +0.080 A 
ATOM     20  C   LIG    1        3.136   7.645  -1.354  0.00  0.00    +0.030 A 
ATOM     21  C   LIG    1        4.089   7.177  -0.467  0.00  0.00    -0.020 A 
ATOM     22  C   LIG    1        3.719   6.324   0.558  0.00  0.00    +0.030 A 
ATOM     23 CL   LIG    1        5.748   7.653  -0.645  0.00  0.00    -0.070 Cl
ATOM     24  C   LIG    1        2.396   5.951   0.703  0.00  0.00    +0.040 A 
ENDBRANCH  17  18
BRANCH  17  25
ATOM     25  C   LIG    1       -0.105   4.483  -0.140  0.00  0.00    +0.460 C 
ATOM     26  F   LIG    1        0.475   4.059  -1.341  0.00  0.00    -0.170 F 
ATOM     27  F   LIG    1       -1.453   4.108  -0.115  0.00  0.00    -0.180 F 
ATOM     28  F   LIG    1        0.564   3.888   0.936  0.00  0.00    -0.180 F 
ENDBRANCH  17  25
ENDBRANCH  16  17
ENDBRANCH   2  16
TORSDOF 6
