REMARK  Name = ZINCkj000005h938.0
REMARK                            x       y       z     vdW  Elec       q    Type
REMARK                         _______ _______ _______ _____ _____    ______ ____
ROOT
ATOM      1  C   LIG    1       -0.255  -2.797  -2.312  0.00  0.00    +0.680 C 
ATOM      2  N   LIG    1       -0.372  -2.035  -1.207  0.00  0.00    -0.720 N 
ATOM      3  H   LIG    1       -0.764  -2.407  -0.401  0.00  0.00    +0.400 HD
ATOM      4  O   LIG    1        0.239  -2.331  -3.324  0.00  0.00    -0.580 OA
ENDROOT
BRANCH   1  12
ATOM      5  C   LIG    1       -1.582  -6.963  -2.486  0.00  0.00    +0.390 C 
ATOM      6  N   LIG    1       -0.960  -6.126  -3.514  0.00  0.00    -0.410 N 
ATOM      7  N   LIG    1       -0.644  -6.499  -4.832  0.00  0.00    -0.490 N 
ATOM      8  H   LIG    1       -0.796  -7.365  -5.240  0.00  0.00    +0.460 HD
ATOM      9  C   LIG    1       -0.087  -5.418  -5.420  0.00  0.00    +0.620 A 
ATOM     10  N   LIG    1       -0.050  -4.429  -4.566  0.00  0.00    -0.530 NA
ATOM     11  C   LIG    1       -0.567  -4.817  -3.388  0.00  0.00    +0.620 A 
ATOM     12  N   LIG    1       -0.681  -4.066  -2.299  0.00  0.00    -0.670 NA
ENDBRANCH   1  12
BRANCH   2  13
ATOM     13  C   LIG    1        0.095  -0.647  -1.221  0.00  0.00    +0.300 C 
BRANCH  13  14
ATOM     14  C   LIG    1       -0.242   0.018   0.115  0.00  0.00    +0.260 C 
BRANCH  14  15
ATOM     15  C   LIG    1        0.524  -0.660   1.221  0.00  0.00    -0.270 A 
ATOM     16  C   LIG    1        0.026  -1.579   2.050  0.00  0.00    +0.090 A 
ATOM     17  C   LIG    1        0.920  -2.063   2.990  0.00  0.00    +0.020 A 
ATOM     18  C   LIG    1        2.144  -1.538   2.923  0.00  0.00    +0.020 A 
ATOM     19  S   LIG    1        2.214  -0.369   1.611  0.00  0.00    +0.110 S 
ENDBRANCH  14  15
BRANCH  14  20
ATOM     20  N   LIG    1        0.130   1.439   0.062  0.00  0.00    -0.380 N 
ATOM     21  C   LIG    1       -0.136   2.063   1.365  0.00  0.00    +0.330 C 
ATOM     22  C   LIG    1       -0.662   2.114  -0.975  0.00  0.00    +0.340 C 
ATOM     23  H   LIG    1        1.111   1.522  -0.157  0.00  0.00    +0.420 HD
ENDBRANCH  14  20
ENDBRANCH  13  14
ENDBRANCH   2  13
TORSDOF 5
