REMARK  Name = ZINCrH000004vFQU.0
REMARK                            x       y       z     vdW  Elec       q    Type
REMARK                         _______ _______ _______ _____ _____    ______ ____
ROOT
ATOM      1  O   LIG    1       -0.875  -1.660  -1.939  0.00  0.00    -0.510 OA
ATOM      2  C   LIG    1        0.293  -1.334  -2.033  0.00  0.00    +0.600 C 
ATOM      3  N   LIG    1        0.881  -0.641  -1.038  0.00  0.00    -0.590 N 
ATOM      4  C   LIG    1        2.318  -0.338  -1.084  0.00  0.00    +0.290 C 
ATOM      5  C   LIG    1        2.509   1.172  -0.907  0.00  0.00    +0.040 C 
ATOM      6  C   LIG    1        1.813   1.623   0.379  0.00  0.00    +0.030 C 
ATOM      7  C   LIG    1        0.313   1.335   0.277  0.00  0.00    +0.260 C 
ATOM      8  C   LIG    1        0.097  -0.173   0.114  0.00  0.00    +0.300 C 
ENDROOT
BRANCH   2   9
ATOM      9  C   LIG    1        1.066  -1.698  -3.235  0.00  0.00    +0.050 A 
ATOM     10  C   LIG    1        0.630  -2.492  -4.259  0.00  0.00    -0.020 A 
ATOM     11  N   LIG    1        1.646  -2.572  -5.163  0.00  0.00    -0.350 N 
ATOM     12  C   LIG    1        1.763  -3.222  -6.360  0.00  0.00    +0.220 A 
ATOM     13  C   LIG    1        2.901  -3.139  -7.078  0.00  0.00    +0.040 A 
ATOM     14  C   LIG    1        3.986  -2.380  -6.605  0.00  0.00    +0.070 A 
ATOM     15  C   LIG    1        3.886  -1.728  -5.417  0.00  0.00    +0.080 A 
ATOM     16  C   LIG    1        2.689  -1.824  -4.674  0.00  0.00    +0.250 A 
ATOM     17 BR   LIG    1       -1.064  -3.322  -4.395  0.00  0.00    +0.060 Br
ATOM     18  N   LIG    1        2.321  -1.301  -3.517  0.00  0.00    -0.460 NA
ENDBRANCH   2   9
BRANCH   7  19
ATOM     19  N   LIG    1       -0.357   1.796   1.496  0.00  0.00    -0.340 N 
ATOM     20  C   LIG    1       -0.482   1.099   2.645  0.00  0.00    +0.250 A 
ATOM     21  C   LIG    1       -1.160   1.873   3.524  0.00  0.00    -0.070 A 
ATOM     22  C   LIG    1       -1.467   3.080   2.888  0.00  0.00    -0.020 A 
ATOM     23  N   LIG    1       -0.986   3.035   1.672  0.00  0.00    -0.230 NA
BRANCH  22  24
ATOM     24  C   LIG    1       -2.221   4.233   3.498  0.00  0.00    +0.560 C 
ATOM     25  F   LIG    1       -1.477   4.772   4.553  0.00  0.00    -0.170 F 
ATOM     26  F   LIG    1       -3.454   3.781   3.981  0.00  0.00    -0.170 F 
ATOM     27  F   LIG    1       -2.433   5.217   2.527  0.00  0.00    -0.170 F 
ENDBRANCH  22  24
ENDBRANCH   7  19
TORSDOF 3
