REMARK  Name = ZINCtV00000L6jt5.0
REMARK                            x       y       z     vdW  Elec       q    Type
REMARK                         _______ _______ _______ _____ _____    ______ ____
ROOT
ATOM      1  C   LIG    1        1.543   1.451   2.167  0.00  0.00    +0.060 C 
ENDROOT
BRANCH   1   3
ATOM      2  N   LIG    1       -0.696   1.567   1.123  0.00  0.00    -0.610 N 
ATOM      3  C   LIG    1        0.073   1.781   2.208  0.00  0.00    +0.520 C 
ATOM      4  O   LIG    1       -0.417   2.240   3.218  0.00  0.00    -0.520 OA
ATOM      5  C   LIG    1       -0.104   1.012  -0.097  0.00  0.00    +0.270 C 
BRANCH   2   7
ATOM      6  C   LIG    1       -2.792   1.408  -0.128  0.00  0.00    +0.060 C 
ATOM      7  C   LIG    1       -2.125   1.888   1.163  0.00  0.00    +0.280 C 
BRANCH   7   8
ATOM      8  C   LIG    1       -2.301   3.378   1.295  0.00  0.00    -0.070 A 
ATOM      9  C   LIG    1       -1.320   4.234   0.831  0.00  0.00    +0.060 A 
ATOM     10  C   LIG    1       -1.482   5.602   0.951  0.00  0.00    +0.040 A 
ATOM     11  C   LIG    1       -2.625   6.115   1.537  0.00  0.00    -0.030 A 
ATOM     12  C   LIG    1       -3.608   5.259   2.002  0.00  0.00    +0.050 A 
ATOM     13 CL   LIG    1       -2.827   7.832   1.688  0.00  0.00    -0.060 Cl
ATOM     14  C   LIG    1       -3.448   3.891   1.876  0.00  0.00    -0.010 A 
ATOM     15 CL   LIG    1       -4.684   2.816   2.453  0.00  0.00    -0.050 Cl
ENDBRANCH   7   8
ENDBRANCH   2   7
ENDBRANCH   1   3
BRANCH   1  16
ATOM     16  C   LIG    1        2.180   1.787   3.517  0.00  0.00    +0.210 C 
BRANCH  16  17
ATOM     17  C   LIG    1        3.649   1.456   3.476  0.00  0.00    +0.200 A 
ATOM     18  N   LIG    1        4.598   2.270   3.106  0.00  0.00    -0.470 NA
ATOM     19  C   LIG    1        5.776   1.636   3.199  0.00  0.00    +0.190 A 
ATOM     20  C   LIG    1        5.528   0.375   3.638  0.00  0.00    -0.020 A 
ATOM     21  O   LIG    1        4.191   0.276   3.808  0.00  0.00    -0.190 OA
BRANCH  20  22
ATOM     22  C   LIG    1        6.528  -0.685   3.884  0.00  0.00    -0.090 A 
ATOM     23  C   LIG    1        6.521  -1.850   3.112  0.00  0.00    +0.160 A 
ATOM     24  C   LIG    1        7.463  -2.834   3.344  0.00  0.00    -0.010 A 
ATOM     25  C   LIG    1        8.404  -2.674   4.345  0.00  0.00    +0.110 A 
ATOM     26  C   LIG    1        8.414  -1.526   5.117  0.00  0.00    -0.010 A 
ATOM     27  F   LIG    1        5.599  -2.011   2.137  0.00  0.00    -0.120 F 
ATOM     28  C   LIG    1        7.482  -0.530   4.893  0.00  0.00    +0.160 A 
ATOM     29  F   LIG    1        7.493   0.590   5.649  0.00  0.00    -0.120 F 
ENDBRANCH  20  22
ENDBRANCH  16  17
ENDBRANCH   1  16
TORSDOF 6
