REMARK  Name = ZINCtj0000003TJm.0
REMARK                            x       y       z     vdW  Elec       q    Type
REMARK                         _______ _______ _______ _____ _____    ______ ____
ROOT
ATOM      1  N   LIG    1       -3.245   2.678   9.001  0.00  0.00    -0.670 N 
ATOM      2  H   LIG    1       -2.644   2.847   9.743  0.00  0.00    +0.410 HD
ATOM      3  C   LIG    1       -2.764   2.633   7.742  0.00  0.00    +0.710 C 
ATOM      4  N   LIG    1       -1.437   2.717   7.524  0.00  0.00    -0.620 N 
ATOM      5  C   LIG    1       -0.510   2.971   8.636  0.00  0.00    +0.260 C 
ATOM      6  C   LIG    1        0.362   4.179   8.284  0.00  0.00    +0.030 C 
ATOM      7  C   LIG    1        1.048   3.934   6.938  0.00  0.00    +0.040 C 
ATOM      8  C   LIG    1       -0.011   3.769   5.846  0.00  0.00    -0.030 C 
ATOM      9  C   LIG    1       -0.889   2.555   6.171  0.00  0.00    +0.290 C 
ATOM     10  O   LIG    1       -3.528   2.515   6.803  0.00  0.00    -0.570 OA
ENDROOT
BRANCH   1  16
ATOM     11  C   LIG    1       -5.186   2.912  10.433  0.00  0.00    -0.140 A 
ATOM     12  C   LIG    1       -6.540   2.714  10.659  0.00  0.00    +0.020 A 
ATOM     13  C   LIG    1       -7.318   2.093   9.700  0.00  0.00    +0.010 A 
ATOM     14  C   LIG    1       -6.750   1.666   8.514  0.00  0.00    +0.030 A 
ATOM     15  C   LIG    1       -5.401   1.864   8.278  0.00  0.00    +0.040 A 
ATOM     16  C   LIG    1       -4.613   2.482   9.236  0.00  0.00    +0.190 A 
BRANCH  11  17
ATOM     17  S   LIG    1       -4.192   3.704  11.654  0.00  0.00    -0.050 S 
BRANCH  17  18
ATOM     18  C   LIG    1       -5.379   4.056  12.980  0.00  0.00    +0.090 C 
BRANCH  18  22
ATOM     19  N   LIG    1       -5.358   5.106  15.220  0.00  0.00    -0.850 N 
ATOM     20  H   LIG    1       -4.902   5.550  15.952  0.00  0.00    +0.410 HD
ATOM     21  H   LIG    1       -6.308   4.922  15.280  0.00  0.00    +0.410 HD
ATOM     22  C   LIG    1       -4.671   4.746  14.117  0.00  0.00    +0.540 C 
ATOM     23  O   LIG    1       -3.483   4.977  14.041  0.00  0.00    -0.520 OA
ENDBRANCH  18  22
ENDBRANCH  17  18
ENDBRANCH  11  17
ENDBRANCH   1  16
BRANCH   8  24
ATOM     24  C   LIG    1        0.675   3.556   4.496  0.00  0.00    +0.300 C 
BRANCH  24  25
ATOM     25  N   LIG    1       -0.334   3.514   3.436  0.00  0.00    -0.700 N 
ATOM     26  H   LIG    1       -1.274   3.615   3.656  0.00  0.00    +0.410 HD
ATOM     27  C   LIG    1        0.041   3.334   2.154  0.00  0.00    +0.510 C 
ATOM     28  O   LIG    1        1.216   3.207   1.878  0.00  0.00    -0.530 OA
BRANCH  27  29
ATOM     29  C   LIG    1       -0.998   3.290   1.063  0.00  0.00    +0.170 C 
ATOM     30  C   LIG    1       -1.711   4.658   0.948  0.00  0.00    +0.100 C 
ATOM     31  C   LIG    1       -2.216   4.623  -0.518  0.00  0.00    +0.090 C 
ATOM     32  C   LIG    1       -1.086   3.877  -1.258  0.00  0.00    +0.270 C 
ATOM     33  N   LIG    1       -0.354   3.085  -0.252  0.00  0.00    -0.500 N 
ATOM     34  H   LIG    1        0.606   3.391  -0.212  0.00  0.00    +0.440 HD
ATOM     35  H   LIG    1       -0.390   2.107  -0.499  0.00  0.00    +0.440 HD
ENDBRANCH  27  29
ENDBRANCH  24  25
ENDBRANCH   8  24
TORSDOF 7
