REMARK  Name = ZINCkj00000vB18x.0
REMARK                            x       y       z     vdW  Elec       q    Type
REMARK                         _______ _______ _______ _____ _____    ______ ____
ROOT
ATOM      1  N   LIG    1       -1.328   1.543   5.605  0.00  0.00    -0.500 N 
ATOM      2  H   LIG    1       -0.744   0.744   5.409  0.00  0.00    +0.420 HD
ATOM      3  H   LIG    1       -2.294   1.303   5.438  0.00  0.00    +0.430 HD
ENDROOT
BRANCH   1   4
ATOM      4  C   LIG    1       -1.159   1.940   7.009  0.00  0.00    +0.150 C 
ATOM      5  C   LIG    1        0.343   2.113   7.346  0.00  0.00    +0.060 C 
ATOM      6  C   LIG    1        0.686   0.755   8.009  0.00  0.00    +0.220 C 
ATOM      7  O   LIG    1       -0.504   0.438   8.762  0.00  0.00    -0.340 OA
ATOM      8  C   LIG    1       -1.632   0.814   7.949  0.00  0.00    +0.250 C 
BRANCH   8   9
ATOM      9  C   LIG    1       -2.754   1.313   8.822  0.00  0.00    -0.280 A 
ATOM     10  C   LIG    1       -4.074   1.095   8.625  0.00  0.00    +0.260 A 
ATOM     11  N   LIG    1       -4.746   1.704   9.624  0.00  0.00    -0.360 N 
ATOM     12  N   LIG    1       -3.808   2.324  10.459  0.00  0.00    -0.280 NA
ATOM     13  C   LIG    1       -6.200   1.719   9.802  0.00  0.00    +0.360 C 
ATOM     14  C   LIG    1       -2.614   2.089   9.978  0.00  0.00    +0.270 A 
ENDBRANCH   8   9
ENDBRANCH   1   4
BRANCH   1  15
ATOM     15  C   LIG    1       -0.942   2.658   4.731  0.00  0.00    +0.380 C 
BRANCH  15  20
ATOM     16  C   LIG    1       -0.013   1.086   0.008  0.00  0.00    +0.200 C 
ATOM     17  C   LIG    1       -0.718   1.572   1.248  0.00  0.00    +0.270 A 
ATOM     18  N   LIG    1       -1.996   1.813   1.351  0.00  0.00    -0.480 NA
ATOM     19  C   LIG    1       -2.270   2.227   2.597  0.00  0.00    +0.080 A 
ATOM     20  C   LIG    1       -1.116   2.251   3.290  0.00  0.00    -0.130 A 
ATOM     21  C   LIG    1       -3.629   2.605   3.126  0.00  0.00    +0.150 C 
ATOM     22  N   LIG    1       -0.131   1.836   2.435  0.00  0.00    -0.560 N 
ATOM     23  H   LIG    1        0.812   1.747   2.643  0.00  0.00    +0.430 HD
ENDBRANCH  15  20
ENDBRANCH   1  15
TORSDOF 4
