REMARK  Name = ZINCfA000000biRl.0
REMARK                            x       y       z     vdW  Elec       q    Type
REMARK                         _______ _______ _______ _____ _____    ______ ____
ROOT
ATOM      1  C   LIG    1       -2.866   1.540  -0.038  0.00  0.00    +0.230 C 
ATOM      2  C   LIG    1       -3.248   0.061  -0.118  0.00  0.00    +0.100 C 
ENDROOT
BRANCH   1   3
ATOM      3  C   LIG    1       -2.083   1.789   1.226  0.00  0.00    -0.130 A 
ATOM      4  C   LIG    1       -2.732   2.230   2.365  0.00  0.00    +0.010 A 
ATOM      5  C   LIG    1       -2.014   2.464   3.522  0.00  0.00    +0.070 A 
ATOM      6  C   LIG    1       -0.647   2.252   3.543  0.00  0.00    -0.070 A 
ATOM      7  C   LIG    1        0.001   1.806   2.405  0.00  0.00    +0.070 A 
ATOM      8 BR   LIG    1        0.336   2.571   5.127  0.00  0.00    -0.020 Br
ATOM      9  C   LIG    1       -0.718   1.572   1.248  0.00  0.00    -0.040 A 
ATOM     10  C   LIG    1       -0.013   1.086   0.008  0.00  0.00    +0.110 C 
ENDBRANCH   1   3
BRANCH   1  11
ATOM     11  N   LIG    1       -4.084   2.361  -0.029  0.00  0.00    -0.510 N 
ATOM     12  H   LIG    1       -3.836   3.329   0.106  0.00  0.00    +0.440 HD
ATOM     13  H   LIG    1       -4.687   2.060   0.722  0.00  0.00    +0.420 HD
BRANCH  11  14
ATOM     14  C   LIG    1       -4.785   2.209  -1.311  0.00  0.00    +0.290 C 
BRANCH  14  15
ATOM     15  C   LIG    1       -6.054   3.064  -1.302  0.00  0.00    +0.210 C 
BRANCH  15  17
ATOM     16  C   LIG    1       -6.816   5.335  -1.213  0.00  0.00    +0.240 C 
ATOM     17  O   LIG    1       -5.697   4.446  -1.227  0.00  0.00    -0.400 OA
ENDBRANCH  15  17
ENDBRANCH  14  15
ENDBRANCH  11  14
ENDBRANCH   1  11
TORSDOF 5
