REMARK  Name = ZINCvU00000007zA.0
REMARK                            x       y       z     vdW  Elec       q    Type
REMARK                         _______ _______ _______ _____ _____    ______ ____
ROOT
ATOM      1  C   LIG    1       -1.400  -0.599  -2.668  0.00  0.00    +0.120 C 
ATOM      2  C   LIG    1        0.075  -0.743  -2.393  0.00  0.00    +0.010 A 
ATOM      3  C   LIG    1        0.997  -1.152  -3.282  0.00  0.00    +0.000 A 
ATOM      4  C   LIG    1        2.284  -1.145  -2.575  0.00  0.00    -0.270 A 
ATOM      5  C   LIG    1        2.009  -0.714  -1.291  0.00  0.00    +0.120 A 
ATOM      6  C   LIG    1        3.014  -0.540  -0.182  0.00  0.00    +0.150 C 
ATOM      7  N   LIG    1        0.688  -0.476  -1.203  0.00  0.00    -0.430 N 
ENDROOT
BRANCH   4   8
ATOM      8  C   LIG    1        3.592  -1.518  -3.119  0.00  0.00    +0.430 C 
ATOM      9  O   LIG    1        4.579  -1.464  -2.416  0.00  0.00    -0.450 OA
BRANCH   8  10
ATOM     10  C   LIG    1        3.711  -1.968  -4.553  0.00  0.00    +0.250 C 
BRANCH  10  11
ATOM     11  O   LIG    1        5.098  -2.279  -4.849  0.00  0.00    -0.340 OA
BRANCH  11  12
ATOM     12  C   LIG    1        5.378  -2.700  -6.099  0.00  0.00    +0.540 C 
ATOM     13  O   LIG    1        4.486  -2.805  -6.920  0.00  0.00    -0.500 OA
BRANCH  12  14
ATOM     14  C   LIG    1        6.755  -3.032  -6.469  0.00  0.00    -0.270 A 
ATOM     15  C   LIG    1        7.161  -3.466  -7.694  0.00  0.00    +0.120 A 
ATOM     16  C   LIG    1        8.519  -3.710  -7.785  0.00  0.00    -0.130 A 
ATOM     17  C   LIG    1        9.197  -3.473  -6.638  0.00  0.00    -0.190 A 
ATOM     18  C   LIG    1       10.693  -3.662  -6.474  0.00  0.00    +0.120 C 
ATOM     19  C   LIG    1       11.209  -4.528  -7.627  0.00  0.00    +0.020 C 
ATOM     20  C   LIG    1       10.697  -3.952  -8.951  0.00  0.00    +0.020 C 
ATOM     21  C   LIG    1        9.192  -4.202  -9.060  0.00  0.00    +0.100 C 
ATOM     22  S   LIG    1        8.149  -2.927  -5.406  0.00  0.00    +0.260 S 
ENDBRANCH  12  14
ENDBRANCH  11  12
ENDBRANCH  10  11
ENDBRANCH   8  10
ENDBRANCH   4   8
BRANCH   7  23
ATOM     23  C   LIG    1        0.002  -0.004   0.002  0.00  0.00    +0.300 C 
BRANCH  23  24
ATOM     24  C   LIG    1       -0.019   1.526   0.010  0.00  0.00    +0.070 C 
BRANCH  24  25
ATOM     25  C   LIG    1       -0.724   2.012   1.250  0.00  0.00    -0.100 A 
ATOM     26  C   LIG    1       -2.089   2.229   1.228  0.00  0.00    +0.050 A 
ATOM     27  C   LIG    1       -2.738   2.669   2.366  0.00  0.00    -0.010 A 
ATOM     28  C   LIG    1       -2.018   2.904   3.526  0.00  0.00    +0.100 A 
ATOM     29  C   LIG    1       -0.650   2.692   3.545  0.00  0.00    -0.010 A 
ATOM     30  F   LIG    1       -2.651   3.341   4.637  0.00  0.00    -0.140 F 
ATOM     31  C   LIG    1       -0.005   2.245   2.408  0.00  0.00    +0.050 A 
ENDBRANCH  24  25
ENDBRANCH  23  24
ENDBRANCH   7  23
TORSDOF 8
