REMARK  Name = ZINCpk00000xIb8k.0
REMARK                            x       y       z     vdW  Elec       q    Type
REMARK                         _______ _______ _______ _____ _____    ______ ____
ROOT
ATOM      1  C   LIG    1        5.527  -0.828   1.737  0.00  0.00    +0.490 C 
ATOM      2  C   LIG    1        6.600  -0.320   0.752  0.00  0.00    +0.050 C 
ATOM      3  C   LIG    1        7.484   0.594   1.642  0.00  0.00    +0.040 C 
ATOM      4  C   LIG    1        7.452  -0.163   2.993  0.00  0.00    +0.270 C 
ATOM      5  N   LIG    1        6.082  -0.700   3.092  0.00  0.00    -1.010 NA
ENDROOT
BRANCH   1  13
ATOM      6  C   LIG    1       -0.807   1.989  -1.111  0.00  0.00    +0.190 C 
ATOM      7  N   LIG    1       -0.019   1.466   0.013  0.00  0.00    -0.540 NA
ATOM      8  C   LIG    1        1.343   2.018   0.003  0.00  0.00    +0.170 C 
ATOM      9  C   LIG    1        2.072   1.594   1.283  0.00  0.00    +0.280 C 
ATOM     10  N   LIG    1        1.994   0.130   1.401  0.00  0.00    -0.630 N 
ATOM     11  C   LIG    1        0.675  -0.509   1.284  0.00  0.00    +0.310 C 
ATOM     12  C   LIG    1        3.103  -0.607   1.612  0.00  0.00    +0.730 C 
ATOM     13  N   LIG    1        4.314  -0.015   1.617  0.00  0.00    -0.750 N 
ATOM     14  H   LIG    1        4.383   0.950   1.540  0.00  0.00    +0.390 HD
ATOM     15  O   LIG    1        3.012  -1.804   1.798  0.00  0.00    -0.580 OA
ATOM     16  C   LIG    1        0.001  -0.003   0.004  0.00  0.00    +0.170 C 
ENDBRANCH   1  13
BRANCH   5  17
ATOM     17  S   LIG    1        5.299  -1.093   4.498  0.00  0.00    +2.700 S 
ATOM     18  O   LIG    1        3.908  -1.029   4.213  0.00  0.00    -0.930 OA
ATOM     19  O   LIG    1        5.918  -0.335   5.528  0.00  0.00    -0.960 OA
BRANCH  17  20
ATOM     20  C   LIG    1        5.658  -2.784   4.840  0.00  0.00    -0.680 A 
ATOM     21  C   LIG    1        4.833  -3.779   4.349  0.00  0.00    +0.160 A 
ATOM     22  C   LIG    1        5.118  -5.106   4.613  0.00  0.00    +0.010 A 
ATOM     23  C   LIG    1        6.222  -5.437   5.378  0.00  0.00    +0.020 A 
ATOM     24  C   LIG    1        7.044  -4.441   5.873  0.00  0.00    +0.010 A 
ATOM     25 CL   LIG    1        6.575  -7.103   5.716  0.00  0.00    -0.050 Cl
ATOM     26  C   LIG    1        6.762  -3.115   5.603  0.00  0.00    +0.140 A 
ENDBRANCH  17  20
ENDBRANCH   5  17
TORSDOF 3
