REMARK  Name = ZINCrH000004v3iK.0
REMARK                            x       y       z     vdW  Elec       q    Type
REMARK                         _______ _______ _______ _____ _____    ______ ____
ROOT
ATOM      1  O   LIG    1        0.830   3.731  -2.084  0.00  0.00    -0.570 OA
ATOM      2  C   LIG    1        1.105   4.259  -1.024  0.00  0.00    +0.700 C 
ATOM      3  N   LIG    1        1.248   3.508   0.086  0.00  0.00    -0.730 N 
ATOM      4  H   LIG    1        1.467   3.929   0.931  0.00  0.00    +0.400 HD
ATOM      5  N   LIG    1        1.266   5.596  -0.959  0.00  0.00    -0.690 N 
ATOM      6  H   LIG    1        1.409   6.025  -0.101  0.00  0.00    +0.410 HD
ENDROOT
BRANCH   3   7
ATOM      7  C   LIG    1        1.073   2.055   0.014  0.00  0.00    +0.250 C 
ATOM      8  C   LIG    1       -0.413   1.711   0.152  0.00  0.00    -0.010 C 
ATOM      9  C   LIG    1       -0.578   0.189   0.155  0.00  0.00    +0.230 C 
ATOM     10  O   LIG    1        0.192  -0.370   1.221  0.00  0.00    -0.370 OA
ATOM     11  C   LIG    1        1.596  -0.121   1.120  0.00  0.00    +0.210 C 
ATOM     12  C   LIG    1        1.848   1.389   1.155  0.00  0.00    +0.010 C 
BRANCH  11  13
ATOM     13  C   LIG    1        2.307  -0.777   2.275  0.00  0.00    -0.140 A 
ATOM     14  C   LIG    1        3.568  -1.327   2.102  0.00  0.00    +0.080 A 
ATOM     15  C   LIG    1        4.187  -1.915   3.194  0.00  0.00    -0.030 A 
ATOM     16  C   LIG    1        3.527  -1.944   4.407  0.00  0.00    +0.260 A 
ATOM     17  N   LIG    1        2.326  -1.415   4.535  0.00  0.00    -0.490 NA
ATOM     18  C   LIG    1        1.709  -0.842   3.519  0.00  0.00    +0.290 A 
ENDBRANCH  11  13
ENDBRANCH   3   7
BRANCH   5  19
ATOM     19  C   LIG    1        1.228   6.362  -2.126  0.00  0.00    +0.190 A 
ATOM     20  C   LIG    1        1.713   5.836  -3.318  0.00  0.00    +0.020 A 
ATOM     21  C   LIG    1        1.672   6.587  -4.472  0.00  0.00    +0.090 A 
ATOM     22  C   LIG    1        1.152   7.883  -4.442  0.00  0.00    -0.040 A 
ATOM     23  C   LIG    1        0.670   8.411  -3.242  0.00  0.00    +0.080 A 
ATOM     24  C   LIG    1        0.709   7.652  -2.092  0.00  0.00    -0.020 A 
BRANCH  22  25
ATOM     25  C   LIG    1        1.112   8.693  -5.676  0.00  0.00    +0.240 A 
ATOM     26  N   LIG    1        1.532   8.310  -6.859  0.00  0.00    -0.470 NA
ATOM     27  C   LIG    1        1.334   9.311  -7.730  0.00  0.00    +0.150 A 
ATOM     28  C   LIG    1        0.775  10.335  -7.061  0.00  0.00    +0.150 A 
ATOM     29  O   LIG    1        0.632   9.945  -5.778  0.00  0.00    -0.200 OA
ENDBRANCH  22  25
ENDBRANCH   5  19
TORSDOF 4
