REMARK  Name = ZINCpk000000npz2.0
REMARK                            x       y       z     vdW  Elec       q    Type
REMARK                         _______ _______ _______ _____ _____    ______ ____
ROOT
ATOM      1  C   LIG    1        4.156   5.034  -1.215  0.00  0.00    +0.240 C 
ATOM      2  C   LIG    1        2.909   5.671  -0.586  0.00  0.00    +0.320 C 
ATOM      3  N   LIG    1        2.380   4.313  -0.387  0.00  0.00    -0.640 N 
ATOM      4  C   LIG    1        1.158   3.752  -0.293  0.00  0.00    +0.570 C 
ATOM      5  O   LIG    1        1.051   2.573  -0.028  0.00  0.00    -0.530 OA
ATOM      6  C   LIG    1        3.771   3.838  -0.328  0.00  0.00    +0.320 C 
ENDROOT
BRANCH   4   7
ATOM      7  C   LIG    1       -0.075   4.588  -0.519  0.00  0.00    +0.060 C 
ATOM      8  C   LIG    1       -1.231   3.680  -0.933  0.00  0.00    +0.050 C 
ATOM      9  C   LIG    1       -2.518   4.512  -0.953  0.00  0.00    +0.030 C 
ATOM     10  C   LIG    1       -2.885   4.865   0.488  0.00  0.00    +0.080 C 
ATOM     11  C   LIG    1       -1.704   5.461   1.204  0.00  0.00    -0.110 A 
ATOM     12  C   LIG    1       -1.942   6.174   2.375  0.00  0.00    +0.060 A 
ATOM     13  C   LIG    1       -0.867   6.726   3.051  0.00  0.00    -0.030 A 
ATOM     14  C   LIG    1        0.405   6.550   2.539  0.00  0.00    +0.260 A 
ATOM     15  N   LIG    1        0.591   5.871   1.428  0.00  0.00    -0.490 NA
ATOM     16  C   LIG    1       -0.411   5.330   0.749  0.00  0.00    +0.130 A 
ENDBRANCH   4   7
BRANCH   1  19
ATOM     17  C   LIG    1        3.570   3.881  -4.563  0.00  0.00    -0.060 A 
ATOM     18  C   LIG    1        3.448   3.710  -3.226  0.00  0.00    +0.180 A 
ATOM     19  N   LIG    1        4.042   4.783  -2.653  0.00  0.00    -0.270 N 
ATOM     20  N   LIG    1        4.483   5.547  -3.590  0.00  0.00    -0.080 NA
ATOM     21  N   LIG    1        4.223   5.035  -4.741  0.00  0.00    -0.250 NA
BRANCH  17  23
ATOM     22  C   LIG    1        3.250   3.615  -7.008  0.00  0.00    +0.030 C 
ATOM     23  C   LIG    1        3.067   2.954  -5.640  0.00  0.00    +0.220 C 
ATOM     24  C   LIG    1        3.859   1.645  -5.596  0.00  0.00    +0.060 C 
BRANCH  23  25
ATOM     25  O   LIG    1        1.682   2.680  -5.424  0.00  0.00    -0.550 OA
ATOM     26  H   LIG    1        1.118   3.466  -5.439  0.00  0.00    +0.380 HD
ENDBRANCH  23  25
ENDBRANCH  17  23
ENDBRANCH   1  19
TORSDOF 4
