REMARK  Name = ZINCrD000000AqEA.0
REMARK                            x       y       z     vdW  Elec       q    Type
REMARK                         _______ _______ _______ _____ _____    ______ ____
ROOT
ATOM      1  C   LIG    1      -10.882   1.878  -0.624  0.00  0.00    +0.130 A 
ATOM      2  C   LIG    1      -10.378   2.223   0.622  0.00  0.00    -0.010 A 
ATOM      3  C   LIG    1       -9.191   2.924   0.716  0.00  0.00    +0.060 A 
ATOM      4  C   LIG    1       -8.505   3.281  -0.430  0.00  0.00    -0.120 A 
ATOM      5  C   LIG    1       -9.008   2.943  -1.673  0.00  0.00    +0.060 A 
ATOM      6  C   LIG    1      -10.191   2.237  -1.772  0.00  0.00    -0.080 A 
ENDROOT
BRANCH   1   7
ATOM      7  O   LIG    1      -12.050   1.189  -0.719  0.00  0.00    -0.290 OA
BRANCH   7   8
ATOM      8  C   LIG    1      -12.508   0.868  -2.034  0.00  0.00    +0.240 C 
BRANCH   8  10
ATOM      9  O   LIG    1      -14.293  -0.131  -0.857  0.00  0.00    -0.510 OA
ATOM     10  C   LIG    1      -13.807   0.110  -1.942  0.00  0.00    +0.520 C 
ATOM     11  N   LIG    1      -14.429  -0.300  -3.065  0.00  0.00    -0.700 N 
ATOM     12  H   LIG    1      -14.041  -0.107  -3.932  0.00  0.00    +0.400 HD
BRANCH  11  13
ATOM     13  C   LIG    1      -15.692  -1.037  -2.975  0.00  0.00    +0.220 C 
ATOM     14  C   LIG    1      -15.862  -2.261  -3.877  0.00  0.00    +0.020 C 
ATOM     15  C   LIG    1      -16.634  -0.974  -4.179  0.00  0.00    +0.020 C 
ENDBRANCH  11  13
ENDBRANCH   8  10
ENDBRANCH   7   8
ENDBRANCH   1   7
BRANCH   4  16
ATOM     16  C   LIG    1       -7.211   4.045  -0.325  0.00  0.00    +0.070 C 
BRANCH  16  17
ATOM     17  C   LIG    1       -6.043   3.061  -0.239  0.00  0.00    +0.280 C 
BRANCH  17  18
ATOM     18  N   LIG    1       -4.784   3.804  -0.137  0.00  0.00    -0.740 N 
ATOM     19  H   LIG    1       -4.793   4.774  -0.132  0.00  0.00    +0.400 HD
ATOM     20  C   LIG    1       -3.615   3.139  -0.050  0.00  0.00    +0.700 C 
ATOM     21  N   LIG    1       -2.457   3.823   0.045  0.00  0.00    -0.690 N 
ATOM     22  H   LIG    1       -2.470   4.790   0.128  0.00  0.00    +0.410 HD
ATOM     23  O   LIG    1       -3.604   1.924  -0.056  0.00  0.00    -0.570 OA
BRANCH  21  24
ATOM     24  C   LIG    1       -1.236   3.138   0.023  0.00  0.00    +0.170 A 
ATOM     25  C   LIG    1       -0.161   3.611   0.763  0.00  0.00    +0.000 A 
ATOM     26  C   LIG    1        1.044   2.937   0.736  0.00  0.00    +0.050 A 
ATOM     27  C   LIG    1        1.177   1.785  -0.019  0.00  0.00    -0.050 A 
ATOM     28  C   LIG    1        0.105   1.309  -0.754  0.00  0.00    +0.050 A 
ATOM     29 CL   LIG    1        2.691   0.936  -0.046  0.00  0.00    -0.070 Cl
ATOM     30  C   LIG    1       -1.100   1.983  -0.734  0.00  0.00    +0.030 A 
ENDBRANCH  21  24
ENDBRANCH  17  18
ENDBRANCH  16  17
ENDBRANCH   4  16
TORSDOF 8
