REMARK  Name = ZINCkj000005j7ns.0
REMARK                            x       y       z     vdW  Elec       q    Type
REMARK                         _______ _______ _______ _____ _____    ______ ____
ROOT
ATOM      1  C   LIG    1       -2.108   5.047  -3.543  0.00  0.00    +0.000 C 
ATOM      2  C   LIG    1       -3.029   4.128  -4.349  0.00  0.00    +0.020 C 
ATOM      3  C   LIG    1       -3.319   2.860  -3.544  0.00  0.00    +0.030 C 
ATOM      4  C   LIG    1       -4.033   3.239  -2.242  0.00  0.00    +0.290 C 
ATOM      5  N   LIG    1       -3.220   4.234  -1.529  0.00  0.00    -0.990 NA
ATOM      6  C   LIG    1       -2.813   5.454  -2.240  0.00  0.00    +0.290 C 
ENDROOT
BRANCH   5   7
ATOM      7  S   LIG    1       -2.777   3.988   0.047  0.00  0.00    +2.690 S 
ATOM      8  O   LIG    1       -2.518   5.273   0.596  0.00  0.00    -0.940 OA
ATOM      9  O   LIG    1       -3.729   3.087   0.596  0.00  0.00    -0.930 OA
BRANCH   7  10
ATOM     10  C   LIG    1       -1.236   3.134   0.029  0.00  0.00    -0.660 A 
ATOM     11  C   LIG    1       -1.216   1.751   0.017  0.00  0.00    +0.130 A 
ATOM     12  C   LIG    1       -0.013   1.076   0.008  0.00  0.00    +0.060 A 
ATOM     13  C   LIG    1        1.186   1.792   0.000  0.00  0.00    +0.040 A 
ATOM     14  C   LIG    1        1.158   3.188   0.008  0.00  0.00    +0.060 A 
ATOM     15  C   LIG    1       -0.052   3.850   0.022  0.00  0.00    +0.130 A 
BRANCH  13  16
ATOM     16  C   LIG    1        2.438   1.098  -0.014  0.00  0.00    +0.230 C 
ATOM     17  N   LIG    1        3.432   0.547  -0.026  0.00  0.00    -0.380 NA
ENDBRANCH  13  16
ENDBRANCH   7  10
ENDBRANCH   5   7
BRANCH   1  19
ATOM     18  C   LIG    1       -1.095   5.895  -5.664  0.00  0.00    +0.100 C 
ATOM     19  C   LIG    1       -1.791   6.300  -4.363  0.00  0.00    +0.180 C 
BRANCH  19  20
ATOM     20  N   LIG    1       -3.039   7.009  -4.675  0.00  0.00    -0.640 N 
ATOM     21  H   LIG    1       -3.646   6.404  -5.207  0.00  0.00    +0.430 HD
ATOM     22  H   LIG    1       -2.830   7.835  -5.216  0.00  0.00    +0.440 HD
ATOM     23  H   LIG    1       -3.498   7.276  -3.817  0.00  0.00    +0.430 HD
ENDBRANCH  19  20
ENDBRANCH   1  19
TORSDOF 5
