REMARK  Name = ZINCrg00000IYYDS.0
REMARK                            x       y       z     vdW  Elec       q    Type
REMARK                         _______ _______ _______ _____ _____    ______ ____
ROOT
ATOM      1  C   LIG    1       -2.337   0.825   0.061  0.00  0.00    +0.280 C 
ENDROOT
BRANCH   1   2
ATOM      2  C   LIG    1       -3.695   1.458  -0.093  0.00  0.00    +0.520 C 
ATOM      3  N   LIG    1       -3.998   2.140  -1.216  0.00  0.00    -0.670 N 
ATOM      4  H   LIG    1       -3.316   2.294  -1.889  0.00  0.00    +0.410 HD
ATOM      5  O   LIG    1       -4.517   1.354   0.793  0.00  0.00    -0.490 OA
BRANCH   3   6
ATOM      6  C   LIG    1       -5.296   2.627  -1.411  0.00  0.00    +0.150 A 
ATOM      7  C   LIG    1       -6.370   2.019  -0.774  0.00  0.00    +0.060 A 
ATOM      8  C   LIG    1       -7.649   2.501  -0.968  0.00  0.00    +0.010 A 
ATOM      9  C   LIG    1       -7.863   3.589  -1.797  0.00  0.00    +0.080 A 
ATOM     10  C   LIG    1       -6.793   4.196  -2.434  0.00  0.00    +0.040 A 
ATOM     11  F   LIG    1       -9.115   4.058  -1.985  0.00  0.00    -0.140 F 
ATOM     12  C   LIG    1       -5.511   3.722  -2.238  0.00  0.00    -0.100 A 
BRANCH  12  13
ATOM     13  C   LIG    1       -4.347   4.388  -2.925  0.00  0.00    +0.240 C 
BRANCH  13  14
ATOM     14  O   LIG    1       -4.822   5.481  -3.714  0.00  0.00    -0.560 OA
ATOM     15  H   LIG    1       -4.125   5.957  -4.186  0.00  0.00    +0.390 HD
ENDBRANCH  13  14
ENDBRANCH  12  13
ENDBRANCH   3   6
ENDBRANCH   1   2
BRANCH   1  16
ATOM     16  N   LIG    1       -2.257   0.148   1.358  0.00  0.00    -0.700 N 
ATOM     17  H   LIG    1       -2.870   0.390   2.069  0.00  0.00    +0.420 HD
ATOM     18  C   LIG    1       -1.333  -0.811   1.562  0.00  0.00    +0.560 C 
ATOM     19  O   LIG    1       -0.506  -1.051   0.703  0.00  0.00    -0.530 OA
BRANCH  18  20
ATOM     20  C   LIG    1       -1.323  -1.570   2.829  0.00  0.00    -0.180 A 
ATOM     21  C   LIG    1       -2.271  -1.297   3.817  0.00  0.00    +0.090 A 
ATOM     22  C   LIG    1       -2.257  -2.009   4.998  0.00  0.00    +0.000 A 
ATOM     23  C   LIG    1       -1.306  -2.993   5.206  0.00  0.00    +0.080 A 
ATOM     24  C   LIG    1       -0.364  -3.271   4.234  0.00  0.00    -0.030 A 
ATOM     25  C   LIG    1       -0.369  -2.570   3.042  0.00  0.00    +0.160 A 
ATOM     26  F   LIG    1        0.549  -2.845   2.090  0.00  0.00    -0.110 F 
ENDBRANCH  18  20
ENDBRANCH   1  16
BRANCH   1  27
ATOM     27  C   LIG    1       -1.258   1.907  -0.016  0.00  0.00    +0.070 C 
BRANCH  27  31
ATOM     28  N   LIG    1       -0.496   3.822   1.352  0.00  0.00    -0.850 N 
ATOM     29  H   LIG    1        0.252   3.921   0.742  0.00  0.00    +0.400 HD
ATOM     30  H   LIG    1       -0.589   4.425   2.106  0.00  0.00    +0.400 HD
ATOM     31  C   LIG    1       -1.405   2.848   1.152  0.00  0.00    +0.510 C 
ATOM     32  O   LIG    1       -2.340   2.725   1.915  0.00  0.00    -0.520 OA
ENDBRANCH  27  31
ENDBRANCH   1  27
TORSDOF 8
