REMARK  Name = ZINCrg00000fS4Bc.1
REMARK                            x       y       z     vdW  Elec       q    Type
REMARK                         _______ _______ _______ _____ _____    ______ ____
ROOT
ATOM      1  C   LIG    1        3.324   2.748  -0.414  0.00  0.00    -0.010 C 
ATOM      2  C   LIG    1        2.867   3.939   0.433  0.00  0.00    +0.090 C 
ATOM      3  C   LIG    1        1.453   4.357   0.016  0.00  0.00    +0.330 C 
ATOM      4  N   LIG    1        0.594   3.170   0.015  0.00  0.00    -0.400 N 
ATOM      5  C   LIG    1        1.058   1.879   0.002  0.00  0.00    +0.060 C 
ATOM      6  C   LIG    1       -0.013   1.076   0.008  0.00  0.00    +0.240 C 
ATOM      7  N   LIG    1       -1.109   1.853   0.017  0.00  0.00    -0.480 N 
ATOM      8  H   LIG    1       -2.025   1.532   0.018  0.00  0.00    +0.460 HD
ATOM      9  C   LIG    1       -0.749   3.110   0.026  0.00  0.00    +0.320 C 
ATOM     10  C   LIG    1        2.518   1.503  -0.017  0.00  0.00    +0.180 C 
ENDROOT
BRANCH   9  11
ATOM     11  C   LIG    1       -1.682   4.293   0.040  0.00  0.00    +0.080 C 
ATOM     12  C   LIG    1       -2.084   4.608   1.482  0.00  0.00    +0.030 C 
ATOM     13  C   LIG    1       -3.032   5.809   1.497  0.00  0.00    +0.030 C 
ATOM     14  C   LIG    1       -4.283   5.482   0.679  0.00  0.00    +0.010 C 
ATOM     15  C   LIG    1       -3.881   5.167  -0.763  0.00  0.00    +0.030 C 
ATOM     16  C   LIG    1       -2.933   3.966  -0.778  0.00  0.00    +0.030 C 
ENDBRANCH   9  11
BRANCH   1  19
ATOM     17  N   LIG    1        5.413   1.486  -0.818  0.00  0.00    -0.720 N 
ATOM     18  H   LIG    1        4.918   0.925  -1.435  0.00  0.00    +0.400 HD
ATOM     19  C   LIG    1        4.790   2.494  -0.175  0.00  0.00    +0.510 C 
ATOM     20  O   LIG    1        5.410   3.196   0.596  0.00  0.00    -0.530 OA
BRANCH  17  21
ATOM     21  C   LIG    1        6.839   1.240  -0.586  0.00  0.00    +0.290 C 
BRANCH  21  22
ATOM     22  C   LIG    1        7.295   0.050  -1.433  0.00  0.00    +0.040 C 
BRANCH  22  24
ATOM     23  N   LIG    1        9.384  -1.212  -1.837  0.00  0.00    -1.130 NA
ATOM     24  C   LIG    1        8.761  -0.204  -1.194  0.00  0.00    +0.530 C 
ATOM     25  O   LIG    1        9.380   0.498  -0.423  0.00  0.00    -0.630 OA
BRANCH  23  27
ATOM     26  C   LIG    1       11.386  -2.912  -2.633  0.00  0.00    -0.310 C 
ATOM     27  S   LIG    1       10.995  -1.490  -1.575  0.00  0.00    +2.560 S 
ATOM     28  O   LIG    1       11.069  -1.854  -0.203  0.00  0.00    -1.020 OA
ATOM     29  O   LIG    1       11.637  -0.318  -2.058  0.00  0.00    -1.020 OA
ENDBRANCH  23  27
ENDBRANCH  22  24
ENDBRANCH  21  22
ENDBRANCH  17  21
ENDBRANCH   1  19
TORSDOF 6
