REMARK  Name = ZINCqH0000001HsH.0
REMARK                            x       y       z     vdW  Elec       q    Type
REMARK                         _______ _______ _______ _____ _____    ______ ____
ROOT
ATOM      1  C   LIG    1        3.204   3.884  -0.489  0.00  0.00    +0.460 C 
ATOM      2  O   LIG    1        2.557   3.586  -1.466  0.00  0.00    -0.480 OA
ENDROOT
BRANCH   1   3
ATOM      3  O   LIG    1        2.677   3.734   0.736  0.00  0.00    -0.340 OA
BRANCH   3  10
ATOM      4  C   LIG    1        0.631   3.769   2.056  0.00  0.00    +0.000 C 
ATOM      5  C   LIG    1       -0.793   3.216   2.136  0.00  0.00    +0.030 C 
ATOM      6  C   LIG    1       -0.743   1.689   2.225  0.00  0.00    +0.020 C 
ATOM      7  C   LIG    1       -0.048   1.129   0.982  0.00  0.00    -0.010 C 
ATOM      8  C   LIG    1        1.376   1.682   0.901  0.00  0.00    +0.010 C 
ATOM      9  C   LIG    1       -0.828   1.542  -0.268  0.00  0.00    +0.020 C 
ATOM     10  C   LIG    1        1.326   3.209   0.813  0.00  0.00    +0.190 C 
BRANCH   4  12
ATOM     11  C   LIG    1       -0.220   5.709   0.731  0.00  0.00    +0.010 C 
ATOM     12  C   LIG    1        0.581   5.296   1.967  0.00  0.00    -0.010 C 
ATOM     13  C   LIG    1       -0.092   5.857   3.222  0.00  0.00    +0.030 C 
ENDBRANCH   4  12
ENDBRANCH   3  10
ENDBRANCH   1   3
BRANCH   1  14
ATOM     14  C   LIG    1        4.602   4.423  -0.648  0.00  0.00    +0.310 C 
BRANCH  14  15
ATOM     15  O   LIG    1        4.938   4.490  -2.059  0.00  0.00    -0.330 OA
BRANCH  15  16
ATOM     16  C   LIG    1        6.163   4.955  -2.374  0.00  0.00    +0.510 C 
ATOM     17  O   LIG    1        6.929   5.295  -1.495  0.00  0.00    -0.450 OA
BRANCH  16  18
ATOM     18  C   LIG    1        6.574   5.051  -3.790  0.00  0.00    -0.050 A 
ATOM     19  C   LIG    1        6.518   3.926  -4.614  0.00  0.00    +0.090 A 
ATOM     20  C   LIG    1        6.903   4.022  -5.935  0.00  0.00    +0.090 A 
ATOM     21  C   LIG    1        7.346   5.231  -6.444  0.00  0.00    +0.070 A 
ATOM     22  C   LIG    1        7.404   6.350  -5.632  0.00  0.00    +0.110 A 
ATOM     23  C   LIG    1        7.016   6.269  -4.311  0.00  0.00    -0.000 A 
BRANCH  23  24
ATOM     24  N   LIG    1        7.072   7.469  -3.446  0.00  0.00    +0.020 N 
ATOM     25  O   LIG    1        6.616   7.428  -2.317  0.00  0.00    -0.140 OA
ATOM     26  O   LIG    1        7.576   8.496  -3.863  0.00  0.00    -0.140 OA
ENDBRANCH  23  24
ENDBRANCH  16  18
ENDBRANCH  15  16
ENDBRANCH  14  15
ENDBRANCH   1  14
TORSDOF 8
