REMARK  Name = ZINCpk00000eaEh5.0
REMARK                            x       y       z     vdW  Elec       q    Type
REMARK                         _______ _______ _______ _____ _____    ______ ____
ROOT
ATOM      1  C   LIG    1       -4.694   2.067  -4.042  0.00  0.00    -0.150 A 
ATOM      2  C   LIG    1       -5.053   3.327  -3.554  0.00  0.00    +0.070 A 
ATOM      3  C   LIG    1       -5.930   4.114  -4.266  0.00  0.00    -0.010 A 
ATOM      4  C   LIG    1       -6.467   3.654  -5.463  0.00  0.00    +0.170 A 
ATOM      5  C   LIG    1       -6.116   2.398  -5.949  0.00  0.00    +0.010 A 
ATOM      6  C   LIG    1       -5.236   1.607  -5.246  0.00  0.00    +0.100 A 
ENDROOT
BRANCH   1   9
ATOM      7  N   LIG    1       -3.229   1.667  -2.124  0.00  0.00    -0.720 N 
ATOM      8  H   LIG    1       -3.474   2.542  -1.787  0.00  0.00    +0.400 HD
ATOM      9  C   LIG    1       -3.751   1.222  -3.285  0.00  0.00    +0.560 C 
ATOM     10  O   LIG    1       -3.444   0.124  -3.708  0.00  0.00    -0.530 OA
BRANCH   7  12
ATOM     11  C   LIG    1       -3.076  -0.138  -0.481  0.00  0.00    +0.020 C 
ATOM     12  C   LIG    1       -2.293   0.828  -1.373  0.00  0.00    +0.260 C 
BRANCH  12  13
ATOM     13  C   LIG    1       -1.399   1.714  -0.503  0.00  0.00    -0.060 C 
ATOM     14  C   LIG    1       -0.271   1.033   0.274  0.00  0.00    +0.030 C 
ATOM     15  C   LIG    1       -1.505   1.551   1.015  0.00  0.00    +0.010 C 
ENDBRANCH  12  13
ENDBRANCH   7  12
ENDBRANCH   1   9
BRANCH   4  16
ATOM     16  N   LIG    1       -7.359   4.452  -6.178  0.00  0.00    -0.660 N 
ATOM     17  H   LIG    1       -7.261   5.417  -6.170  0.00  0.00    +0.420 HD
ATOM     18  C   LIG    1       -8.359   3.882  -6.880  0.00  0.00    +0.540 C 
ATOM     19  O   LIG    1       -8.541   2.685  -6.814  0.00  0.00    -0.500 OA
BRANCH  18  20
ATOM     20  C   LIG    1       -9.250   4.733  -7.748  0.00  0.00    +0.120 C 
BRANCH  20  21
ATOM     21  S   LIG    1      -10.486   3.685  -8.555  0.00  0.00    +0.120 S 
BRANCH  21  22
ATOM     22  C   LIG    1      -11.365   4.903  -9.477  0.00  0.00    +0.190 A 
ATOM     23  N   LIG    1      -11.114   6.194  -9.505  0.00  0.00    -0.340 NA
ATOM     24  N   LIG    1      -11.944   6.796 -10.278  0.00  0.00    -0.030 NA
ATOM     25  N   LIG    1      -12.771   5.952 -10.792  0.00  0.00    -0.070 NA
ATOM     26  N   LIG    1      -12.422   4.685 -10.294  0.00  0.00    -0.360 N 
ATOM     27  C   LIG    1      -13.065   3.403 -10.594  0.00  0.00    +0.390 C 
ENDBRANCH  21  22
ENDBRANCH  20  21
ENDBRANCH  18  20
ENDBRANCH   4  16
TORSDOF 7
