REMARK  Name = ZINCpe00000MJMFX.0
REMARK                            x       y       z     vdW  Elec       q    Type
REMARK                         _______ _______ _______ _____ _____    ______ ____
ROOT
ATOM      1  N   LIG    1        1.077   1.490   2.646  0.00  0.00    -0.670 N 
ATOM      2  H   LIG    1        1.618   1.092   1.946  0.00  0.00    +0.410 HD
ATOM      3  C   LIG    1       -0.223   1.765   2.418  0.00  0.00    +0.730 C 
ATOM      4  N   LIG    1       -0.747   1.575   1.191  0.00  0.00    -0.630 N 
ATOM      5  C   LIG    1       -0.016   1.073   0.011  0.00  0.00    +0.270 C 
ATOM      6  C   LIG    1       -0.812   1.602  -1.211  0.00  0.00    +0.080 C 
ATOM      7  C   LIG    1       -2.259   1.518  -0.693  0.00  0.00    +0.100 C 
ATOM      8  N   LIG    1       -3.138   2.451  -1.391  0.00  0.00    -0.710 N 
ATOM      9  H   LIG    1       -3.047   3.415  -1.438  0.00  0.00    +0.450 HD
ATOM     10  C   LIG    1       -4.105   1.698  -1.957  0.00  0.00    +0.700 C 
ATOM     11  N   LIG    1       -3.949   0.392  -1.703  0.00  0.00    -0.580 N 
ATOM     12  C   LIG    1       -4.849  -0.656  -2.191  0.00  0.00    +0.340 C 
ATOM     13  O   LIG    1       -5.015   2.154  -2.622  0.00  0.00    -0.530 OA
ATOM     14  C   LIG    1       -2.856   0.161  -0.942  0.00  0.00    +0.540 C 
ATOM     15  O   LIG    1       -2.446  -0.909  -0.544  0.00  0.00    -0.450 OA
ATOM     16  C   LIG    1       -2.147   1.833   0.800  0.00  0.00    +0.330 C 
ATOM     17  O   LIG    1       -0.923   2.184   3.320  0.00  0.00    -0.560 OA
ENDROOT
BRANCH   1  21
ATOM     18  C   LIG    1        2.733   2.332   6.274  0.00  0.00    +0.310 A 
ATOM     19  N   LIG    1        1.478   1.934   6.220  0.00  0.00    -0.500 NA
ATOM     20  C   LIG    1        0.904   1.651   5.063  0.00  0.00    +0.340 A 
ATOM     21  C   LIG    1        1.645   1.780   3.892  0.00  0.00    +0.050 A 
ATOM     22  C   LIG    1        2.970   2.198   3.993  0.00  0.00    +0.300 A 
ATOM     23  N   LIG    1        3.469   2.466   5.188  0.00  0.00    -0.490 NA
BRANCH  18  24
ATOM     24  C   LIG    1        3.346   2.643   7.615  0.00  0.00    +0.130 C 
BRANCH  24  26
ATOM     25  C   LIG    1        5.151   0.945   7.303  0.00  0.00    +0.010 C 
ATOM     26  C   LIG    1        3.983   1.377   8.191  0.00  0.00    -0.020 C 
ATOM     27  C   LIG    1        4.494   1.661   9.604  0.00  0.00    +0.030 C 
ENDBRANCH  24  26
ENDBRANCH  18  24
ENDBRANCH   1  21
TORSDOF 3
