REMARK  Name = ZINCtV00000wylbM.0
REMARK                            x       y       z     vdW  Elec       q    Type
REMARK                         _______ _______ _______ _____ _____    ______ ____
ROOT
ATOM      1  C   LIG    1       -0.809   1.622  -1.200  0.00  0.00    +0.250 C 
ATOM      2  C   LIG    1       -0.013   1.086   0.008  0.00  0.00    +0.030 C 
ATOM      3  C   LIG    1       -0.789   1.611   1.242  0.00  0.00    +0.020 C 
ATOM      4  C   LIG    1       -2.268   1.485   0.789  0.00  0.00    +0.040 C 
ATOM      5  C   LIG    1       -2.243   1.875  -0.703  0.00  0.00    +0.030 C 
ENDROOT
BRANCH   5   6
ATOM      6  C   LIG    1       -3.216   1.022  -1.477  0.00  0.00    -0.050 A 
ATOM      7  C   LIG    1       -3.097  -0.354  -1.454  0.00  0.00    +0.020 A 
ATOM      8  C   LIG    1       -3.992  -1.137  -2.159  0.00  0.00    +0.080 A 
ATOM      9  C   LIG    1       -4.999  -0.542  -2.896  0.00  0.00    -0.180 A 
ATOM     10  C   LIG    1       -5.114   0.835  -2.923  0.00  0.00    +0.070 A 
ATOM     11  C   LIG    1       -4.223   1.617  -2.213  0.00  0.00    +0.020 A 
BRANCH   9  12
ATOM     12  C   LIG    1       -5.972  -1.395  -3.669  0.00  0.00    +0.510 C 
ATOM     13  F   LIG    1       -7.206  -0.741  -3.747  0.00  0.00    -0.180 F 
ATOM     14  F   LIG    1       -6.135  -2.623  -3.018  0.00  0.00    -0.180 F 
ATOM     15  F   LIG    1       -5.477  -1.613  -4.959  0.00  0.00    -0.180 F 
ENDBRANCH   9  12
ENDBRANCH   5   6
BRANCH   1  17
ATOM     16  C   LIG    1       -0.095   4.019  -0.773  0.00  0.00    +0.320 C 
ATOM     17  N   LIG    1       -0.215   2.873  -1.678  0.00  0.00    -0.550 N 
BRANCH  17  18
ATOM     18  C   LIG    1        0.231   2.970  -2.974  0.00  0.00    +0.430 A 
ATOM     19  N   LIG    1        0.784   4.028  -3.537  0.00  0.00    -0.530 NA
ATOM     20  C   LIG    1        1.057   3.659  -4.807  0.00  0.00    +0.240 A 
ATOM     21  N   LIG    1        0.662   2.419  -4.946  0.00  0.00    -0.390 NA
ATOM     22  O   LIG    1        0.193   2.008  -3.906  0.00  0.00    +0.040 OA
BRANCH  20  23
ATOM     23  C   LIG    1        1.687   4.503  -5.853  0.00  0.00    -0.020 A 
ATOM     24  C   LIG    1        2.052   5.816  -5.564  0.00  0.00    +0.090 A 
ATOM     25  C   LIG    1        2.643   6.595  -6.537  0.00  0.00    +0.030 A 
ATOM     26  C   LIG    1        2.862   6.078  -7.803  0.00  0.00    -0.020 A 
ATOM     27  C   LIG    1        2.495   4.776  -8.096  0.00  0.00    +0.030 A 
ATOM     28 CL   LIG    1        3.599   7.066  -9.026  0.00  0.00    -0.060 Cl
ATOM     29  C   LIG    1        1.909   3.987  -7.128  0.00  0.00    +0.070 A 
ENDBRANCH  20  23
ENDBRANCH  17  18
ENDBRANCH   1  17
TORSDOF 5
