REMARK  Name = ZINCrD000000D5Zx.0
REMARK                            x       y       z     vdW  Elec       q    Type
REMARK                         _______ _______ _______ _____ _____    ______ ____
ROOT
ATOM      1  O   LIG    1       -1.816   1.461  -1.214  0.00  0.00    -0.900 OA
ATOM      2  S   LIG    1       -3.232   1.571  -1.246  0.00  0.00    +2.670 S 
ATOM      3  O   LIG    1       -4.101   0.595  -0.687  0.00  0.00    -0.920 OA
ENDROOT
BRANCH   2   4
ATOM      4  C   LIG    1       -3.680   1.721  -2.944  0.00  0.00    -0.730 A 
ATOM      5  C   LIG    1       -4.979   1.457  -3.342  0.00  0.00    +0.220 A 
ATOM      6  C   LIG    1       -5.334   1.579  -4.677  0.00  0.00    +0.040 A 
ATOM      7  C   LIG    1       -4.385   1.955  -5.614  0.00  0.00    +0.150 A 
ATOM      8  C   LIG    1       -3.083   2.213  -5.215  0.00  0.00    +0.030 A 
ATOM      9  F   LIG    1       -2.157   2.580  -6.128  0.00  0.00    -0.090 F 
ATOM     10  F   LIG    1       -4.728   2.069  -6.915  0.00  0.00    -0.080 F 
ATOM     11  F   LIG    1       -6.603   1.327  -5.064  0.00  0.00    -0.090 F 
ATOM     12  F   LIG    1       -5.904   1.086  -2.429  0.00  0.00    -0.080 F 
ATOM     13  C   LIG    1       -2.732   2.096  -3.879  0.00  0.00    +0.230 A 
ATOM     14  F   LIG    1       -1.463   2.348  -3.490  0.00  0.00    -0.060 F 
ENDBRANCH   2   4
BRANCH   2  15
ATOM     15  N   LIG    1       -3.607   3.007  -0.512  0.00  0.00    -0.980 NA
ATOM     16  C   LIG    1       -5.007   3.382  -0.259  0.00  0.00    +0.250 C 
ATOM     17  C   LIG    1       -5.144   3.783   1.214  0.00  0.00    +0.240 C 
ATOM     18  N   LIG    1       -4.155   4.823   1.530  0.00  0.00    -0.680 NA
ATOM     19  H   LIG    1       -4.305   5.647   0.968  0.00  0.00    +0.350 HD
ATOM     20  C   LIG    1       -2.784   4.320   1.370  0.00  0.00    +0.240 C 
ATOM     21  C   LIG    1       -2.550   3.941  -0.096  0.00  0.00    +0.250 C 
BRANCH  21  22
ATOM     22  C   LIG    1       -1.204   3.278  -0.239  0.00  0.00    -0.070 A 
ATOM     23  C   LIG    1       -0.743   2.430   0.749  0.00  0.00    +0.050 A 
ATOM     24  C   LIG    1        0.494   1.826   0.621  0.00  0.00    +0.030 A 
ATOM     25  C   LIG    1        1.265   2.061  -0.502  0.00  0.00    +0.030 A 
ATOM     26  C   LIG    1        0.803   2.905  -1.494  0.00  0.00    +0.030 A 
ATOM     27  C   LIG    1       -0.432   3.514  -1.363  0.00  0.00    -0.000 A 
ATOM     28 CL   LIG    1       -1.014   4.574  -2.609  0.00  0.00    -0.080 Cl
ENDBRANCH  21  22
ENDBRANCH   2  15
TORSDOF 3
