REMARK  Name = ZINCnE000001LtAQ.1
REMARK                            x       y       z     vdW  Elec       q    Type
REMARK                         _______ _______ _______ _____ _____    ______ ____
ROOT
ATOM      1  N   LIG    1       -0.524   1.433  -3.689  0.00  0.00    -0.690 NA
ATOM      2  C   LIG    1       -0.047   1.107  -2.471  0.00  0.00    +0.460 C 
ATOM      3  O   LIG    1        0.949   0.422  -2.373  0.00  0.00    -0.570 OA
ENDROOT
BRANCH   1   9
ATOM      4  C   LIG    1        2.489  -0.638  -8.655  0.00  0.00    +0.080 A 
ATOM      5  C   LIG    1        3.225  -1.142  -7.587  0.00  0.00    -0.060 A 
ATOM      6  C   LIG    1        2.846  -0.882  -6.295  0.00  0.00    +0.040 A 
ATOM      7  C   LIG    1        1.704  -0.099  -6.027  0.00  0.00    +0.120 A 
ATOM      8  N   LIG    1        1.189   0.261  -4.833  0.00  0.00    -0.560 NA
ATOM      9  C   LIG    1        0.125   0.986  -4.830  0.00  0.00    +0.400 A 
ATOM     10  S   LIG    1       -0.385   1.334  -6.476  0.00  0.00    -0.030 S 
ATOM     11  C   LIG    1        0.971   0.403  -7.107  0.00  0.00    -0.180 A 
ATOM     12  C   LIG    1        1.366   0.131  -8.415  0.00  0.00    +0.030 A 
BRANCH   4  14
ATOM     13  C   LIG    1        4.043  -1.704 -10.105  0.00  0.00    +0.220 C 
ATOM     14  O   LIG    1        2.873  -0.902  -9.932  0.00  0.00    -0.320 OA
ENDBRANCH   4  14
ENDBRANCH   1   9
BRANCH   2  15
ATOM     15  C   LIG    1       -0.753   1.593  -1.232  0.00  0.00    +0.040 C 
BRANCH  15  16
ATOM     16  C   LIG    1       -0.013   1.086   0.008  0.00  0.00    +0.130 C 
BRANCH  16  17
ATOM     17  C   LIG    1       -0.718   1.572   1.248  0.00  0.00    -0.190 A 
ATOM     18  C   LIG    1       -0.500   2.718   1.937  0.00  0.00    -0.040 A 
ATOM     19  O   LIG    1       -1.366   2.716   2.960  0.00  0.00    +0.090 OA
ATOM     20  N   LIG    1       -2.051   1.720   2.961  0.00  0.00    -0.370 NA
ATOM     21  C   LIG    1        0.514   3.785   1.614  0.00  0.00    +0.190 C 
ATOM     22  C   LIG    1       -1.756   0.934   1.965  0.00  0.00    +0.020 A 
ATOM     23  C   LIG    1       -2.396  -0.391   1.641  0.00  0.00    +0.150 C 
ENDBRANCH  16  17
ENDBRANCH  15  16
ENDBRANCH   2  15
TORSDOF 5
