REMARK  Name = ZINCqH0000035UcR.2
REMARK                            x       y       z     vdW  Elec       q    Type
REMARK                         _______ _______ _______ _____ _____    ______ ____
ROOT
ATOM      1  C   LIG    1        1.121   3.580   0.011  0.00  0.00    +0.220 C 
ENDROOT
BRANCH   1   2
ATOM      2  C   LIG    1        1.141   2.074   0.002  0.00  0.00    +0.510 C 
ATOM      3  N   LIG    1       -0.017   1.384   0.010  0.00  0.00    -0.640 N 
ATOM      4  H   LIG    1       -0.863   1.857   0.016  0.00  0.00    +0.420 HD
ATOM      5  O   LIG    1        2.200   1.481  -0.011  0.00  0.00    -0.480 OA
BRANCH   3   6
ATOM      6  C   LIG    1        0.002  -0.004   0.002  0.00  0.00    +0.060 A 
ATOM      7  C   LIG    1       -1.114  -0.798   0.014  0.00  0.00    -0.120 A 
ATOM      8  C   LIG    1       -0.799  -2.209  -0.003  0.00  0.00    -0.050 A 
ATOM      9  C   LIG    1        0.504  -2.452  -0.016  0.00  0.00    -0.250 A 
ATOM     10  C   LIG    1        1.118  -3.829  -0.029  0.00  0.00    +0.150 C 
ATOM     11  C   LIG    1       -1.846  -3.293   0.001  0.00  0.00    +0.120 C 
ATOM     12  S   LIG    1        1.417  -0.954  -0.016  0.00  0.00    +0.320 S 
BRANCH   7  13
ATOM     13  C   LIG    1       -2.451  -0.285   0.036  0.00  0.00    +0.270 C 
ATOM     14  N   LIG    1       -3.511   0.122   0.053  0.00  0.00    -0.420 NA
ENDBRANCH   7  13
ENDBRANCH   3   6
ENDBRANCH   1   2
BRANCH   1  15
ATOM     15  N   LIG    1        2.499   4.089   0.000  0.00  0.00    -0.520 NA
ATOM     16  C   LIG    1        3.174   3.755  -1.262  0.00  0.00    +0.200 C 
BRANCH  15  17
ATOM     17  C   LIG    1        2.528   5.537   0.246  0.00  0.00    +0.170 C 
BRANCH  17  18
ATOM     18  C   LIG    1        3.972   5.987   0.475  0.00  0.00    +0.030 C 
BRANCH  18  19
ATOM     19  C   LIG    1        4.002   7.495   0.731  0.00  0.00    +0.070 C 
BRANCH  19  23
ATOM     20  C   LIG    1        8.036   8.751   1.373  0.00  0.00    +0.120 A 
ATOM     21  C   LIG    1        7.506   8.744   0.091  0.00  0.00    -0.020 A 
ATOM     22  C   LIG    1        6.201   8.338  -0.114  0.00  0.00    +0.050 A 
ATOM     23  C   LIG    1        5.424   7.938   0.957  0.00  0.00    -0.120 A 
ATOM     24  C   LIG    1        5.949   7.949   2.237  0.00  0.00    +0.040 A 
ATOM     25  C   LIG    1        7.254   8.349   2.446  0.00  0.00    -0.080 A 
BRANCH  20  27
ATOM     26  C   LIG    1        9.797   9.133   2.923  0.00  0.00    +0.250 C 
ATOM     27  O   LIG    1        9.318   9.152   1.577  0.00  0.00    -0.320 OA
ENDBRANCH  20  27
ENDBRANCH  19  23
ENDBRANCH  18  19
ENDBRANCH  17  18
ENDBRANCH  15  17
ENDBRANCH   1  15
TORSDOF 9
