REMARK  Name = ZINCrD0000075xog.0
REMARK                            x       y       z     vdW  Elec       q    Type
REMARK                         _______ _______ _______ _____ _____    ______ ____
ROOT
ATOM      1  C   LIG    1       -0.775   1.642  -1.165  0.00  0.00    +0.220 C 
ATOM      2  C   LIG    1       -0.168   1.125   0.163  0.00  0.00    +0.050 C 
ATOM      3  C   LIG    1       -0.950   1.925   1.235  0.00  0.00    +0.020 C 
ATOM      4  C   LIG    1       -1.120   3.327   0.610  0.00  0.00    +0.000 C 
ATOM      5  C   LIG    1       -1.006   3.147  -0.914  0.00  0.00    +0.030 C 
ENDROOT
BRANCH   1   6
ATOM      6  C   LIG    1        0.193   1.439  -2.301  0.00  0.00    -0.070 A 
ATOM      7  C   LIG    1       -0.051   0.464  -3.250  0.00  0.00    +0.030 A 
ATOM      8  C   LIG    1        0.833   0.278  -4.297  0.00  0.00    +0.020 A 
ATOM      9  C   LIG    1        1.973   1.062  -4.391  0.00  0.00    +0.050 A 
ATOM     10  O   LIG    1        2.838   0.861  -5.422  0.00  0.00    -0.310 OA
ATOM     11  C   LIG    1        3.772   1.912  -5.692  0.00  0.00    +0.220 C 
ATOM     12  C   LIG    1        4.387   2.361  -4.360  0.00  0.00    +0.220 C 
ATOM     13  O   LIG    1        3.331   2.823  -3.511  0.00  0.00    -0.310 OA
ATOM     14  C   LIG    1        2.221   2.039  -3.434  0.00  0.00    +0.050 A 
ATOM     15  C   LIG    1        1.328   2.224  -2.390  0.00  0.00    +0.030 A 
ENDBRANCH   1   6
BRANCH   1  18
ATOM     16  O   LIG    1       -2.370   2.188  -3.272  0.00  0.00    -0.510 OA
ATOM     17  C   LIG    1       -2.791   1.347  -2.501  0.00  0.00    +0.570 C 
ATOM     18  N   LIG    1       -2.044   0.966  -1.446  0.00  0.00    -0.710 N 
ATOM     19  H   LIG    1       -2.345   0.243  -0.874  0.00  0.00    +0.400 HD
BRANCH  17  20
ATOM     20  C   LIG    1       -4.123   0.744  -2.720  0.00  0.00    -0.250 A 
ATOM     21  C   LIG    1       -4.624  -0.230  -1.848  0.00  0.00    +0.360 A 
ATOM     22  N   LIG    1       -5.821  -0.739  -2.079  0.00  0.00    -0.520 NA
ATOM     23  C   LIG    1       -6.535  -0.350  -3.117  0.00  0.00    +0.370 A 
ATOM     24  N   LIG    1       -6.099   0.560  -3.967  0.00  0.00    -0.510 NA
ATOM     25  C   LIG    1       -4.915   1.125  -3.809  0.00  0.00    +0.400 A 
BRANCH  23  26
ATOM     26  C   LIG    1       -7.893  -0.965  -3.341  0.00  0.00    +0.020 C 
ATOM     27  C   LIG    1       -8.453  -1.862  -2.235  0.00  0.00    +0.060 C 
ATOM     28  C   LIG    1       -7.957  -2.480  -3.544  0.00  0.00    +0.060 C 
ENDBRANCH  23  26
ENDBRANCH  17  20
ENDBRANCH   1  18
TORSDOF 4
