REMARK  Name = ZINCrH000004khL9.0
REMARK                            x       y       z     vdW  Elec       q    Type
REMARK                         _______ _______ _______ _____ _____    ______ ____
ROOT
ATOM      1  C   LIG    1       -4.067  -0.105   3.506  0.00  0.00    -0.290 A 
ATOM      2  C   LIG    1       -3.639   1.012   4.112  0.00  0.00    +0.190 A 
ATOM      3  C   LIG    1       -2.826   1.844   3.331  0.00  0.00    -0.230 A 
ATOM      4  C   LIG    1       -2.616   1.351   2.053  0.00  0.00    +0.040 A 
ATOM      5  N   LIG    1       -1.810   2.241   1.399  0.00  0.00    -0.340 N 
ATOM      6  N   LIG    1       -1.528   3.295   2.272  0.00  0.00    -0.260 NA
ATOM      7  C   LIG    1       -2.114   3.081   3.411  0.00  0.00    +0.140 A 
ATOM      8  C   LIG    1       -2.054   3.985   4.616  0.00  0.00    +0.170 C 
ATOM      9  S   LIG    1       -3.454  -0.183   1.862  0.00  0.00    +0.200 S 
ENDROOT
BRANCH   1  12
ATOM     10  N   LIG    1       -5.298  -2.207   3.426  0.00  0.00    -0.720 N 
ATOM     11  H   LIG    1       -4.999  -2.321   2.511  0.00  0.00    +0.400 HD
ATOM     12  C   LIG    1       -4.925  -1.118   4.127  0.00  0.00    +0.610 C 
ATOM     13  O   LIG    1       -5.301  -0.975   5.276  0.00  0.00    -0.520 OA
BRANCH  10  14
ATOM     14  C   LIG    1       -6.156  -3.219   4.048  0.00  0.00    +0.200 C 
ATOM     15  C   LIG    1       -7.480  -2.578   4.467  0.00  0.00    +0.080 C 
ATOM     16  C   LIG    1       -5.455  -3.795   5.280  0.00  0.00    +0.080 C 
BRANCH  14  17
ATOM     17  C   LIG    1       -6.424  -4.325   3.060  0.00  0.00    +0.460 C 
ATOM     18  O   LIG    1       -6.524  -5.467   3.443  0.00  0.00    -0.490 OA
BRANCH  17  20
ATOM     19  C   LIG    1       -6.810  -5.157   0.860  0.00  0.00    +0.280 C 
ATOM     20  O   LIG    1       -6.553  -4.042   1.754  0.00  0.00    -0.360 OA
ENDBRANCH  17  20
ENDBRANCH  14  17
ENDBRANCH  10  14
ENDBRANCH   1  12
BRANCH   5  21
ATOM     21  C   LIG    1       -1.332   2.115   0.020  0.00  0.00    +0.400 C 
BRANCH  21  22
ATOM     22  C   LIG    1       -0.017   1.379   0.010  0.00  0.00    -0.120 A 
ATOM     23  C   LIG    1        1.171   2.086   0.002  0.00  0.00    +0.060 A 
ATOM     24  C   LIG    1        2.377   1.411  -0.013  0.00  0.00    +0.010 A 
ATOM     25  C   LIG    1        2.397   0.029  -0.021  0.00  0.00    +0.050 A 
ATOM     26  C   LIG    1        1.210  -0.679  -0.013  0.00  0.00    +0.030 A 
ATOM     27  C   LIG    1        0.002  -0.004   0.002  0.00  0.00    -0.020 A 
ATOM     28 CL   LIG    1       -1.489  -0.893   0.012  0.00  0.00    -0.050 Cl
ENDBRANCH  21  22
ENDBRANCH   5  21
TORSDOF 6
