REMARK  Name = ZINCnE000007MrHT.0
REMARK                            x       y       z     vdW  Elec       q    Type
REMARK                         _______ _______ _______ _____ _____    ______ ____
ROOT
ATOM      1  C   LIG    1       -3.546   4.802   3.129  0.00  0.00    -0.030 C 
ATOM      2  C   LIG    1       -3.901   3.917   4.325  0.00  0.00    +0.010 C 
ATOM      3  C   LIG    1       -3.604   2.454   3.986  0.00  0.00    +0.000 C 
ATOM      4  C   LIG    1       -2.114   2.295   3.690  0.00  0.00    +0.250 C 
ATOM      5  N   LIG    1       -1.729   3.248   2.641  0.00  0.00    -0.600 N 
ATOM      6  C   LIG    1       -1.098   2.826   1.527  0.00  0.00    +0.520 C 
ATOM      7  O   LIG    1       -0.708   3.632   0.709  0.00  0.00    -0.520 OA
ATOM      8  C   LIG    1       -2.050   4.670   2.826  0.00  0.00    +0.280 C 
ENDROOT
BRANCH   6   9
ATOM      9  C   LIG    1       -0.877   1.353   1.299  0.00  0.00    -0.010 C 
ATOM     10  C   LIG    1        0.588   1.009   1.572  0.00  0.00    +0.050 C 
ATOM     11  C   LIG    1        1.485   1.811   0.628  0.00  0.00    +0.010 C 
ATOM     12  C   LIG    1        1.141   1.463  -0.821  0.00  0.00    +0.030 C 
ATOM     13  C   LIG    1       -0.324   1.807  -1.095  0.00  0.00    +0.050 C 
ATOM     14  C   LIG    1       -1.221   1.005  -0.151  0.00  0.00    +0.010 C 
BRANCH  14  15
ATOM     15  C   LIG    1       -2.687   1.349  -0.424  0.00  0.00    +0.450 C 
ATOM     16  F   LIG    1       -2.864   2.735  -0.340  0.00  0.00    -0.170 F 
ATOM     17  F   LIG    1       -3.499   0.717   0.523  0.00  0.00    -0.190 F 
ATOM     18  F   LIG    1       -3.038   0.911  -1.706  0.00  0.00    -0.180 F 
ENDBRANCH  14  15
ENDBRANCH   6   9
BRANCH   1  19
ATOM     19  C   LIG    1       -3.874   6.261   3.456  0.00  0.00    +0.040 C 
BRANCH  19  20
ATOM     20  C   LIG    1       -5.385   6.415   3.636  0.00  0.00    -0.070 C 
BRANCH  20  22
ATOM     21  O   LIG    1       -4.812   8.675   4.038  0.00  0.00    -0.700 OA
ATOM     22  C   LIG    1       -5.708   7.852   3.959  0.00  0.00    +0.490 C 
ATOM     23  O   LIG    1       -6.865   8.190   4.141  0.00  0.00    -0.710 OA
ENDBRANCH  20  22
ENDBRANCH  19  20
ENDBRANCH   1  19
TORSDOF 5
