REMARK  Name = ZINCpe000000STQ9.0
REMARK                            x       y       z     vdW  Elec       q    Type
REMARK                         _______ _______ _______ _____ _____    ______ ____
ROOT
ATOM      1  C   LIG    1       -0.729   1.579   1.267  0.00  0.00    +0.190 C 
ATOM      2  C   LIG    1       -0.013   1.086   0.008  0.00  0.00    +0.030 C 
ENDROOT
BRANCH   1   8
ATOM      3  N   LIG    1       -5.095   1.230  -0.715  0.00  0.00    -0.740 N 
ATOM      4  H   LIG    1       -4.792   1.796  -1.442  0.00  0.00    +0.400 HD
ATOM      5  C   LIG    1       -4.251   0.911   0.286  0.00  0.00    +0.690 C 
ATOM      6  N   LIG    1       -2.986   1.377   0.276  0.00  0.00    -0.690 N 
ATOM      7  H   LIG    1       -2.684   1.943  -0.451  0.00  0.00    +0.410 HD
ATOM      8  C   LIG    1       -2.143   1.058   1.278  0.00  0.00    +0.520 C 
ATOM      9  O   LIG    1       -2.521   0.350   2.187  0.00  0.00    -0.440 OA
ATOM     10  O   LIG    1       -4.630   0.202   1.197  0.00  0.00    -0.530 OA
BRANCH   3  11
ATOM     11  C   LIG    1       -6.469   0.723  -0.705  0.00  0.00    +0.280 C 
BRANCH  11  13
ATOM     12  C   LIG    1       -8.603   0.602  -1.999  0.00  0.00    +0.030 C 
ATOM     13  C   LIG    1       -7.209   1.230  -1.944  0.00  0.00    -0.030 C 
ATOM     14  C   LIG    1       -7.339   2.753  -1.874  0.00  0.00    +0.020 C 
ENDBRANCH  11  13
ENDBRANCH   3  11
ENDBRANCH   1   8
BRANCH   1  15
ATOM     15  N   LIG    1       -0.018   1.093   2.457  0.00  0.00    -0.530 NA
ATOM     16  C   LIG    1        1.243   1.837   2.662  0.00  0.00    +0.210 C 
ATOM     17  C   LIG    1        1.589   1.796   4.129  0.00  0.00    +0.040 C 
ATOM     18  C   LIG    1        2.514   0.618   4.473  0.00  0.00    +0.210 C 
ATOM     19  N   LIG    1        2.127  -0.628   3.773  0.00  0.00    -0.470 N 
ATOM     20  C   LIG    1        0.701  -0.859   3.736  0.00  0.00    +0.240 C 
ATOM     21  C   LIG    1        0.139  -0.298   2.414  0.00  0.00    +0.180 C 
BRANCH  19  22
ATOM     22  C   LIG    1        2.793  -1.721   4.300  0.00  0.00    +0.500 A 
ATOM     23  N   LIG    1        2.096  -2.778   4.688  0.00  0.00    -0.550 NA
ATOM     24  C   LIG    1        2.702  -3.841   5.191  0.00  0.00    +0.350 A 
ATOM     25  C   LIG    1        4.082  -3.834   5.319  0.00  0.00    -0.120 A 
ATOM     26  C   LIG    1        4.780  -2.710   4.909  0.00  0.00    +0.350 A 
ATOM     27  N   LIG    1        4.113  -1.683   4.409  0.00  0.00    -0.530 NA
ENDBRANCH  19  22
ENDBRANCH   1  15
TORSDOF 5
