REMARK  Name = ZINCc70000001Ey1.0
REMARK                            x       y       z     vdW  Elec       q    Type
REMARK                         _______ _______ _______ _____ _____    ______ ____
ROOT
ATOM      1  N   LIG    1       -0.020   1.094   2.454  0.00  0.00    -0.390 N 
ATOM      2  N   LIG    1        0.192  -0.248   2.787  0.00  0.00    -0.300 NA
ATOM      3  C   LIG    1        0.858  -0.312   3.905  0.00  0.00    +0.300 A 
ATOM      4  C   LIG    1        1.100   1.008   4.351  0.00  0.00    -0.380 A 
ATOM      5  C   LIG    1        0.532   1.865   3.412  0.00  0.00    +0.440 A 
ENDROOT
BRANCH   4   6
ATOM      6  C   LIG    1        1.814   1.400   5.573  0.00  0.00    +0.610 C 
ATOM      7  O   LIG    1        1.954   2.578   5.843  0.00  0.00    -0.570 OA
ATOM      8  N   LIG    1        2.313   0.456   6.394  0.00  0.00    -0.850 N 
ATOM      9  H   LIG    1        2.785   0.715   7.201  0.00  0.00    +0.400 HD
ATOM     10  H   LIG    1        2.201  -0.483   6.178  0.00  0.00    +0.400 HD
ENDBRANCH   4   6
BRANCH   1  12
ATOM     11  C   LIG    1       -0.013   1.086   0.008  0.00  0.00    +0.050 C 
ATOM     12  C   LIG    1       -0.729   1.579   1.267  0.00  0.00    +0.250 C 
ATOM     13  C   LIG    1       -2.164   1.050   1.278  0.00  0.00    +0.050 C 
ENDBRANCH   1  12
BRANCH   5  14
ATOM     14  N   LIG    1        0.535   3.245   3.453  0.00  0.00    -0.830 N 
ATOM     15  H   LIG    1        0.963   3.707   4.191  0.00  0.00    +0.430 HD
ATOM     16  H   LIG    1        0.110   3.752   2.744  0.00  0.00    +0.400 HD
ENDBRANCH   5  14
TORSDOF 3
