REMARK  Name = ZINC650000002hh4.0
REMARK                            x       y       z     vdW  Elec       q    Type
REMARK                         _______ _______ _______ _____ _____    ______ ____
ROOT
ATOM      1  C   LIG    1       -0.013   1.086   0.008  0.00  0.00    +0.260 C 
ATOM      2  C   LIG    1       -0.730   1.580   1.266  0.00  0.00    +0.220 C 
ATOM      3  N   LIG    1       -2.114   1.087   1.266  0.00  0.00    -0.500 N 
ATOM      4  C   LIG    1       -2.819   1.602   0.085  0.00  0.00    +0.220 C 
ATOM      5  C   LIG    1       -2.119   1.108  -1.183  0.00  0.00    +0.260 C 
ATOM      6  H   LIG    1       -2.112   0.078   1.242  0.00  0.00    +0.430 HD
ATOM      7  H   LIG    1       -2.583   1.402   2.102  0.00  0.00    +0.430 HD
ATOM      8  N   LIG    1       -0.725   1.573  -1.182  0.00  0.00    -0.680 NA
ATOM      9  H   LIG    1       -0.679   2.579  -1.244  0.00  0.00    +0.360 HD
ENDROOT
TORSDOF 0
