REMARK  Name = ZINCqH0000050NXU.0
REMARK                            x       y       z     vdW  Elec       q    Type
REMARK                         _______ _______ _______ _____ _____    ______ ____
ROOT
ATOM      1  C   LIG    1        0.628   3.453   3.199  0.00  0.00    +0.580 C 
ATOM      2  N   LIG    1        1.309   4.254   4.042  0.00  0.00    -0.660 N 
ATOM      3  H   LIG    1        1.872   3.867   4.731  0.00  0.00    +0.410 HD
ATOM      4  O   LIG    1        0.009   3.933   2.270  0.00  0.00    -0.500 OA
ENDROOT
BRANCH   1   9
ATOM      5  C   LIG    1        0.651  -2.156   3.985  0.00  0.00    +0.180 C 
ATOM      6  C   LIG    1        0.645  -0.664   3.776  0.00  0.00    +0.350 A 
ATOM      7  N   LIG    1        0.651   0.128   4.830  0.00  0.00    -0.520 NA
ATOM      8  C   LIG    1        0.647   1.443   4.693  0.00  0.00    +0.360 A 
ATOM      9  C   LIG    1        0.634   1.989   3.404  0.00  0.00    -0.260 A 
ATOM     10  C   LIG    1        0.628   1.109   2.315  0.00  0.00    +0.250 A 
ATOM     11  N   LIG    1        0.628  -0.192   2.544  0.00  0.00    -0.510 NA
BRANCH  10  12
ATOM     12  C   LIG    1        0.614   1.638   0.904  0.00  0.00    +0.050 C 
ATOM     13  C   LIG    1       -0.576   1.045   0.148  0.00  0.00    +0.060 C 
ATOM     14  C   LIG    1        1.914   1.244   0.199  0.00  0.00    +0.050 C 
ENDBRANCH  10  12
ENDBRANCH   1   9
BRANCH   2  15
ATOM     15  C   LIG    1        1.204   5.645   3.924  0.00  0.00    +0.150 A 
ATOM     16  C   LIG    1        2.237   6.460   4.369  0.00  0.00    +0.010 A 
ATOM     17  C   LIG    1        2.134   7.832   4.247  0.00  0.00    +0.050 A 
ATOM     18  C   LIG    1        0.996   8.396   3.690  0.00  0.00    +0.080 A 
ATOM     19  C   LIG    1       -0.038   7.583   3.250  0.00  0.00    +0.040 A 
ATOM     20  C   LIG    1        0.065   6.211   3.366  0.00  0.00    +0.040 A 
BRANCH  18  21
ATOM     21  O   LIG    1        0.894   9.747   3.575  0.00  0.00    -0.230 OA
BRANCH  21  22
ATOM     22  C   LIG    1        0.081  10.399   4.441  0.00  0.00    +0.490 A 
ATOM     23  N   LIG    1       -0.502   9.720   5.415  0.00  0.00    -0.560 NA
ATOM     24  C   LIG    1       -1.297  10.327   6.281  0.00  0.00    +0.360 A 
ATOM     25  C   LIG    1       -1.525  11.688   6.150  0.00  0.00    -0.110 A 
ATOM     26  C   LIG    1       -0.902  12.367   5.115  0.00  0.00    +0.370 A 
ATOM     27  N   LIG    1       -0.115  11.699   4.287  0.00  0.00    -0.520 NA
ENDBRANCH  21  22
ENDBRANCH  18  21
ENDBRANCH   2  15
TORSDOF 5
