REMARK  Name = ZINCpe000000XXWv.0
REMARK                            x       y       z     vdW  Elec       q    Type
REMARK                         _______ _______ _______ _____ _____    ______ ____
ROOT
ATOM      1  N   LIG    1       -7.517   2.471   6.501  0.00  0.00    -0.750 N 
ATOM      2  H   LIG    1       -8.342   2.598   6.995  0.00  0.00    +0.400 HD
ATOM      3  C   LIG    1       -6.611   1.568   6.923  0.00  0.00    +0.710 C 
ATOM      4  N   LIG    1       -6.803   0.913   8.086  0.00  0.00    -0.630 N 
ATOM      5  C   LIG    1       -5.779   0.001   8.616  0.00  0.00    +0.310 C 
ATOM      6  C   LIG    1       -5.497   0.388  10.076  0.00  0.00    +0.180 C 
ATOM      7  N   LIG    1       -6.760   0.406  10.826  0.00  0.00    -0.530 NA
ATOM      8  C   LIG    1       -7.675   1.430  10.303  0.00  0.00    +0.190 C 
ATOM      9  C   LIG    1       -8.044   1.089   8.855  0.00  0.00    +0.280 C 
ATOM     10  O   LIG    1       -5.620   1.342   6.255  0.00  0.00    -0.590 OA
ENDROOT
BRANCH   1  11
ATOM     11  C   LIG    1       -7.256   3.262   5.296  0.00  0.00    +0.280 C 
BRANCH  11  12
ATOM     12  C   LIG    1       -8.434   4.205   5.040  0.00  0.00    +0.030 C 
BRANCH  12  13
ATOM     13  C   LIG    1       -8.162   5.031   3.781  0.00  0.00    +0.330 C 
BRANCH  13  17
ATOM     14  C   LIG    1      -10.864   9.173   2.966  0.00  0.00    +0.110 C 
ATOM     15  C   LIG    1      -10.472   7.734   3.181  0.00  0.00    -0.240 A 
ATOM     16  C   LIG    1       -9.216   7.273   3.386  0.00  0.00    +0.220 A 
ATOM     17  N   LIG    1       -9.289   5.934   3.536  0.00  0.00    -0.370 N 
ATOM     18  N   LIG    1      -10.633   5.558   3.410  0.00  0.00    -0.290 NA
ATOM     19  C   LIG    1      -11.341   6.638   3.197  0.00  0.00    +0.230 A 
ENDBRANCH  13  17
ENDBRANCH  12  13
ENDBRANCH  11  12
ENDBRANCH   1  11
BRANCH   7  20
ATOM     20  C   LIG    1       -6.518   0.600  12.262  0.00  0.00    +0.360 C 
BRANCH  20  21
ATOM     21  C   LIG    1       -5.782  -0.594  12.813  0.00  0.00    +0.190 A 
ATOM     22  N   LIG    1       -4.482  -0.750  12.876  0.00  0.00    -0.480 NA
ATOM     23  C   LIG    1       -4.288  -1.956  13.438  0.00  0.00    +0.170 A 
ATOM     24  N   LIG    1       -5.459  -2.466  13.678  0.00  0.00    -0.380 NA
ATOM     25  C   LIG    1       -2.958  -2.600  13.732  0.00  0.00    +0.200 C 
ATOM     26  O   LIG    1       -6.331  -1.700  13.325  0.00  0.00    +0.090 OA
ENDBRANCH  20  21
ENDBRANCH   7  20
TORSDOF 6
