REMARK  Name = ZINCrg000000rxZI.0
REMARK                            x       y       z     vdW  Elec       q    Type
REMARK                         _______ _______ _______ _____ _____    ______ ____
ROOT
ATOM      1  C   LIG    1        6.132  -1.448  -1.532  0.00  0.00    +0.030 C 
ATOM      2  C   LIG    1        6.140  -0.575  -0.275  0.00  0.00    +0.180 C 
ENDROOT
BRANCH   2   3
ATOM      3  N   LIG    1        7.216   0.420  -0.377  0.00  0.00    -0.520 NA
ATOM      4  C   LIG    1        7.040   1.266  -1.565  0.00  0.00    +0.190 C 
ATOM      5  C   LIG    1        8.133   2.338  -1.592  0.00  0.00    +0.180 C 
ATOM      6  N   LIG    1        9.451   1.689  -1.601  0.00  0.00    -0.530 NA
ATOM      7  C   LIG    1        9.627   0.842  -0.413  0.00  0.00    +0.190 C 
ATOM      8  C   LIG    1        8.534  -0.229  -0.386  0.00  0.00    +0.190 C 
BRANCH   6   9
ATOM      9  C   LIG    1       10.527   2.684  -1.703  0.00  0.00    +0.220 C 
BRANCH   9  10
ATOM     10  C   LIG    1       10.183   3.697  -2.796  0.00  0.00    -0.340 C 
BRANCH  10  11
ATOM     11  S   LIG    1       11.511   4.926  -2.922  0.00  0.00    +2.620 S 
ATOM     12  O   LIG    1       12.695   4.329  -3.433  0.00  0.00    -0.960 OA
ATOM     13  O   LIG    1       11.545   5.744  -1.760  0.00  0.00    -0.960 OA
BRANCH  11  14
ATOM     14  N   LIG    1       11.016   5.948  -4.127  0.00  0.00    -1.250 NA
ATOM     15  H   LIG    1       11.571   6.702  -4.382  0.00  0.00    +0.420 HD
ATOM     16  H   LIG    1       10.171   5.794  -4.577  0.00  0.00    +0.410 HD
ENDBRANCH  11  14
ENDBRANCH  10  11
ENDBRANCH   9  10
ENDBRANCH   6   9
ENDBRANCH   2   3
BRANCH   2  17
ATOM     17  C   LIG    1        4.814   0.130  -0.144  0.00  0.00    +0.520 C 
ATOM     18  N   LIG    1        3.678  -0.586  -0.036  0.00  0.00    -0.670 N 
ATOM     19  H   LIG    1        3.718  -1.554   0.024  0.00  0.00    +0.410 HD
ATOM     20  O   LIG    1        4.770   1.342  -0.137  0.00  0.00    -0.500 OA
BRANCH  18  21
ATOM     21  C   LIG    1        2.442   0.064  -0.011  0.00  0.00    +0.150 A 
ATOM     22  C   LIG    1        2.317   1.294   0.598  0.00  0.00    +0.020 A 
ATOM     23  C   LIG    1        1.090   1.951   0.628  0.00  0.00    +0.030 A 
ATOM     24  C   LIG    1       -0.017   1.399   0.060  0.00  0.00    +0.010 A 
ATOM     25  C   LIG    1        0.068   0.146  -0.571  0.00  0.00    -0.040 A 
ATOM     26  C   LIG    1       -1.058  -0.448  -1.165  0.00  0.00    +0.030 A 
ATOM     27  C   LIG    1       -0.940  -1.663  -1.768  0.00  0.00    +0.000 A 
ATOM     28  C   LIG    1        0.283  -2.329  -1.804  0.00  0.00    +0.010 A 
ATOM     29  C   LIG    1        1.395  -1.784  -1.238  0.00  0.00    +0.010 A 
ATOM     30  C   LIG    1        1.311  -0.533  -0.608  0.00  0.00    -0.060 A 
ENDBRANCH  18  21
ENDBRANCH   2  17
TORSDOF 7
