REMARK  Name = ZINCrm000000FHwC.0
REMARK                            x       y       z     vdW  Elec       q    Type
REMARK                         _______ _______ _______ _____ _____    ______ ____
ROOT
ATOM      1  N   LIG    1        0.266   2.354  -3.383  0.00  0.00    -0.730 N 
ATOM      2  H   LIG    1        0.616   3.257  -3.322  0.00  0.00    +0.410 HD
ATOM      3  C   LIG    1       -0.420   1.969  -4.477  0.00  0.00    +0.710 C 
ATOM      4  N   LIG    1       -0.620   2.837  -5.487  0.00  0.00    -0.740 N 
ATOM      5  H   LIG    1       -0.270   3.740  -5.427  0.00  0.00    +0.410 HD
ATOM      6  O   LIG    1       -0.859   0.837  -4.552  0.00  0.00    -0.570 OA
ENDROOT
BRANCH   1  10
ATOM      7  C   LIG    1        1.433   2.841   0.789  0.00  0.00    +0.100 C 
ATOM      8  C   LIG    1        1.370   1.534  -0.003  0.00  0.00    +0.060 C 
ATOM      9  C   LIG    1        1.743   1.793  -1.474  0.00  0.00    +0.090 C 
ATOM     10  C   LIG    1        0.483   1.409  -2.284  0.00  0.00    +0.280 C 
ATOM     11  C   LIG    1       -0.650   1.515  -1.233  0.00  0.00    +0.250 C 
ATOM     12  C   LIG    1        2.326   0.505   0.604  0.00  0.00    +0.100 C 
ATOM     13  N   LIG    1       -0.012   1.005   0.008  0.00  0.00    -0.390 N 
ATOM     14  H   LIG    1        0.002  -0.004   0.002  0.00  0.00    +0.430 HD
BRANCH  13  15
ATOM     15  C   LIG    1       -0.733   1.496   1.189  0.00  0.00    +0.330 C 
BRANCH  15  16
ATOM     16  C   LIG    1       -2.103   0.870   1.237  0.00  0.00    -0.160 A 
ATOM     17  C   LIG    1       -3.170   1.495   0.619  0.00  0.00    +0.030 A 
ATOM     18  C   LIG    1       -4.426   0.919   0.658  0.00  0.00    +0.020 A 
ATOM     19  C   LIG    1       -4.617  -0.277   1.325  0.00  0.00    +0.060 A 
ATOM     20  C   LIG    1       -3.551  -0.899   1.948  0.00  0.00    +0.030 A 
ATOM     21  C   LIG    1       -2.294  -0.326   1.903  0.00  0.00    +0.040 A 
ENDBRANCH  15  16
ENDBRANCH  13  15
ENDBRANCH   1  10
BRANCH   4  22
ATOM     22  C   LIG    1       -1.366   2.419  -6.677  0.00  0.00    +0.290 C 
BRANCH  22  23
ATOM     23  C   LIG    1       -1.448   3.585  -7.664  0.00  0.00    +0.260 C 
BRANCH  23  24
ATOM     24  N   LIG    1       -2.196   3.165  -8.857  0.00  0.00    -0.390 N 
ATOM     25  C   LIG    1       -1.424   2.146  -9.613  0.00  0.00    +0.270 C 
ATOM     26  C   LIG    1       -2.023   2.234 -11.039  0.00  0.00    +0.090 C 
ATOM     27  C   LIG    1       -2.283   3.748 -11.212  0.00  0.00    +0.010 C 
ATOM     28  C   LIG    1       -2.369   4.308  -9.779  0.00  0.00    +0.280 C 
ATOM     29  H   LIG    1       -3.096   2.793  -8.591  0.00  0.00    +0.430 HD
BRANCH  27  30
ATOM     30  C   LIG    1       -3.602   3.979 -11.951  0.00  0.00    +0.190 C 
BRANCH  30  31
ATOM     31  O   LIG    1       -3.486   3.499 -13.293  0.00  0.00    -0.570 OA
ATOM     32  H   LIG    1       -4.288   3.614 -13.822  0.00  0.00    +0.400 HD
ENDBRANCH  30  31
ENDBRANCH  27  30
ENDBRANCH  23  24
ENDBRANCH  22  23
ENDBRANCH   4  22
TORSDOF 8
