REMARK  Name = ZINCrm000000FHwC.1
REMARK                            x       y       z     vdW  Elec       q    Type
REMARK                         _______ _______ _______ _____ _____    ______ ____
ROOT
ATOM      1  N   LIG    1       -0.599   0.755   2.401  0.00  0.00    -0.730 N 
ATOM      2  H   LIG    1       -0.357  -0.176   2.281  0.00  0.00    +0.410 HD
ATOM      3  C   LIG    1       -0.748   1.257   3.643  0.00  0.00    +0.710 C 
ATOM      4  N   LIG    1       -0.561   0.465   4.717  0.00  0.00    -0.740 N 
ATOM      5  H   LIG    1       -0.320  -0.467   4.597  0.00  0.00    +0.410 HD
ATOM      6  O   LIG    1       -1.050   2.425   3.795  0.00  0.00    -0.570 OA
ENDROOT
BRANCH   1  10
ATOM      7  C   LIG    1       -0.182   2.918  -1.707  0.00  0.00    +0.100 C 
ATOM      8  C   LIG    1       -0.820   1.627  -1.191  0.00  0.00    +0.060 C 
ATOM      9  C   LIG    1       -0.013   1.086   0.008  0.00  0.00    +0.090 C 
ATOM     10  C   LIG    1       -0.801   1.617   1.234  0.00  0.00    +0.280 C 
ATOM     11  C   LIG    1       -2.265   1.531   0.720  0.00  0.00    +0.240 C 
ATOM     12  C   LIG    1       -0.861   0.581  -2.306  0.00  0.00    +0.100 C 
ATOM     13  N   LIG    1       -2.187   1.900  -0.709  0.00  0.00    -0.380 N 
ATOM     14  H   LIG    1       -2.395   2.882  -0.818  0.00  0.00    +0.430 HD
BRANCH  13  15
ATOM     15  C   LIG    1       -3.150   1.101  -1.477  0.00  0.00    +0.320 C 
BRANCH  15  16
ATOM     16  C   LIG    1       -4.530   1.289  -0.902  0.00  0.00    -0.160 A 
ATOM     17  C   LIG    1       -4.985   0.447   0.095  0.00  0.00    +0.020 A 
ATOM     18  C   LIG    1       -6.249   0.623   0.626  0.00  0.00    +0.020 A 
ATOM     19  C   LIG    1       -7.063   1.635   0.152  0.00  0.00    +0.060 A 
ATOM     20  C   LIG    1       -6.610   2.474  -0.849  0.00  0.00    +0.030 A 
ATOM     21  C   LIG    1       -5.344   2.301  -1.376  0.00  0.00    +0.040 A 
ENDBRANCH  15  16
ENDBRANCH  13  15
ENDBRANCH   1  10
BRANCH   4  22
ATOM     22  C   LIG    1       -0.723   1.010   6.067  0.00  0.00    +0.290 C 
BRANCH  22  23
ATOM     23  C   LIG    1       -0.458  -0.090   7.097  0.00  0.00    +0.260 C 
BRANCH  23  24
ATOM     24  N   LIG    1       -0.620   0.457   8.451  0.00  0.00    -0.380 N 
ATOM     25  C   LIG    1       -2.031   0.822   8.673  0.00  0.00    +0.250 C 
ATOM     26  C   LIG    1       -2.531   0.004   9.882  0.00  0.00    +0.090 C 
ATOM     27  C   LIG    1       -1.218  -0.353  10.628  0.00  0.00    +0.010 C 
ATOM     28  C   LIG    1       -0.235  -0.563   9.449  0.00  0.00    +0.280 C 
ATOM     29  H   LIG    1       -0.037   1.274   8.560  0.00  0.00    +0.430 HD
BRANCH  27  30
ATOM     30  C   LIG    1       -1.383  -1.639  11.441  0.00  0.00    +0.210 C 
BRANCH  30  31
ATOM     31  O   LIG    1       -2.317  -1.418  12.499  0.00  0.00    -0.570 OA
ATOM     32  H   LIG    1       -2.470  -2.193  13.057  0.00  0.00    +0.400 HD
ENDBRANCH  30  31
ENDBRANCH  27  30
ENDBRANCH  23  24
ENDBRANCH  22  23
ENDBRANCH   4  22
TORSDOF 8
