REMARK  Name = ZINCkj000005ew4N.0
REMARK                            x       y       z     vdW  Elec       q    Type
REMARK                         _______ _______ _______ _____ _____    ______ ____
ROOT
ATOM      1  N   LIG    1       -0.566   0.288  -2.844  0.00  0.00    -0.390 N 
ATOM      2  C   LIG    1        0.037  -0.015  -4.147  0.00  0.00    +0.260 C 
ATOM      3  C   LIG    1       -0.840   0.556  -5.263  0.00  0.00    +0.060 C 
ATOM      4  C   LIG    1       -0.951   2.074  -5.091  0.00  0.00    +0.050 C 
ATOM      5  C   LIG    1       -1.511   2.380  -3.699  0.00  0.00    +0.080 C 
ATOM      6  C   LIG    1       -0.609   1.741  -2.641  0.00  0.00    +0.190 C 
ATOM      7  H   LIG    1       -0.014  -0.136  -2.113  0.00  0.00    +0.420 HD
ENDROOT
BRANCH   1   8
ATOM      8  C   LIG    1       -1.931  -0.252  -2.799  0.00  0.00    +0.310 C 
BRANCH   8  12
ATOM      9  C   LIG    1       -1.784  -4.519  -3.039  0.00  0.00    +0.060 A 
ATOM     10  C   LIG    1       -1.742  -3.885  -1.797  0.00  0.00    +0.040 A 
ATOM     11  C   LIG    1       -1.790  -2.508  -1.726  0.00  0.00    +0.060 A 
ATOM     12  C   LIG    1       -1.879  -1.756  -2.884  0.00  0.00    -0.160 A 
ATOM     13  C   LIG    1       -1.927  -2.378  -4.118  0.00  0.00    +0.050 A 
ATOM     14  C   LIG    1       -1.874  -3.754  -4.203  0.00  0.00    +0.040 A 
BRANCH   9  16
ATOM     15  C   LIG    1       -1.695  -7.119  -3.186  0.00  0.00    +0.110 C 
ATOM     16  C   LIG    1       -1.735  -5.948  -3.120  0.00  0.00    -0.190 C 
ENDBRANCH   9  16
ENDBRANCH   8  12
ENDBRANCH   1   8
BRANCH   6  17
ATOM     17  C   LIG    1       -1.164   2.045  -1.248  0.00  0.00    -0.350 C 
BRANCH  17  18
ATOM     18  S   LIG    1       -0.017   1.417   0.010  0.00  0.00    +2.600 S 
ATOM     19  O   LIG    1        1.190   2.166   0.002  0.00  0.00    -0.920 OA
ATOM     20  O   LIG    1        0.002  -0.004   0.002  0.00  0.00    -0.950 OA
BRANCH  18  21
ATOM     21  N   LIG    1       -0.731   1.808   1.452  0.00  0.00    -1.230 NA
ATOM     22  H   LIG    1       -1.344   1.185   1.874  0.00  0.00    +0.430 HD
ATOM     23  H   LIG    1       -0.537   2.659   1.874  0.00  0.00    +0.430 HD
ENDBRANCH  18  21
ENDBRANCH  17  18
ENDBRANCH   6  17
TORSDOF 6
