REMARK  Name = ZINCkj000005ew4N.1
REMARK                            x       y       z     vdW  Elec       q    Type
REMARK                         _______ _______ _______ _____ _____    ______ ____
ROOT
ATOM      1  N   LIG    1        2.417  -0.234   1.147  0.00  0.00    -0.400 N 
ATOM      2  C   LIG    1        2.523   1.221   1.303  0.00  0.00    +0.270 C 
ATOM      3  C   LIG    1        1.842   1.916   0.122  0.00  0.00    +0.060 C 
ATOM      4  C   LIG    1        0.365   1.512   0.083  0.00  0.00    +0.060 C 
ATOM      5  C   LIG    1        0.266  -0.014  -0.005  0.00  0.00    +0.050 C 
ATOM      6  C   LIG    1        1.006  -0.637   1.181  0.00  0.00    +0.220 C 
ATOM      7  H   LIG    1        2.822  -0.507   0.265  0.00  0.00    +0.420 HD
ENDROOT
BRANCH   1   8
ATOM      8  C   LIG    1        3.139  -0.896   2.242  0.00  0.00    +0.310 C 
BRANCH   8  12
ATOM      9  C   LIG    1        7.302   0.045   1.976  0.00  0.00    +0.060 A 
ATOM     10  C   LIG    1        6.446   0.858   2.720  0.00  0.00    +0.040 A 
ATOM     11  C   LIG    1        5.104   0.549   2.801  0.00  0.00    +0.050 A 
ATOM     12  C   LIG    1        4.606  -0.565   2.148  0.00  0.00    -0.160 A 
ATOM     13  C   LIG    1        5.451  -1.378   1.413  0.00  0.00    +0.070 A 
ATOM     14  C   LIG    1        6.794  -1.077   1.319  0.00  0.00    +0.040 A 
BRANCH   9  16
ATOM     15  C   LIG    1        9.839   0.619   1.813  0.00  0.00    +0.110 C 
ATOM     16  C   LIG    1        8.696   0.360   1.887  0.00  0.00    -0.190 C 
ENDBRANCH   9  16
ENDBRANCH   8  12
ENDBRANCH   1   8
BRANCH   6  17
ATOM     17  C   LIG    1        0.909  -2.162   1.097  0.00  0.00    -0.320 C 
BRANCH  17  18
ATOM     18  S   LIG    1        1.608  -2.726  -0.478  0.00  0.00    +2.600 S 
ATOM     19  O   LIG    1        2.994  -2.420  -0.547  0.00  0.00    -0.960 OA
ATOM     20  O   LIG    1        0.734  -2.410  -1.553  0.00  0.00    -0.930 OA
BRANCH  18  21
ATOM     21  N   LIG    1        1.559  -4.379  -0.384  0.00  0.00    -1.240 NA
ATOM     22  H   LIG    1        1.885  -4.917  -1.122  0.00  0.00    +0.430 HD
ATOM     23  H   LIG    1        1.204  -4.809   0.410  0.00  0.00    +0.420 HD
ENDBRANCH  18  21
ENDBRANCH  17  18
ENDBRANCH   6  17
TORSDOF 6
