REMARK  Name = ZINCAx0000000dzD.0
REMARK                            x       y       z     vdW  Elec       q    Type
REMARK                         _______ _______ _______ _____ _____    ______ ____
ROOT
ATOM      1  N   LIG    1        0.269   1.591   0.227  0.00  0.00    -0.510 N 
ATOM      2  C   LIG    1       -1.063   1.772   0.101  0.00  0.00    +0.510 C 
ATOM      3  O   LIG    1       -1.823   0.850   0.316  0.00  0.00    -0.510 OA
ENDROOT
BRANCH   1   9
ATOM      4  N   LIG    1        1.027  -1.569   1.941  0.00  0.00    -0.540 N 
ATOM      5  C   LIG    1        1.790  -2.179   1.016  0.00  0.00    +0.710 A 
ATOM      6  N   LIG    1        2.067  -1.586  -0.159  0.00  0.00    -0.660 N 
ATOM      7  H   LIG    1        2.619  -2.047  -0.810  0.00  0.00    +0.430 HD
ATOM      8  C   LIG    1        1.581  -0.362  -0.446  0.00  0.00    +0.570 A 
ATOM      9  C   LIG    1        0.784   0.307   0.502  0.00  0.00    -0.140 A 
ATOM     10  O   LIG    1        1.834   0.164  -1.516  0.00  0.00    -0.530 OA
ATOM     11  O   LIG    1        2.237  -3.286   1.246  0.00  0.00    -0.540 OA
ATOM     12  C   LIG    1        0.510  -0.317   1.702  0.00  0.00    +0.500 A 
BRANCH  12  13
ATOM     13  N   LIG    1       -0.270   0.305   2.647  0.00  0.00    -0.820 N 
ATOM     14  H   LIG    1       -0.533  -0.172   3.450  0.00  0.00    +0.410 HD
ATOM     15  H   LIG    1       -0.558   1.222   2.511  0.00  0.00    +0.420 HD
ENDBRANCH  12  13
BRANCH   4  16
ATOM     16  C   LIG    1        0.744  -2.243   3.211  0.00  0.00    +0.300 C 
BRANCH  16  17
ATOM     17  C   LIG    1       -0.533  -3.075   3.073  0.00  0.00    +0.010 C 
BRANCH  17  19
ATOM     18  C   LIG    1       -2.105  -4.610   4.262  0.00  0.00    +0.030 C 
ATOM     19  C   LIG    1       -0.828  -3.779   4.399  0.00  0.00    +0.010 C 
ENDBRANCH  17  19
ENDBRANCH  16  17
ENDBRANCH   4  16
ENDBRANCH   1   9
BRANCH   2  20
ATOM     20  C   LIG    1       -1.606   3.117  -0.307  0.00  0.00    +0.090 C 
BRANCH  20  21
ATOM     21  C   LIG    1       -3.135   3.085  -0.259  0.00  0.00    +0.270 C 
ATOM     22  O   LIG    1       -3.588   2.921   1.113  0.00  0.00    -0.300 OA
ATOM     23  C   LIG    1       -4.332   3.987   1.458  0.00  0.00    +0.520 C 
ATOM     24  C   LIG    1       -4.423   4.931   0.330  0.00  0.00    -0.190 A 
ATOM     25  C   LIG    1       -5.065   6.161   0.178  0.00  0.00    +0.110 A 
ATOM     26  C   LIG    1       -4.976   6.838  -1.021  0.00  0.00    +0.020 A 
ATOM     27  C   LIG    1       -4.252   6.304  -2.072  0.00  0.00    +0.060 A 
ATOM     28  C   LIG    1       -3.612   5.084  -1.929  0.00  0.00    +0.050 A 
ATOM     29  O   LIG    1       -4.855   4.147   2.542  0.00  0.00    -0.450 OA
ATOM     30  C   LIG    1       -3.695   4.401  -0.739  0.00  0.00    -0.100 A 
ENDBRANCH  20  21
ENDBRANCH   2  20
BRANCH   1  31
ATOM     31  C   LIG    1        1.179   2.728   0.072  0.00  0.00    +0.350 C 
BRANCH  31  32
ATOM     32  C   LIG    1        1.505   3.300   1.428  0.00  0.00    -0.150 A 
ATOM     33  C   LIG    1        0.875   4.449   1.863  0.00  0.00    +0.060 A 
ATOM     34  C   LIG    1        1.168   4.971   3.110  0.00  0.00    -0.030 A 
ATOM     35  C   LIG    1        2.101   4.350   3.919  0.00  0.00    +0.060 A 
ATOM     36  C   LIG    1        2.739   3.203   3.486  0.00  0.00    -0.080 A 
ATOM     37  C   LIG    1        2.441   2.675   2.239  0.00  0.00    +0.150 A 
BRANCH  37  38
ATOM     38  O   LIG    1        3.067   1.546   1.811  0.00  0.00    -0.300 OA
ATOM     39  C   LIG    1        3.937   0.895   2.739  0.00  0.00    +0.240 C 
ENDBRANCH  37  38
ENDBRANCH  31  32
ENDBRANCH   1  31
TORSDOF 10
