REMARK  Name = ZINCpe000000Y1mm.1
REMARK                            x       y       z     vdW  Elec       q    Type
REMARK                         _______ _______ _______ _____ _____    ______ ____
ROOT
ATOM      1  N   LIG    1        1.139   3.441   0.009  0.00  0.00    -0.660 N 
ATOM      2  H   LIG    1        0.368   3.909   0.366  0.00  0.00    +0.410 HD
ATOM      3  C   LIG    1        2.179   4.138  -0.490  0.00  0.00    +0.590 C 
ATOM      4  O   LIG    1        3.099   3.554  -1.029  0.00  0.00    -0.500 OA
ENDROOT
BRANCH   1  11
ATOM      5  C   LIG    1       -1.331   2.033   0.033  0.00  0.00    +0.130 C 
ATOM      6  C   LIG    1       -0.008   1.311   0.027  0.00  0.00    +0.130 A 
ATOM      7  N   LIG    1        0.015  -0.008   0.030  0.00  0.00    -0.500 NA
ATOM      8  C   LIG    1        1.153  -0.684   0.020  0.00  0.00    +0.300 A 
ATOM      9  C   LIG    1        2.374  -0.020   0.006  0.00  0.00    -0.030 A 
ATOM     10  C   LIG    1        2.390   1.363   0.002  0.00  0.00    +0.100 A 
ATOM     11  C   LIG    1        1.171   2.041   0.013  0.00  0.00    +0.070 A 
BRANCH   8  12
ATOM     12  N   LIG    1        1.127  -2.076   0.023  0.00  0.00    -0.480 N 
ATOM     13  C   LIG    1        1.868  -2.620  -1.123  0.00  0.00    +0.210 C 
ATOM     14  C   LIG    1        1.883  -4.148  -1.039  0.00  0.00    +0.200 C 
ATOM     15  N   LIG    1        0.501  -4.649  -1.024  0.00  0.00    -0.550 NA
ATOM     16  C   LIG    1       -0.240  -4.105   0.123  0.00  0.00    +0.180 C 
ATOM     17  C   LIG    1        0.473  -6.117  -1.020  0.00  0.00    +0.190 C 
ATOM     18  C   LIG    1       -0.255  -2.577   0.039  0.00  0.00    +0.220 C 
ENDBRANCH   8  12
ENDBRANCH   1  11
BRANCH   3  19
ATOM     19  C   LIG    1        2.200   5.606  -0.383  0.00  0.00    -0.020 A 
ATOM     20  C   LIG    1        3.201   6.437  -0.845  0.00  0.00    +0.050 A 
ATOM     21  C   LIG    1        2.828   7.747  -0.547  0.00  0.00    +0.050 A 
ATOM     22  C   LIG    1        1.611   7.694   0.100  0.00  0.00    -0.010 A 
ATOM     23  N   LIG    1        1.234   6.382   0.195  0.00  0.00    -0.520 N 
ATOM     24  H   LIG    1        0.417   6.057   0.605  0.00  0.00    +0.420 HD
BRANCH  22  25
ATOM     25  C   LIG    1        0.848   8.850   0.600  0.00  0.00    +0.590 C 
ATOM     26  O   LIG    1        1.285   9.976   0.457  0.00  0.00    -0.520 OA
ATOM     27  N   LIG    1       -0.336   8.661   1.217  0.00  0.00    -0.850 N 
ATOM     28  H   LIG    1       -0.838   9.422   1.546  0.00  0.00    +0.410 HD
ATOM     29  H   LIG    1       -0.685   7.763   1.331  0.00  0.00    +0.400 HD
ENDBRANCH  22  25
ENDBRANCH   3  19
TORSDOF 4
