REMARK  Name = ZINCrg00000IXkbi.0
REMARK                            x       y       z     vdW  Elec       q    Type
REMARK                         _______ _______ _______ _____ _____    ______ ____
ROOT
ATOM      1  N   LIG    1        2.630  -2.280   1.478  0.00  0.00    -0.990 NA
ATOM      2  C   LIG    1        3.559  -2.088   2.602  0.00  0.00    +0.330 C 
ATOM      3  C   LIG    1        2.741  -1.701   3.844  0.00  0.00    +0.190 C 
ATOM      4  N   LIG    1        1.695  -2.708   4.068  0.00  0.00    -0.500 N 
ATOM      5  C   LIG    1        0.744  -2.746   2.950  0.00  0.00    +0.180 C 
ATOM      6  C   LIG    1        1.477  -3.171   1.674  0.00  0.00    +0.330 C 
ENDROOT
BRANCH   4   7
ATOM      7  C   LIG    1        1.039  -2.485   5.275  0.00  0.00    +0.180 A 
ATOM      8  C   LIG    1        0.372  -1.282   5.491  0.00  0.00    +0.000 A 
ATOM      9  C   LIG    1       -0.279  -1.059   6.683  0.00  0.00    +0.140 A 
ATOM     10  C   LIG    1       -0.270  -2.041   7.678  0.00  0.00    -0.020 A 
ATOM     11  C   LIG    1        0.401  -3.248   7.457  0.00  0.00    +0.160 A 
ATOM     12  C   LIG    1        1.045  -3.467   6.261  0.00  0.00    -0.020 A 
BRANCH  12  13
ATOM     13  N   LIG    1        1.750  -4.747   6.025  0.00  0.00    +0.030 N 
ATOM     14  O   LIG    1        2.402  -4.905   5.008  0.00  0.00    -0.090 OA
ATOM     15  O   LIG    1        1.678  -5.643   6.847  0.00  0.00    -0.190 OA
ENDBRANCH  12  13
BRANCH  10  16
ATOM     16  C   LIG    1       -0.947  -1.812   8.918  0.00  0.00    +0.240 C 
ATOM     17  N   LIG    1       -1.484  -1.631   9.903  0.00  0.00    -0.380 NA
ENDBRANCH  10  16
ENDBRANCH   4   7
BRANCH   1  18
ATOM     18  S   LIG    1        2.879  -1.517   0.030  0.00  0.00    +2.730 S 
ATOM     19  O   LIG    1        4.267  -1.216  -0.032  0.00  0.00    -0.940 OA
ATOM     20  O   LIG    1        2.208  -2.294  -0.953  0.00  0.00    -0.930 OA
BRANCH  18  23
ATOM     21  C   LIG    1        4.073   1.434   0.184  0.00  0.00    +0.180 C 
ATOM     22  C   LIG    1        2.579   1.237   0.166  0.00  0.00    +0.270 A 
ATOM     23  C   LIG    1        2.038   0.029   0.102  0.00  0.00    -0.830 A 
ATOM     24  S   LIG    1        0.286   0.300   0.106  0.00  0.00    +0.110 S 
ATOM     25  C   LIG    1        0.405   2.016   0.192  0.00  0.00    +0.470 A 
ATOM     26  O   LIG    1       -0.514   2.815   0.222  0.00  0.00    -0.460 OA
ATOM     27  N   LIG    1        1.718   2.293   0.213  0.00  0.00    -0.640 N 
ATOM     28  H   LIG    1        2.042   3.206   0.260  0.00  0.00    +0.420 HD
ENDBRANCH  18  23
ENDBRANCH   1  18
TORSDOF 5
