REMARK  Name = ZINCrg000000tUTr.0
REMARK                            x       y       z     vdW  Elec       q    Type
REMARK                         _______ _______ _______ _____ _____    ______ ____
ROOT
ATOM      1  C   LIG    1        0.782   4.817  -2.501  0.00  0.00    +0.530 C 
ATOM      2  N   LIG    1        0.393   4.894  -3.789  0.00  0.00    -0.620 N 
ATOM      3  C   LIG    1        1.172   4.243  -4.853  0.00  0.00    +0.300 C 
ATOM      4  C   LIG    1        0.213   3.385  -5.695  0.00  0.00    +0.210 C 
ATOM      5  N   LIG    1       -0.900   4.220  -6.163  0.00  0.00    -0.460 N 
ATOM      6  C   LIG    1       -1.694   4.730  -5.038  0.00  0.00    +0.220 C 
ATOM      7  C   LIG    1       -0.818   5.638  -4.168  0.00  0.00    +0.300 C 
ATOM      8  O   LIG    1        0.131   5.365  -1.637  0.00  0.00    -0.510 OA
ENDROOT
BRANCH   5   9
ATOM      9  C   LIG    1       -1.698   3.527  -7.060  0.00  0.00    +0.480 A 
ATOM     10  N   LIG    1       -2.993   3.408  -6.813  0.00  0.00    -0.530 NA
ATOM     11  C   LIG    1       -3.784   2.757  -7.650  0.00  0.00    +0.340 A 
ATOM     12  C   LIG    1       -3.239   2.188  -8.792  0.00  0.00    -0.040 A 
ATOM     13  C   LIG    1       -1.876   2.328  -9.016  0.00  0.00    +0.350 A 
ATOM     14  F   LIG    1       -4.016   1.512  -9.666  0.00  0.00    -0.120 F 
ATOM     15  N   LIG    1       -1.144   2.996  -8.140  0.00  0.00    -0.500 NA
ENDBRANCH   5   9
BRANCH   1  16
ATOM     16  C   LIG    1        2.026   4.049  -2.135  0.00  0.00    +0.050 C 
BRANCH  16  28
ATOM     17  O   LIG    1        4.563   4.116  -0.186  0.00  0.00    -0.500 OA
ATOM     18  C   LIG    1        3.549   3.456  -0.269  0.00  0.00    +0.500 C 
ATOM     19  N   LIG    1        3.586   2.125  -0.046  0.00  0.00    -0.660 N 
ATOM     20  H   LIG    1        4.434   1.676   0.099  0.00  0.00    +0.420 HD
ATOM     21  C   LIG    1        2.387   1.400  -0.027  0.00  0.00    +0.090 A 
ATOM     22  C   LIG    1        2.399   0.015  -0.024  0.00  0.00    +0.010 A 
ATOM     23  C   LIG    1        1.206  -0.684  -0.011  0.00  0.00    +0.020 A 
ATOM     24  C   LIG    1        0.002  -0.004   0.002  0.00  0.00    +0.020 A 
ATOM     25  C   LIG    1       -0.017   1.379   0.010  0.00  0.00    +0.030 A 
ATOM     26  C   LIG    1        1.173   2.086   0.002  0.00  0.00    +0.080 A 
ATOM     27  O   LIG    1        1.168   3.445   0.042  0.00  0.00    -0.280 OA
ATOM     28  C   LIG    1        2.241   4.118  -0.621  0.00  0.00    +0.260 C 
ENDBRANCH  16  28
ENDBRANCH   1  16
TORSDOF 3
