REMARK  Name = ZINCrD00000lbCEP.0
REMARK                            x       y       z     vdW  Elec       q    Type
REMARK                         _______ _______ _______ _____ _____    ______ ____
ROOT
ATOM      1  O   LIG    1       -1.162   2.986  -0.473  0.00  0.00    -0.530 OA
ATOM      2  C   LIG    1       -1.156   1.784  -0.649  0.00  0.00    +0.560 C 
ATOM      3  N   LIG    1       -0.012   1.087  -0.502  0.00  0.00    -0.710 N 
ATOM      4  H   LIG    1       -0.008   0.127  -0.642  0.00  0.00    +0.410 HD
ENDROOT
BRANCH   2   5
ATOM      5  C   LIG    1       -2.404   1.086  -1.024  0.00  0.00    -0.110 A 
ATOM      6  C   LIG    1       -2.400  -0.294  -1.233  0.00  0.00    +0.060 A 
ATOM      7  C   LIG    1       -3.569  -0.940  -1.578  0.00  0.00    +0.060 A 
ATOM      8  C   LIG    1       -4.742  -0.222  -1.728  0.00  0.00    -0.070 A 
ATOM      9  C   LIG    1       -4.752   1.147  -1.529  0.00  0.00    +0.060 A 
ATOM     10  C   LIG    1       -3.591   1.805  -1.178  0.00  0.00    +0.090 A 
BRANCH   8  11
ATOM     11  C   LIG    1       -6.014  -0.933  -2.110  0.00  0.00    +0.000 C 
ATOM     12  N   LIG    1       -7.150  -0.885  -1.186  0.00  0.00    -0.050 NA
ATOM     13  N   LIG    1       -6.538  -1.965  -1.212  0.00  0.00    -0.050 NA
BRANCH  11  14
ATOM     14  C   LIG    1       -6.295  -1.057  -3.609  0.00  0.00    +0.500 C 
ATOM     15  F   LIG    1       -6.383   0.220  -4.174  0.00  0.00    -0.150 F 
ATOM     16  F   LIG    1       -7.503  -1.736  -3.803  0.00  0.00    -0.170 F 
ATOM     17  F   LIG    1       -5.257  -1.767  -4.221  0.00  0.00    -0.150 F 
ENDBRANCH  11  14
ENDBRANCH   8  11
ENDBRANCH   2   5
BRANCH   3  18
ATOM     18  C   LIG    1        1.226   1.779  -0.136  0.00  0.00    +0.240 C 
BRANCH  18  19
ATOM     19  C   LIG    1        2.337   0.752   0.091  0.00  0.00    +0.110 C 
ATOM     20  C   LIG    1        1.937  -0.190   1.228  0.00  0.00    +0.050 C 
ATOM     21  C   LIG    1        3.048  -1.217   1.455  0.00  0.00    +0.010 C 
ATOM     22  C   LIG    1        4.344  -0.493   1.824  0.00  0.00    +0.000 C 
ATOM     23  C   LIG    1        4.744   0.449   0.686  0.00  0.00    +0.020 C 
ATOM     24  C   LIG    1        3.633   1.476   0.460  0.00  0.00    +0.010 C 
BRANCH  19  25
ATOM     25  O   LIG    1        2.538  -0.004  -1.105  0.00  0.00    -0.360 OA
BRANCH  25  26
ATOM     26  C   LIG    1        2.876   0.789  -2.244  0.00  0.00    +0.180 C 
BRANCH  26  27
ATOM     27  C   LIG    1        3.095  -0.122  -3.454  0.00  0.00    +0.190 C 
BRANCH  27  28
ATOM     28  O   LIG    1        1.865  -0.765  -3.794  0.00  0.00    -0.570 OA
ATOM     29  H   LIG    1        1.929  -1.360  -4.554  0.00  0.00    +0.380 HD
ENDBRANCH  27  28
ENDBRANCH  26  27
ENDBRANCH  25  26
ENDBRANCH  19  25
ENDBRANCH  18  19
ENDBRANCH   3  18
TORSDOF 9
