REMARK  Name = ZINCnE000001Evd5.1
REMARK                            x       y       z     vdW  Elec       q    Type
REMARK                         _______ _______ _______ _____ _____    ______ ____
ROOT
ATOM      1  C   LIG    1        1.262  -2.149  -0.013  0.00  0.00    +0.150 C 
ATOM      2  C   LIG    1        0.194  -2.860  -0.518  0.00  0.00    -0.050 C 
ENDROOT
BRANCH   1   8
ATOM      3  C   LIG    1       -0.352   3.790   2.241  0.00  0.00    +0.040 C 
ATOM      4  C   LIG    1       -0.449   3.626   0.723  0.00  0.00    +0.100 C 
ATOM      5  C   LIG    1       -1.196   2.321   0.360  0.00  0.00    +0.080 C 
ATOM      6  C   LIG    1       -0.051   1.338   0.207  0.00  0.00    -0.170 A 
ATOM      7  C   LIG    1       -0.017  -0.023   0.166  0.00  0.00    +0.080 A 
ATOM      8  C   LIG    1        1.212  -0.686   0.032  0.00  0.00    -0.100 A 
ATOM      9  C   LIG    1        2.393   0.065  -0.060  0.00  0.00    +0.080 A 
ATOM     10  C   LIG    1        2.343   1.427  -0.021  0.00  0.00    -0.010 A 
ATOM     11  C   LIG    1        1.119   2.088   0.109  0.00  0.00    +0.110 A 
ATOM     12  C   LIG    1       -1.135   4.840   0.093  0.00  0.00    +0.080 C 
ATOM     13  O   LIG    1        0.852   3.421   0.149  0.00  0.00    -0.300 OA
ENDBRANCH   1   8
BRANCH   2  14
ATOM     14  C   LIG    1        0.178  -4.327  -0.426  0.00  0.00    +0.500 C 
ATOM     15  N   LIG    1       -0.866  -5.022  -0.920  0.00  0.00    -0.680 NA
ATOM     16  O   LIG    1        1.107  -4.914   0.096  0.00  0.00    -0.570 OA
BRANCH  15  17
ATOM     17  C   LIG    1       -0.881  -6.408  -0.833  0.00  0.00    +0.340 A 
ATOM     18  N   LIG    1        0.057  -7.129  -0.304  0.00  0.00    -0.560 NA
ATOM     19  C   LIG    1       -0.123  -8.437  -0.303  0.00  0.00    +0.230 A 
ATOM     20  C   LIG    1       -1.264  -8.840  -0.866  0.00  0.00    -0.210 A 
ATOM     21  S   LIG    1       -2.137  -7.412  -1.415  0.00  0.00    +0.010 S 
ENDBRANCH  15  17
ENDBRANCH   2  14
BRANCH   2  22
ATOM     22  C   LIG    1       -0.899  -2.169  -1.132  0.00  0.00    +0.280 C 
ATOM     23  N   LIG    1       -1.767  -1.620  -1.619  0.00  0.00    -0.440 NA
ENDBRANCH   2  22
TORSDOF 4
