REMARK  Name = ZINCpe00000MJKVQ.0
REMARK                            x       y       z     vdW  Elec       q    Type
REMARK                         _______ _______ _______ _____ _____    ______ ____
ROOT
ATOM      1  C   LIG    1        7.064   4.859   1.538  0.00  0.00    +0.160 C 
ATOM      2  C   LIG    1        6.490   5.702   0.392  0.00  0.00    +0.290 C 
ATOM      3  N   LIG    1        5.269   4.885   0.471  0.00  0.00    -0.640 N 
ATOM      4  C   LIG    1        3.964   5.061   0.186  0.00  0.00    +0.560 C 
ATOM      5  O   LIG    1        3.576   6.123  -0.253  0.00  0.00    -0.530 OA
ATOM      6  C   LIG    1        6.100   3.795   1.004  0.00  0.00    +0.270 C 
ENDROOT
BRANCH   4   7
ATOM      7  C   LIG    1        2.985   3.938   0.415  0.00  0.00    +0.020 C 
ATOM      8  C   LIG    1        3.389   2.729  -0.433  0.00  0.00    +0.030 C 
ATOM      9  C   LIG    1        2.558   1.510  -0.016  0.00  0.00    +0.110 C 
ATOM     10  C   LIG    1        1.104   1.909   0.002  0.00  0.00    -0.250 A 
ATOM     11  C   LIG    1        0.667   3.195   0.013  0.00  0.00    +0.090 A 
ATOM     12  N   LIG    1       -0.676   3.173   0.025  0.00  0.00    -0.370 N 
ATOM     13  N   LIG    1       -1.084   1.831   0.017  0.00  0.00    -0.300 NA
ATOM     14  C   LIG    1       -1.557   4.343   0.038  0.00  0.00    +0.360 C 
ATOM     15  C   LIG    1       -0.013   1.076   0.008  0.00  0.00    +0.240 A 
ATOM     16  C   LIG    1        1.578   4.397   0.014  0.00  0.00    +0.150 C 
ENDBRANCH   4   7
BRANCH   1  17
ATOM     17  O   LIG    1        8.446   4.529   1.388  0.00  0.00    -0.360 OA
BRANCH  17  18
ATOM     18  C   LIG    1        9.145   4.377   2.625  0.00  0.00    +0.360 C 
BRANCH  18  22
ATOM     19  C   LIG    1       12.666   4.124   1.968  0.00  0.00    +0.170 A 
ATOM     20  N   LIG    1       12.290   2.880   1.996  0.00  0.00    -0.370 NA
ATOM     21  O   LIG    1       11.099   2.806   2.213  0.00  0.00    +0.090 OA
ATOM     22  C   LIG    1       10.586   4.032   2.349  0.00  0.00    +0.180 A 
ATOM     23  N   LIG    1       11.575   4.879   2.189  0.00  0.00    -0.460 NA
BRANCH  19  25
ATOM     24  C   LIG    1       14.277   4.847   0.228  0.00  0.00    +0.040 C 
ATOM     25  C   LIG    1       14.065   4.628   1.727  0.00  0.00    +0.160 C 
ENDBRANCH  19  25
ENDBRANCH  18  22
ENDBRANCH  17  18
ENDBRANCH   1  17
TORSDOF 5
