REMARK  Name = ZINCpe000000XZTv.0
REMARK                            x       y       z     vdW  Elec       q    Type
REMARK                         _______ _______ _______ _____ _____    ______ ____
ROOT
ATOM      1  C   LIG    1       -3.107   1.754   5.543  0.00  0.00    +0.520 C 
ATOM      2  N   LIG    1       -3.775   1.950   6.697  0.00  0.00    -0.730 N 
ATOM      3  H   LIG    1       -4.028   2.847   6.964  0.00  0.00    +0.400 HD
ATOM      4  O   LIG    1       -2.791   0.632   5.208  0.00  0.00    -0.530 OA
ENDROOT
BRANCH   1   5
ATOM      5  C   LIG    1       -2.753   2.929   4.668  0.00  0.00    +0.150 C 
BRANCH   5  10
ATOM      6  C   LIG    1       -0.013   1.086   0.008  0.00  0.00    +0.190 C 
ATOM      7  C   LIG    1       -0.718   1.572   1.248  0.00  0.00    +0.400 A 
ATOM      8  N   LIG    1       -2.008   1.772   1.211  0.00  0.00    -0.540 NA
ATOM      9  C   LIG    1       -2.679   2.198   2.284  0.00  0.00    +0.200 A 
ATOM     10  C   LIG    1       -2.015   2.442   3.448  0.00  0.00    -0.250 A 
ATOM     11  C   LIG    1       -0.621   2.231   3.486  0.00  0.00    +0.530 A 
ATOM     12  O   LIG    1        0.012   2.437   4.508  0.00  0.00    -0.530 OA
ATOM     13  C   LIG    1       -4.169   2.413   2.207  0.00  0.00    +0.150 C 
ATOM     14  N   LIG    1       -0.003   1.795   2.368  0.00  0.00    -0.630 N 
ATOM     15  H   LIG    1        0.955   1.642   2.371  0.00  0.00    +0.420 HD
ENDBRANCH   5  10
ENDBRANCH   1   5
BRANCH   2  16
ATOM     16  C   LIG    1       -4.119   0.807   7.547  0.00  0.00    +0.330 C 
BRANCH  16  17
ATOM     17  C   LIG    1       -4.858   1.294   8.767  0.00  0.00    -0.180 A 
ATOM     18  C   LIG    1       -4.162   1.634   9.918  0.00  0.00    +0.120 A 
ATOM     19  C   LIG    1       -4.879   2.081  11.015  0.00  0.00    -0.020 A 
ATOM     20  C   LIG    1       -6.263   2.164  10.930  0.00  0.00    +0.380 A 
ATOM     21  N   LIG    1       -6.891   1.825   9.816  0.00  0.00    -0.510 NA
ATOM     22  C   LIG    1       -6.235   1.400   8.754  0.00  0.00    +0.330 A 
BRANCH  20  23
ATOM     23  N   LIG    1       -6.999   2.609  12.032  0.00  0.00    -0.330 N 
ATOM     24  C   LIG    1       -8.350   2.739  12.093  0.00  0.00    +0.260 A 
ATOM     25  C   LIG    1       -8.662   3.196  13.327  0.00  0.00    -0.100 A 
ATOM     26  C   LIG    1       -7.471   3.350  14.045  0.00  0.00    +0.270 A 
ATOM     27  N   LIG    1       -6.476   2.994  13.273  0.00  0.00    -0.290 NA
ENDBRANCH  20  23
ENDBRANCH  16  17
ENDBRANCH   2  16
TORSDOF 5
