REMARK  Name = ZINCpk00000eaN9M.0
REMARK                            x       y       z     vdW  Elec       q    Type
REMARK                         _______ _______ _______ _____ _____    ______ ____
ROOT
ATOM      1  N   LIG    1        2.256   3.192  -6.353  0.00  0.00    -0.530 NA
ATOM      2  C   LIG    1        2.716   1.934  -5.751  0.00  0.00    +0.180 C 
ATOM      3  C   LIG    1        1.591   0.895  -5.824  0.00  0.00    +0.290 C 
ATOM      4  N   LIG    1        0.383   1.471  -5.215  0.00  0.00    -0.610 N 
ATOM      5  C   LIG    1       -0.066   2.794  -5.676  0.00  0.00    +0.280 C 
ATOM      6  C   LIG    1       -0.298   0.802  -4.264  0.00  0.00    +0.500 C 
ATOM      7  O   LIG    1        0.084  -0.289  -3.899  0.00  0.00    -0.510 OA
ATOM      8  C   LIG    1        1.127   3.760  -5.604  0.00  0.00    +0.170 C 
ENDROOT
BRANCH   1   9
ATOM      9  C   LIG    1        3.357   4.159  -6.458  0.00  0.00    +0.190 C 
BRANCH   9  11
ATOM     10  C   LIG    1        4.688   5.866  -5.211  0.00  0.00    +0.010 C 
ATOM     11  C   LIG    1        3.648   4.753  -5.078  0.00  0.00    +0.160 C 
BRANCH  11  12
ATOM     12  O   LIG    1        4.152   3.730  -4.217  0.00  0.00    -0.560 OA
ATOM     13  H   LIG    1        4.971   3.320  -4.529  0.00  0.00    +0.380 HD
ENDBRANCH  11  12
ENDBRANCH   9  11
ENDBRANCH   1   9
BRANCH   6  14
ATOM     14  C   LIG    1       -1.534   1.411  -3.653  0.00  0.00    +0.330 C 
BRANCH  14  15
ATOM     15  N   LIG    1       -2.086   0.495  -2.652  0.00  0.00    -0.470 N 
ATOM     16  C   LIG    1       -3.017  -0.499  -2.878  0.00  0.00    +0.060 A 
ATOM     17  C   LIG    1       -3.697  -0.950  -4.002  0.00  0.00    +0.010 A 
ATOM     18  C   LIG    1       -4.592  -1.992  -3.886  0.00  0.00    +0.030 A 
ATOM     19  C   LIG    1       -4.817  -2.593  -2.655  0.00  0.00    +0.000 A 
ATOM     20  C   LIG    1       -4.156  -2.163  -1.539  0.00  0.00    +0.070 A 
ATOM     21  C   LIG    1       -3.245  -1.108  -1.633  0.00  0.00    +0.050 A 
ATOM     22  N   LIG    1       -2.454  -0.471  -0.731  0.00  0.00    -0.490 NA
ATOM     23  C   LIG    1       -1.775   0.464  -1.328  0.00  0.00    +0.330 A 
BRANCH  23  24
ATOM     24  C   LIG    1       -0.792   1.383  -0.651  0.00  0.00    +0.010 C 
ATOM     25  C   LIG    1        0.412   0.743   0.043  0.00  0.00    +0.050 C 
ATOM     26  C   LIG    1       -0.722   1.342   0.877  0.00  0.00    +0.070 C 
ENDBRANCH  23  24
ENDBRANCH  14  15
ENDBRANCH   6  14
TORSDOF 6
