REMARK  Name = ZINCnE00000dFQvQ.0
REMARK                            x       y       z     vdW  Elec       q    Type
REMARK                         _______ _______ _______ _____ _____    ______ ____
ROOT
ATOM      1  C   LIG    1        2.708   4.012   2.823  0.00  0.00    -0.100 A 
ATOM      2  C   LIG    1        2.778   3.101   3.877  0.00  0.00    +0.040 A 
ATOM      3  C   LIG    1        2.335   1.805   3.693  0.00  0.00    +0.080 A 
ATOM      4  C   LIG    1        1.825   1.414   2.467  0.00  0.00    -0.010 A 
ATOM      5  C   LIG    1        1.752   2.314   1.415  0.00  0.00    -0.130 A 
ATOM      6  C   LIG    1        1.242   2.129   0.002  0.00  0.00    +0.290 C 
ATOM      7  C   LIG    1        1.011   3.557  -0.535  0.00  0.00    +0.050 C 
ATOM      8  C   LIG    1        2.006   4.389   0.301  0.00  0.00    +0.120 C 
ATOM      9  F   LIG    1        2.401   0.918   4.711  0.00  0.00    -0.140 F 
ATOM     10  C   LIG    1        2.190   3.611   1.586  0.00  0.00    -0.050 A 
ENDROOT
BRANCH   1  12
ATOM     11  O   LIG    1        3.629   5.748   4.093  0.00  0.00    -0.680 OA
ATOM     12  C   LIG    1        3.178   5.398   3.012  0.00  0.00    +0.520 C 
ATOM     13  O   LIG    1        3.116   6.196   2.088  0.00  0.00    -0.670 OA
ENDBRANCH   1  12
BRANCH   6  14
ATOM     14  N   LIG    1       -0.017   1.379   0.010  0.00  0.00    -0.640 N 
ATOM     15  H   LIG    1       -0.863   1.853   0.016  0.00  0.00    +0.420 HD
BRANCH  14  16
ATOM     16  C   LIG    1        0.002  -0.004   0.002  0.00  0.00    +0.350 A 
ATOM     17  N   LIG    1       -1.031  -0.820   0.007  0.00  0.00    -0.560 NA
ATOM     18  C   LIG    1       -0.770  -2.106  -0.002  0.00  0.00    +0.230 A 
ATOM     19  N   LIG    1        0.479  -2.473  -0.016  0.00  0.00    -0.470 NA
ATOM     20  S   LIG    1        1.383  -1.034  -0.024  0.00  0.00    +0.260 S 
BRANCH  18  21
ATOM     21  C   LIG    1       -1.880  -3.125   0.004  0.00  0.00    +0.570 C 
ATOM     22  F   LIG    1       -3.082  -2.504   0.360  0.00  0.00    -0.150 F 
ATOM     23  F   LIG    1       -1.583  -4.133   0.928  0.00  0.00    -0.160 F 
ATOM     24  F   LIG    1       -2.005  -3.685  -1.272  0.00  0.00    -0.160 F 
ENDBRANCH  18  21
ENDBRANCH  14  16
ENDBRANCH   6  14
TORSDOF 4
