REMARK  Name = ZINCnE000005uvko.1
REMARK                            x       y       z     vdW  Elec       q    Type
REMARK                         _______ _______ _______ _____ _____    ______ ____
ROOT
ATOM      1  C   LIG    1        2.013   5.635   0.014  0.00  0.00    +0.120 A 
ATOM      2  C   LIG    1        0.720   6.017   0.029  0.00  0.00    -0.110 A 
ATOM      3  S   LIG    1       -0.282   4.568   0.023  0.00  0.00    +0.050 S 
ATOM      4  C   LIG    1        1.166   3.566   0.011  0.00  0.00    +0.200 A 
ATOM      5  N   LIG    1        2.219   4.330   0.005  0.00  0.00    -0.500 NA
ENDROOT
BRANCH   1  13
ATOM      6  O   LIG    1        8.597   8.437  -0.231  0.00  0.00    -0.560 OA
ATOM      7  C   LIG    1        7.406   8.192  -0.167  0.00  0.00    +0.680 A 
ATOM      8  N   LIG    1        6.432   9.112  -0.035  0.00  0.00    -0.640 N 
ATOM      9  H   LIG    1        6.562  10.072   0.025  0.00  0.00    +0.430 HD
ATOM     10  C   LIG    1        5.206   8.451   0.001  0.00  0.00    +0.090 A 
ATOM     11  C   LIG    1        3.895   8.889   0.121  0.00  0.00    +0.020 A 
ATOM     12  C   LIG    1        2.861   7.977   0.126  0.00  0.00    +0.050 A 
ATOM     13  C   LIG    1        3.129   6.613   0.009  0.00  0.00    +0.000 A 
ATOM     14  C   LIG    1        4.444   6.169  -0.105  0.00  0.00    +0.080 A 
ATOM     15  C   LIG    1        5.480   7.086  -0.116  0.00  0.00    +0.090 A 
ATOM     16  N   LIG    1        6.864   6.961  -0.219  0.00  0.00    -0.640 N 
ATOM     17  H   LIG    1        7.354   6.129  -0.312  0.00  0.00    +0.440 HD
ENDBRANCH   1  13
BRANCH   4  18
ATOM     18  C   LIG    1        1.183   2.088   0.002  0.00  0.00    -0.180 A 
ATOM     19  C   LIG    1       -0.017   1.375   0.010  0.00  0.00    +0.060 A 
ATOM     20  C   LIG    1        0.002  -0.004   0.002  0.00  0.00    -0.140 A 
ATOM     21  C   LIG    1        1.212  -0.684  -0.013  0.00  0.00    +0.270 A 
ATOM     22  C   LIG    1        2.410   0.022  -0.020  0.00  0.00    -0.060 A 
ATOM     23  F   LIG    1        3.586  -0.643  -0.035  0.00  0.00    -0.160 F 
ATOM     24  O   LIG    1        1.226  -2.043  -0.020  0.00  0.00    -0.690 OA
ATOM     25  C   LIG    1        2.399   1.402  -0.014  0.00  0.00    +0.080 A 
ENDBRANCH   4  18
TORSDOF 2
