REMARK  Name = ZINCwl0000000vB9.0
REMARK                            x       y       z     vdW  Elec       q    Type
REMARK                         _______ _______ _______ _____ _____    ______ ____
ROOT
ATOM      1  C   LIG    1        0.853  10.300   0.337  0.00  0.00    +0.190 C 
ATOM      2  C   LIG    1        2.217   9.659   0.316  0.00  0.00    +0.410 A 
ATOM      3  N   LIG    1        2.288   8.366   0.219  0.00  0.00    -0.520 NA
ATOM      4  C   LIG    1        3.480   7.720   0.195  0.00  0.00    +0.140 A 
ATOM      5  C   LIG    1        3.558   6.324   0.090  0.00  0.00    +0.140 A 
ATOM      6  C   LIG    1        4.797   5.709   0.075  0.00  0.00    +0.080 A 
ATOM      7  C   LIG    1        5.962   6.459   0.149  0.00  0.00    +0.020 A 
ATOM      8  C   LIG    1        5.908   7.832   0.253  0.00  0.00    +0.100 A 
ATOM      9  C   LIG    1        4.671   8.474   0.277  0.00  0.00    -0.180 A 
ATOM     10  C   LIG    1        4.556   9.936   0.386  0.00  0.00    +0.560 A 
ATOM     11  O   LIG    1        5.543  10.644   0.460  0.00  0.00    -0.490 OA
ATOM     12  N   LIG    1        3.309  10.463   0.400  0.00  0.00    -0.530 N 
ENDROOT
BRANCH  12  13
ATOM     13  C   LIG    1        3.136  11.914   0.507  0.00  0.00    +0.260 C 
ATOM     14  C   LIG    1        3.774  12.411   1.809  0.00  0.00    +0.070 C 
ATOM     15  C   LIG    1        3.680  13.940   1.846  0.00  0.00    +0.110 C 
ATOM     16  C   LIG    1        4.321  14.505   0.606  0.00  0.00    +0.520 C 
ATOM     17  N   LIG    1        4.340  13.814  -0.544  0.00  0.00    -0.670 N 
ATOM     18  H   LIG    1        4.756  14.216  -1.323  0.00  0.00    +0.420 HD
ATOM     19  O   LIG    1        4.830  15.604   0.647  0.00  0.00    -0.490 OA
ATOM     20  C   LIG    1        3.806  12.589  -0.660  0.00  0.00    +0.520 C 
ATOM     21  O   LIG    1        3.865  12.013  -1.726  0.00  0.00    -0.480 OA
ENDBRANCH  12  13
BRANCH   5  22
ATOM     22  N   LIG    1        2.391   5.558   0.008  0.00  0.00    -0.640 N 
ATOM     23  H   LIG    1        1.618   5.903  -0.465  0.00  0.00    +0.420 HD
ATOM     24  C   LIG    1        2.341   4.342   0.585  0.00  0.00    +0.550 C 
ATOM     25  O   LIG    1        3.336   3.875   1.107  0.00  0.00    -0.500 OA
BRANCH  24  26
ATOM     26  C   LIG    1        1.078   3.574   0.584  0.00  0.00    -0.060 A 
ATOM     27  C   LIG    1       -0.065   4.107  -0.015  0.00  0.00    +0.060 A 
ATOM     28  C   LIG    1       -1.241   3.386  -0.013  0.00  0.00    +0.100 A 
ATOM     29  C   LIG    1       -1.290   2.135   0.575  0.00  0.00    -0.180 A 
ATOM     30  C   LIG    1       -0.161   1.602   1.177  0.00  0.00    +0.120 A 
ATOM     31  F   LIG    1       -0.216   0.381   1.754  0.00  0.00    -0.130 F 
ATOM     32  C   LIG    1        1.023   2.314   1.182  0.00  0.00    +0.070 A 
BRANCH  29  33
ATOM     33  C   LIG    1       -2.577   1.352   0.568  0.00  0.00    +0.350 C 
BRANCH  33  34
ATOM     34  N   LIG    1       -3.245   1.495   1.868  0.00  0.00    -0.640 N 
ATOM     35  H   LIG    1       -2.642   1.144   2.597  0.00  0.00    +0.440 HD
ATOM     36  H   LIG    1       -4.107   0.970   1.863  0.00  0.00    +0.440 HD
ATOM     37  H   LIG    1       -3.445   2.469   2.038  0.00  0.00    +0.440 HD
ENDBRANCH  33  34
ENDBRANCH  29  33
ENDBRANCH  24  26
ENDBRANCH   5  22
TORSDOF 5
