REMARK  Name = ZINCpk00000y6zff.0
REMARK                            x       y       z     vdW  Elec       q    Type
REMARK                         _______ _______ _______ _____ _____    ______ ____
ROOT
ATOM      1  C   LIG    1        0.002  -0.004   0.002  0.00  0.00    +0.510 C 
ATOM      2  N   LIG    1        0.514  -0.677   1.051  0.00  0.00    -0.600 N 
ATOM      3  C   LIG    1        1.048   0.092   2.193  0.00  0.00    +0.250 C 
ATOM      4  C   LIG    1        0.644  -0.522   3.546  0.00  0.00    +0.020 C 
ATOM      5  C   LIG    1       -0.789  -0.991   3.495  0.00  0.00    +0.030 C 
ATOM      6  C   LIG    1       -0.827  -2.455   3.067  0.00  0.00    +0.170 C 
ATOM      7  C   LIG    1       -0.803  -2.662   1.611  0.00  0.00    -0.020 C 
ATOM      8  C   LIG    1        0.514  -2.122   1.015  0.00  0.00    +0.290 C 
ATOM      9  O   LIG    1       -0.443  -0.611  -0.949  0.00  0.00    -0.510 OA
ENDROOT
BRANCH   1  14
ATOM     10  C   LIG    1       -0.238   3.534  -3.023  0.00  0.00    +0.050 C 
ATOM     11  C   LIG    1       -0.007   3.220  -1.544  0.00  0.00    +0.140 C 
ATOM     12  C   LIG    1        1.490   2.920  -1.277  0.00  0.00    +0.020 C 
ATOM     13  C   LIG    1        1.423   2.046  -0.001  0.00  0.00    +0.020 C 
ATOM     14  C   LIG    1       -0.018   1.503   0.010  0.00  0.00    +0.150 C 
ATOM     15  O   LIG    1       -0.667   1.989  -1.176  0.00  0.00    -0.340 OA
ENDBRANCH   1  14
BRANCH   6  16
ATOM     16  N   LIG    1       -2.049  -3.067   3.605  0.00  0.00    -0.530 NA
ATOM     17  C   LIG    1       -3.247  -2.481   2.989  0.00  0.00    +0.190 C 
BRANCH  16  18
ATOM     18  C   LIG    1       -2.028  -4.526   3.431  0.00  0.00    +0.280 C 
BRANCH  18  19
ATOM     19  C   LIG    1       -3.166  -5.140   4.205  0.00  0.00    +0.370 A 
ATOM     20  N   LIG    1       -2.968  -5.506   5.454  0.00  0.00    -0.540 NA
ATOM     21  C   LIG    1       -3.944  -6.046   6.172  0.00  0.00    +0.350 A 
ATOM     22  C   LIG    1       -5.182  -6.234   5.590  0.00  0.00    -0.160 A 
ATOM     23  C   LIG    1       -5.357  -5.840   4.262  0.00  0.00    +0.440 A 
ATOM     24  N   LIG    1       -4.331  -5.301   3.610  0.00  0.00    -0.580 NA
BRANCH  23  25
ATOM     25  N   LIG    1       -6.581  -6.008   3.634  0.00  0.00    -0.840 N 
ATOM     26  H   LIG    1       -7.324  -6.402   4.117  0.00  0.00    +0.410 HD
ATOM     27  H   LIG    1       -6.694  -5.732   2.711  0.00  0.00    +0.410 HD
ENDBRANCH  23  25
ENDBRANCH  18  19
ENDBRANCH  16  18
ENDBRANCH   6  16
TORSDOF 5
