REMARK  Name = ZINCvU0000000CUE.0
REMARK                            x       y       z     vdW  Elec       q    Type
REMARK                         _______ _______ _______ _____ _____    ______ ____
ROOT
ATOM      1  C   LIG    1        0.002  -0.004   0.002  0.00  0.00    +0.160 A 
ATOM      2  N   LIG    1       -0.016   1.310   0.009  0.00  0.00    -0.280 NA
ATOM      3  N   LIG    1        1.184   1.769   0.000  0.00  0.00    -0.250 NA
ATOM      4  C   LIG    1        2.045   0.775  -0.013  0.00  0.00    +0.260 A 
ATOM      5  N   LIG    1        1.313  -0.392  -0.013  0.00  0.00    -0.450 N 
ENDROOT
BRANCH   4   6
ATOM      6  C   LIG    1        3.512   0.887  -0.027  0.00  0.00    +0.040 A 
ATOM      7  C   LIG    1        4.226   2.010  -0.319  0.00  0.00    +0.030 A 
ATOM      8  C   LIG    1        5.587   1.666  -0.209  0.00  0.00    -0.050 A 
ATOM      9  C   LIG    1        5.639   0.363   0.131  0.00  0.00    +0.190 A 
ATOM     10  O   LIG    1        4.384  -0.105   0.240  0.00  0.00    -0.180 OA
ENDBRANCH   4   6
BRANCH   1  11
ATOM     11  S   LIG    1       -1.403  -1.068   0.010  0.00  0.00    +0.080 S 
BRANCH  11  13
ATOM     12  C   LIG    1       -2.676   0.950   1.340  0.00  0.00    +0.080 C 
ATOM     13  C   LIG    1       -2.729   0.163   0.029  0.00  0.00    +0.020 C 
BRANCH  13  14
ATOM     14  C   LIG    1       -4.061  -0.532  -0.085  0.00  0.00    +0.540 C 
ATOM     15  N   LIG    1       -5.124   0.127  -0.588  0.00  0.00    -0.720 N 
ATOM     16  H   LIG    1       -5.032   1.048  -0.876  0.00  0.00    +0.400 HD
ATOM     17  O   LIG    1       -4.177  -1.684   0.275  0.00  0.00    -0.520 OA
BRANCH  15  18
ATOM     18  C   LIG    1       -6.419  -0.549  -0.699  0.00  0.00    +0.270 C 
BRANCH  18  19
ATOM     19  C   LIG    1       -7.448   0.414  -1.296  0.00  0.00    +0.060 C 
BRANCH  19  20
ATOM     20  C   LIG    1       -8.780  -0.281  -1.410  0.00  0.00    -0.120 C 
ATOM     21  C   LIG    1       -9.629  -0.128  -0.445  0.00  0.00    -0.040 C 
ATOM     22  C   LIG    1      -10.990  -0.760  -0.415  0.00  0.00    +0.050 C 
ATOM     23  C   LIG    1      -11.380  -1.241  -1.814  0.00  0.00    +0.010 C 
ATOM     24  C   LIG    1      -10.216  -2.057  -2.389  0.00  0.00    +0.020 C 
ATOM     25  C   LIG    1       -9.037  -1.113  -2.632  0.00  0.00    +0.060 C 
ENDBRANCH  19  20
ENDBRANCH  18  19
ENDBRANCH  15  18
ENDBRANCH  13  14
ENDBRANCH  11  13
ENDBRANCH   1  11
BRANCH   5  26
ATOM     26  C   LIG    1        1.830  -1.763  -0.026  0.00  0.00    +0.360 C 
BRANCH  26  27
ATOM     27  C   LIG    1        1.994  -2.224  -1.451  0.00  0.00    -0.130 A 
ATOM     28  C   LIG    1        0.951  -2.864  -2.094  0.00  0.00    +0.040 A 
ATOM     29  C   LIG    1        1.099  -3.283  -3.403  0.00  0.00    +0.010 A 
ATOM     30  C   LIG    1        2.294  -3.072  -4.065  0.00  0.00    +0.030 A 
ATOM     31  C   LIG    1        3.339  -2.437  -3.420  0.00  0.00    +0.010 A 
ATOM     32  C   LIG    1        3.189  -2.013  -2.113  0.00  0.00    +0.030 A 
ENDBRANCH  26  27
ENDBRANCH   5  26
TORSDOF 9
