REMARK  Name = ZINCvU0000000DbH.0
REMARK                            x       y       z     vdW  Elec       q    Type
REMARK                         _______ _______ _______ _____ _____    ______ ____
ROOT
ATOM      1  C   LIG    1       -0.953   8.133   0.029  0.00  0.00    +0.190 A 
ATOM      2  N   LIG    1       -0.745   9.045  -0.878  0.00  0.00    -0.250 NA
ATOM      3  N   LIG    1       -0.588  10.193  -0.321  0.00  0.00    -0.290 NA
ATOM      4  C   LIG    1       -0.688  10.073   0.983  0.00  0.00    +0.150 A 
ATOM      5  N   LIG    1       -0.929   8.755   1.246  0.00  0.00    -0.440 N 
ENDROOT
BRANCH   5   6
ATOM      6  C   LIG    1       -1.120   8.136   2.560  0.00  0.00    +0.290 C 
ATOM      7  C   LIG    1       -1.132   9.222   3.638  0.00  0.00    +0.100 C 
BRANCH   6   8
ATOM      8  C   LIG    1        0.007   7.173   2.830  0.00  0.00    -0.110 A 
ATOM      9  C   LIG    1        1.319   7.599   2.733  0.00  0.00    +0.020 A 
ATOM     10  C   LIG    1        2.353   6.716   2.985  0.00  0.00    +0.010 A 
ATOM     11  C   LIG    1        2.075   5.405   3.324  0.00  0.00    +0.020 A 
ATOM     12  C   LIG    1        0.763   4.978   3.416  0.00  0.00    +0.010 A 
ATOM     13  C   LIG    1       -0.270   5.862   3.168  0.00  0.00    +0.020 A 
ENDBRANCH   6   8
ENDBRANCH   5   6
BRANCH   1  14
ATOM     14  C   LIG    1       -1.184   6.664  -0.219  0.00  0.00    +0.340 C 
BRANCH  14  15
ATOM     15  O   LIG    1        0.070   5.978  -0.216  0.00  0.00    -0.300 OA
BRANCH  15  19
ATOM     16  C   LIG    1       -0.024   1.903  -0.856  0.00  0.00    -0.120 A 
ATOM     17  C   LIG    1       -1.201   2.629  -0.852  0.00  0.00    +0.040 A 
ATOM     18  C   LIG    1       -1.173   3.992  -0.632  0.00  0.00    -0.080 A 
ATOM     19  C   LIG    1        0.039   4.636  -0.426  0.00  0.00    +0.130 A 
ATOM     20  C   LIG    1        1.219   3.906  -0.436  0.00  0.00    -0.010 A 
ATOM     21  C   LIG    1        1.185   2.542  -0.651  0.00  0.00    +0.050 A 
BRANCH  16  23
ATOM     22  C   LIG    1       -0.194  -0.309   0.251  0.00  0.00    +0.020 C 
ATOM     23  C   LIG    1       -0.058   0.415  -1.090  0.00  0.00    +0.060 C 
ENDBRANCH  16  23
ENDBRANCH  15  19
ENDBRANCH  14  15
ENDBRANCH   1  14
BRANCH   4  24
ATOM     24  S   LIG    1       -0.544  11.369   2.167  0.00  0.00    +0.080 S 
BRANCH  24  25
ATOM     25  C   LIG    1       -0.242  12.772   1.064  0.00  0.00    +0.050 C 
BRANCH  25  26
ATOM     26  C   LIG    1       -0.082  14.028   1.881  0.00  0.00    +0.390 C 
ATOM     27  O   LIG    1       -0.165  13.980   3.084  0.00  0.00    -0.440 OA
BRANCH  26  28
ATOM     28  C   LIG    1        0.180  15.344   1.195  0.00  0.00    -0.100 C 
ATOM     29  C   LIG    1       -0.977  15.665   0.246  0.00  0.00    +0.060 C 
ATOM     30  C   LIG    1        1.483  15.254   0.398  0.00  0.00    +0.060 C 
ATOM     31  C   LIG    1        0.300  16.451   2.245  0.00  0.00    +0.050 C 
ENDBRANCH  26  28
ENDBRANCH  25  26
ENDBRANCH  24  25
ENDBRANCH   4  24
TORSDOF 10
