REMARK  Name = ZINCrg000000s9Vj.0
REMARK                            x       y       z     vdW  Elec       q    Type
REMARK                         _______ _______ _______ _____ _____    ______ ____
ROOT
ATOM      1  C   LIG    1       -4.828   5.107  -3.990  0.00  0.00    +0.530 C 
ATOM      2  N   LIG    1       -3.948   5.183  -2.972  0.00  0.00    -0.610 N 
ATOM      3  C   LIG    1       -4.158   6.133  -1.871  0.00  0.00    +0.260 C 
ATOM      4  C   LIG    1       -4.109   5.368  -0.544  0.00  0.00    +0.020 C 
ATOM      5  C   LIG    1       -2.796   4.587  -0.458  0.00  0.00    +0.020 C 
ATOM      6  C   LIG    1       -2.728   3.573  -1.603  0.00  0.00    +0.000 C 
ATOM      7  C   LIG    1       -2.761   4.317  -2.942  0.00  0.00    +0.310 C 
ATOM      8  O   LIG    1       -4.643   4.319  -4.893  0.00  0.00    -0.530 OA
ENDROOT
BRANCH   1  11
ATOM      9  N   LIG    1       -8.318   5.857  -4.741  0.00  0.00    -0.580 N 
ATOM     10  C   LIG    1       -6.942   5.689  -5.221  0.00  0.00    +0.310 C 
ATOM     11  C   LIG    1       -6.040   6.002  -4.007  0.00  0.00    +0.000 C 
ATOM     12  C   LIG    1       -6.981   5.680  -2.823  0.00  0.00    +0.090 C 
ATOM     13  C   LIG    1       -8.371   5.850  -3.398  0.00  0.00    +0.530 C 
ATOM     14  O   LIG    1       -9.385   5.963  -2.742  0.00  0.00    -0.510 OA
BRANCH   9  19
ATOM     15  C   LIG    1      -12.840   6.457  -8.119  0.00  0.00    +0.100 C 
ATOM     16  C   LIG    1      -11.639   6.299  -7.223  0.00  0.00    -0.050 A 
ATOM     17  C   LIG    1      -11.237   5.038  -6.824  0.00  0.00    +0.020 A 
ATOM     18  C   LIG    1      -10.137   4.888  -6.001  0.00  0.00    +0.070 A 
ATOM     19  C   LIG    1       -9.433   6.006  -5.575  0.00  0.00    +0.100 A 
ATOM     20  C   LIG    1       -9.842   7.274  -5.974  0.00  0.00    +0.110 A 
ATOM     21  F   LIG    1       -9.163   8.365  -5.558  0.00  0.00    -0.130 F 
ATOM     22  C   LIG    1      -10.940   7.416  -6.801  0.00  0.00    -0.010 A 
ENDBRANCH   9  19
ENDBRANCH   1  11
BRANCH   6  23
ATOM     23  C   LIG    1       -1.430   2.770  -1.497  0.00  0.00    -0.350 C 
BRANCH  23  24
ATOM     24  S   LIG    1       -1.456   1.774   0.019  0.00  0.00    +2.620 S 
ATOM     25  O   LIG    1       -1.381   2.610   1.165  0.00  0.00    -0.950 OA
ATOM     26  O   LIG    1       -2.433   0.747  -0.077  0.00  0.00    -0.960 OA
BRANCH  24  27
ATOM     27  N   LIG    1       -0.011   0.966   0.007  0.00  0.00    -1.250 NA
ATOM     28  H   LIG    1        0.822   1.462   0.002  0.00  0.00    +0.420 HD
ATOM     29  H   LIG    1        0.002  -0.004   0.002  0.00  0.00    +0.420 HD
ENDBRANCH  24  27
ENDBRANCH  23  24
ENDBRANCH   6  23
TORSDOF 5
