REMARK  Name = ZINCqH0000006T7i.0
REMARK                            x       y       z     vdW  Elec       q    Type
REMARK                         _______ _______ _______ _____ _____    ______ ____
ROOT
ATOM      1  C   LIG    1       -6.276   6.040   0.283  0.00  0.00    +0.250 C 
ATOM      2  C   LIG    1       -7.135   5.757  -0.952  0.00  0.00    +0.050 C 
ENDROOT
BRANCH   1   3
ATOM      3  C   LIG    1       -4.962   5.313   0.159  0.00  0.00    +0.510 C 
ATOM      4  N   LIG    1       -4.942   3.970   0.049  0.00  0.00    -0.670 N 
ATOM      5  H   LIG    1       -5.774   3.477  -0.027  0.00  0.00    +0.420 HD
ATOM      6  O   LIG    1       -3.922   5.937   0.157  0.00  0.00    -0.500 OA
BRANCH   4   7
ATOM      7  C   LIG    1       -3.721   3.287   0.044  0.00  0.00    +0.200 A 
ATOM      8  C   LIG    1       -2.653   3.765   0.791  0.00  0.00    +0.040 A 
ATOM      9  C   LIG    1       -1.449   3.089   0.784  0.00  0.00    +0.130 A 
ATOM     10  C   LIG    1       -1.307   1.935   0.034  0.00  0.00    -0.060 A 
ATOM     11  C   LIG    1       -2.367   1.459  -0.715  0.00  0.00    +0.130 A 
ATOM     12  C   LIG    1       -3.575   2.128  -0.708  0.00  0.00    +0.000 A 
BRANCH  10  13
ATOM     13  N   LIG    1       -0.015   1.213   0.028  0.00  0.00    +0.030 N 
ATOM     14  O   LIG    1        0.110   0.194  -0.628  0.00  0.00    -0.160 OA
ATOM     15  O   LIG    1        0.922   1.634   0.683  0.00  0.00    -0.160 OA
ENDBRANCH  10  13
ENDBRANCH   4   7
ENDBRANCH   1   3
BRANCH   1  16
ATOM     16  N   LIG    1       -6.030   7.480   0.387  0.00  0.00    -0.730 N 
ATOM     17  H   LIG    1       -5.217   7.861   0.021  0.00  0.00    +0.420 HD
BRANCH  16  21
ATOM     18  C   LIG    1       -8.829   9.946   2.262  0.00  0.00    +0.130 A 
ATOM     19  C   LIG    1       -7.668  10.494   1.739  0.00  0.00    -0.100 A 
ATOM     20  C   LIG    1       -6.735   9.677   1.121  0.00  0.00    +0.110 A 
ATOM     21  C   LIG    1       -6.971   8.308   1.017  0.00  0.00    +0.170 A 
ATOM     22  C   LIG    1       -8.134   7.764   1.542  0.00  0.00    +0.020 A 
ATOM     23  C   LIG    1       -9.061   8.582   2.162  0.00  0.00    -0.060 A 
ATOM     24 CL   LIG    1      -10.516   7.899   2.817  0.00  0.00    -0.050 Cl
BRANCH  18  26
ATOM     25  C   LIG    1       -9.440  12.143   2.940  0.00  0.00    +0.250 C 
ATOM     26  O   LIG    1       -9.743  10.748   2.873  0.00  0.00    -0.300 OA
ENDBRANCH  18  26
BRANCH  20  27
ATOM     27  O   LIG    1       -5.592  10.212   0.613  0.00  0.00    -0.310 OA
ATOM     28  C   LIG    1       -5.416  11.623   0.756  0.00  0.00    +0.250 C 
ENDBRANCH  20  27
ENDBRANCH  16  21
ENDBRANCH   1  16
TORSDOF 7
