REMARK  Name = ZINCrD0000028DGY.0
REMARK                            x       y       z     vdW  Elec       q    Type
REMARK                         _______ _______ _______ _____ _____    ______ ____
ROOT
ATOM      1  C   LIG    1       -3.942   2.195   0.157  0.00  0.00    -0.660 A 
ATOM      2  C   LIG    1       -4.195   3.288  -0.652  0.00  0.00    +0.110 A 
ATOM      3  C   LIG    1       -3.187   4.194  -0.928  0.00  0.00    +0.020 A 
ATOM      4  C   LIG    1       -1.928   4.014  -0.392  0.00  0.00    +0.050 A 
ATOM      5  C   LIG    1       -1.670   2.914   0.416  0.00  0.00    +0.130 A 
ATOM      6  C   LIG    1       -2.683   2.005   0.692  0.00  0.00    +0.130 A 
ENDROOT
BRANCH   5   7
ATOM      7  N   LIG    1       -0.394   2.725   0.957  0.00  0.00    -0.660 N 
ATOM      8  H   LIG    1        0.135   3.491   1.232  0.00  0.00    +0.420 HD
ATOM      9  C   LIG    1        0.100   1.479   1.100  0.00  0.00    +0.610 C 
ATOM     10  O   LIG    1       -0.595   0.515   0.836  0.00  0.00    -0.520 OA
BRANCH   9  11
ATOM     11  C   LIG    1        1.470   1.285   1.573  0.00  0.00    -0.070 A 
ATOM     12  C   LIG    1        2.117   0.058   1.776  0.00  0.00    +0.080 A 
ATOM     13  C   LIG    1        1.729  -1.278   1.604  0.00  0.00    +0.110 A 
ATOM     14  C   LIG    1        2.617  -2.271   1.892  0.00  0.00    +0.060 A 
ATOM     15  C   LIG    1        3.904  -1.939   2.347  0.00  0.00    -0.050 A 
ATOM     16  C   LIG    1        4.263  -0.645   2.501  0.00  0.00    +0.250 A 
ATOM     17 CL   LIG    1        5.040  -3.199   2.715  0.00  0.00    -0.030 Cl
ATOM     18  N   LIG    1        3.381   0.358   2.217  0.00  0.00    -0.360 N 
ATOM     19  C   LIG    1        3.473   1.716   2.281  0.00  0.00    +0.390 A 
ATOM     20  N   LIG    1        2.350   2.254   1.902  0.00  0.00    -0.420 NA
ENDBRANCH   9  11
ENDBRANCH   5   7
BRANCH   1  21
ATOM     21  S   LIG    1       -5.229   1.042   0.505  0.00  0.00    +2.690 S 
ATOM     22  O   LIG    1       -4.618  -0.240   0.549  0.00  0.00    -0.950 OA
ATOM     23  O   LIG    1       -6.302   1.362  -0.370  0.00  0.00    -0.950 OA
BRANCH  21  24
ATOM     24  N   LIG    1       -5.767   1.356   2.039  0.00  0.00    -1.110 NA
ATOM     25  H   LIG    1       -5.534   0.759   2.767  0.00  0.00    +0.420 HD
BRANCH  24  27
ATOM     26  C   LIG    1       -7.950   2.371   1.608  0.00  0.00    +0.040 C 
ATOM     27  C   LIG    1       -6.594   2.537   2.298  0.00  0.00    +0.180 C 
ATOM     28  C   LIG    1       -5.893   3.782   1.750  0.00  0.00    +0.030 C 
ATOM     29  C   LIG    1       -6.805   2.693   3.805  0.00  0.00    +0.040 C 
ENDBRANCH  24  27
ENDBRANCH  21  24
ENDBRANCH   1  21
TORSDOF 5
