REMARK  Name = ZINCrD0000070RW9.0
REMARK                            x       y       z     vdW  Elec       q    Type
REMARK                         _______ _______ _______ _____ _____    ______ ____
ROOT
ATOM      1  N   LIG    1        1.676   2.183   2.490  0.00  0.00    -0.730 N 
ATOM      2  H   LIG    1        1.464   1.623   3.253  0.00  0.00    +0.400 HD
ATOM      3  C   LIG    1        1.484   3.516   2.559  0.00  0.00    +0.510 C 
ATOM      4  O   LIG    1        1.831   4.227   1.640  0.00  0.00    -0.500 OA
ENDROOT
BRANCH   1   5
ATOM      5  C   LIG    1        2.205   1.582   1.264  0.00  0.00    +0.170 C 
ATOM      6  C   LIG    1        1.264   1.890   0.098  0.00  0.00    +0.040 C 
ATOM      7  C   LIG    1       -0.121   1.311   0.393  0.00  0.00    +0.020 C 
ATOM      8  C   LIG    1       -0.012  -0.205   0.574  0.00  0.00    +0.020 C 
ATOM      9  C   LIG    1        0.930  -0.513   1.740  0.00  0.00    +0.010 C 
ATOM     10  C   LIG    1        2.314   0.067   1.444  0.00  0.00    +0.040 C 
BRANCH   5  13
ATOM     11  N   LIG    1        4.400   2.464   1.987  0.00  0.00    -0.720 N 
ATOM     12  H   LIG    1        4.147   2.260   2.901  0.00  0.00    +0.400 HD
ATOM     13  C   LIG    1        3.569   2.153   0.972  0.00  0.00    +0.520 C 
ATOM     14  O   LIG    1        3.919   2.333  -0.175  0.00  0.00    -0.530 OA
BRANCH  11  15
ATOM     15  C   LIG    1        5.685   3.111   1.709  0.00  0.00    +0.300 C 
BRANCH  15  17
ATOM     16  C   LIG    1        7.633   2.888   3.164  0.00  0.00    +0.030 C 
ATOM     17  C   LIG    1        6.417   3.349   3.004  0.00  0.00    -0.060 C 
ENDBRANCH  15  17
ENDBRANCH  11  15
ENDBRANCH   5  13
ENDBRANCH   1   5
BRANCH   3  18
ATOM     18  C   LIG    1        0.838   4.122   3.779  0.00  0.00    +0.150 C 
BRANCH  18  19
ATOM     19  C   LIG    1        0.740   5.615   3.606  0.00  0.00    +0.090 A 
ATOM     20  C   LIG    1       -0.421   6.268   3.716  0.00  0.00    -0.070 A 
ATOM     21  S   LIG    1       -0.118   7.984   3.448  0.00  0.00    +0.140 S 
ATOM     22  C   LIG    1        1.593   7.639   3.207  0.00  0.00    +0.140 A 
ATOM     23  N   LIG    1        1.792   6.357   3.343  0.00  0.00    -0.430 NA
BRANCH  22  24
ATOM     24  C   LIG    1        2.631   8.638   2.908  0.00  0.00    +0.040 A 
ATOM     25  C   LIG    1        2.434   9.979   2.765  0.00  0.00    +0.000 A 
ATOM     26  C   LIG    1        3.692  10.546   2.489  0.00  0.00    -0.050 A 
ATOM     27  C   LIG    1        4.586   9.536   2.469  0.00  0.00    +0.010 A 
ATOM     28  C   LIG    1        6.063   9.676   2.206  0.00  0.00    +0.180 C 
ATOM     29  O   LIG    1        3.942   8.386   2.723  0.00  0.00    -0.150 OA
ENDBRANCH  22  24
ENDBRANCH  18  19
ENDBRANCH   3  18
TORSDOF 7
