REMARK  Name = ZINCpk00000xI6bH.0
REMARK                            x       y       z     vdW  Elec       q    Type
REMARK                         _______ _______ _______ _____ _____    ______ ____
ROOT
ATOM      1  N   LIG    1       -2.988   1.700   0.075  0.00  0.00    -0.390 N 
ATOM      2  C   LIG    1       -3.081   3.040  -0.028  0.00  0.00    +0.300 A 
ATOM      3  N   LIG    1       -1.884   3.559  -0.134  0.00  0.00    -0.490 NA
ATOM      4  C   LIG    1       -0.967   2.587  -0.122  0.00  0.00    +0.320 A 
ATOM      5  N   LIG    1        0.415   2.569  -0.216  0.00  0.00    -0.510 N 
ATOM      6  C   LIG    1        1.154   3.825  -0.366  0.00  0.00    +0.350 C 
ATOM      7  C   LIG    1        1.079   1.399  -0.170  0.00  0.00    +0.710 A 
ATOM      8  O   LIG    1        2.293   1.403  -0.254  0.00  0.00    -0.530 OA
ATOM      9  N   LIG    1        0.436   0.227  -0.033  0.00  0.00    -0.550 N 
ATOM     10  C   LIG    1        1.207  -1.018   0.013  0.00  0.00    +0.350 C 
ATOM     11  C   LIG    1       -0.909   0.180   0.064  0.00  0.00    +0.600 A 
ATOM     12  O   LIG    1       -1.481  -0.888   0.187  0.00  0.00    -0.510 OA
ATOM     13  C   LIG    1       -1.646   1.383   0.014  0.00  0.00    -0.150 A 
ENDROOT
BRANCH   1  15
ATOM     14  C   LIG    1       -4.786   0.988   1.573  0.00  0.00    +0.060 C 
ATOM     15  C   LIG    1       -4.101   0.759   0.224  0.00  0.00    +0.240 C 
ATOM     16  C   LIG    1       -5.109   0.978  -0.905  0.00  0.00    +0.070 C 
ENDBRANCH   1  15
BRANCH   2  17
ATOM     17  C   LIG    1       -4.367   3.825  -0.009  0.00  0.00    +0.300 C 
BRANCH  17  18
ATOM     18  N   LIG    1       -4.789   4.108  -1.387  0.00  0.00    -0.530 NA
ATOM     19  C   LIG    1       -3.925   5.123  -2.003  0.00  0.00    +0.190 C 
ATOM     20  C   LIG    1       -4.300   5.287  -3.478  0.00  0.00    -0.020 C 
ATOM     21  C   LIG    1       -5.768   5.708  -3.583  0.00  0.00    +0.010 C 
ATOM     22  C   LIG    1       -6.643   4.659  -2.891  0.00  0.00    -0.010 C 
ATOM     23  C   LIG    1       -8.106   5.102  -2.938  0.00  0.00    +0.020 C 
ATOM     24  C   LIG    1       -4.097   3.957  -4.207  0.00  0.00    +0.030 C 
ATOM     25  C   LIG    1       -6.200   4.513  -1.433  0.00  0.00    +0.180 C 
ENDBRANCH  17  18
ENDBRANCH   2  17
TORSDOF 3
