REMARK  Name = ZINCvU0000000IFQ.0
REMARK                            x       y       z     vdW  Elec       q    Type
REMARK                         _______ _______ _______ _____ _____    ______ ____
ROOT
ATOM      1  C   LIG    1       -0.677   1.440   1.204  0.00  0.00    +0.260 C 
ENDROOT
BRANCH   1   4
ATOM      2  O   LIG    1       -2.943   2.242  -0.019  0.00  0.00    -0.510 OA
ATOM      3  C   LIG    1       -3.008   1.169   0.547  0.00  0.00    +0.560 C 
ATOM      4  N   LIG    1       -1.929   0.678   1.188  0.00  0.00    -0.710 N 
ATOM      5  H   LIG    1       -1.981  -0.178   1.640  0.00  0.00    +0.410 HD
BRANCH   3   6
ATOM      6  C   LIG    1       -4.271   0.400   0.531  0.00  0.00    -0.120 A 
ATOM      7  C   LIG    1       -4.348  -0.836   1.175  0.00  0.00    +0.040 A 
ATOM      8  C   LIG    1       -5.531  -1.545   1.162  0.00  0.00    +0.030 A 
ATOM      9  C   LIG    1       -6.637  -1.039   0.502  0.00  0.00    -0.050 A 
ATOM     10  C   LIG    1       -6.566   0.183  -0.143  0.00  0.00    +0.030 A 
ATOM     11  C   LIG    1       -5.391   0.905  -0.132  0.00  0.00    +0.080 A 
BRANCH   9  12
ATOM     12  C   LIG    1       -7.925  -1.822   0.487  0.00  0.00    +0.170 C 
BRANCH  12  13
ATOM     13  S   LIG    1       -7.946  -2.923  -0.955  0.00  0.00    -0.220 S 
BRANCH  13  14
ATOM     14  C   LIG    1       -9.545  -3.765  -0.801  0.00  0.00    +0.430 C 
ATOM     15  F   LIG    1      -10.575  -2.819  -0.832  0.00  0.00    -0.190 F 
ATOM     16  F   LIG    1       -9.590  -4.464   0.410  0.00  0.00    -0.190 F 
ENDBRANCH  13  14
ENDBRANCH  12  13
ENDBRANCH   9  12
ENDBRANCH   3   6
ENDBRANCH   1   4
BRANCH   1  17
ATOM     17  C   LIG    1        0.133   1.050   2.413  0.00  0.00    +0.510 C 
ATOM     18  N   LIG    1        1.331   1.625   2.635  0.00  0.00    -0.670 N 
ATOM     19  H   LIG    1        1.706   2.233   1.979  0.00  0.00    +0.410 HD
ATOM     20  O   LIG    1       -0.293   0.218   3.186  0.00  0.00    -0.510 OA
BRANCH  18  21
ATOM     21  C   LIG    1        2.033   1.347   3.813  0.00  0.00    +0.140 A 
ATOM     22  C   LIG    1        1.344   1.107   4.994  0.00  0.00    +0.010 A 
ATOM     23  C   LIG    1        2.040   0.828   6.154  0.00  0.00    +0.030 A 
ATOM     24  C   LIG    1        3.422   0.796   6.142  0.00  0.00    -0.010 A 
ATOM     25  C   LIG    1        4.112   1.039   4.968  0.00  0.00    +0.030 A 
ATOM     26  C   LIG    1        3.422   1.315   3.804  0.00  0.00    -0.010 A 
ENDBRANCH  18  21
ENDBRANCH   1  17
BRANCH   1  27
ATOM     27  C   LIG    1        0.121   1.134  -0.065  0.00  0.00    +0.080 C 
BRANCH  27  28
ATOM     28  C   LIG    1       -0.636   1.635  -1.268  0.00  0.00    -0.070 A 
ATOM     29  C   LIG    1       -1.532   0.806  -1.916  0.00  0.00    +0.000 A 
ATOM     30  C   LIG    1       -2.230   1.267  -3.017  0.00  0.00    +0.010 A 
ATOM     31  C   LIG    1       -2.024   2.555  -3.475  0.00  0.00    +0.000 A 
ATOM     32  C   LIG    1       -1.124   3.383  -2.830  0.00  0.00    +0.010 A 
ATOM     33  C   LIG    1       -0.430   2.923  -1.727  0.00  0.00    +0.010 A 
ENDBRANCH  27  28
ENDBRANCH   1  27
TORSDOF 9
