REMARK  Name = ZINCqH0000031DZL.0
REMARK                            x       y       z     vdW  Elec       q    Type
REMARK                         _______ _______ _______ _____ _____    ______ ____
ROOT
ATOM      1  C   LIG    1        6.171   4.558  -3.282  0.00  0.00    -0.240 A 
ATOM      2  C   LIG    1        6.996   5.646  -3.331  0.00  0.00    +0.100 A 
ATOM      3  C   LIG    1        7.746   5.745  -4.470  0.00  0.00    +0.080 A 
ATOM      4  C   LIG    1        7.549   4.739  -5.374  0.00  0.00    -0.130 A 
ATOM      5  S   LIG    1        6.358   3.607  -4.749  0.00  0.00    +0.190 S 
ENDROOT
BRANCH   4   6
ATOM      6  C   LIG    1        8.233   4.620  -6.671  0.00  0.00    +0.180 A 
ATOM      7  N   LIG    1        9.108   5.456  -7.126  0.00  0.00    -0.450 NA
ATOM      8  C   LIG    1        9.648   5.212  -8.324  0.00  0.00    +0.080 A 
ATOM      9  C   LIG    1       10.616   5.965  -9.028  0.00  0.00    +0.080 A 
ATOM     10  C   LIG    1       11.048   5.561 -10.254  0.00  0.00    +0.030 A 
ATOM     11  C   LIG    1       10.550   4.405 -10.838  0.00  0.00    +0.050 A 
ATOM     12  C   LIG    1        9.607   3.650 -10.177  0.00  0.00    +0.060 A 
ATOM     13  C   LIG    1        9.151   4.046  -8.921  0.00  0.00    -0.170 A 
ATOM     14  S   LIG    1        7.974   3.322  -7.830  0.00  0.00    +0.070 S 
ENDBRANCH   4   6
BRANCH   1  17
ATOM     15  N   LIG    1        4.500   3.125  -2.233  0.00  0.00    -0.720 N 
ATOM     16  H   LIG    1        4.540   2.548  -3.011  0.00  0.00    +0.400 HD
ATOM     17  C   LIG    1        5.271   4.229  -2.171  0.00  0.00    +0.590 C 
ATOM     18  O   LIG    1        5.220   4.953  -1.195  0.00  0.00    -0.520 OA
BRANCH  15  24
ATOM     19  C   LIG    1       -0.150  -0.292   0.014  0.00  0.00    +0.080 C 
ATOM     20  C   LIG    1       -0.014   1.209   0.009  0.00  0.00    +0.510 C 
ATOM     21  N   LIG    1        1.208   1.775  -0.013  0.00  0.00    -0.620 N 
ATOM     22  C   LIG    1        1.356   3.233  -0.123  0.00  0.00    +0.280 C 
ATOM     23  C   LIG    1        2.281   3.552  -1.297  0.00  0.00    +0.000 C 
ATOM     24  C   LIG    1        3.601   2.797  -1.123  0.00  0.00    +0.250 C 
ATOM     25  C   LIG    1        3.331   1.290  -1.114  0.00  0.00    +0.020 C 
ATOM     26  C   LIG    1        2.419   0.946   0.067  0.00  0.00    +0.290 C 
ATOM     27  O   LIG    1       -1.006   1.907   0.029  0.00  0.00    -0.540 OA
ENDBRANCH  15  24
ENDBRANCH   1  17
TORSDOF 3
