REMARK  Name = ZINCpk00000y1ZkU.0
REMARK                            x       y       z     vdW  Elec       q    Type
REMARK                         _______ _______ _______ _____ _____    ______ ____
ROOT
ATOM      1  C   LIG    1        4.956   5.543   2.984  0.00  0.00    +0.300 C 
ATOM      2  C   LIG    1        5.463   6.986   2.777  0.00  0.00    +0.040 C 
ATOM      3  C   LIG    1        6.049   6.948   1.341  0.00  0.00    +0.040 C 
ATOM      4  C   LIG    1        5.076   5.973   0.633  0.00  0.00    +0.240 C 
ATOM      5  N   LIG    1        4.753   4.957   1.651  0.00  0.00    -0.610 N 
ATOM      6  C   LIG    1        4.336   3.700   1.402  0.00  0.00    +0.510 C 
ATOM      7  O   LIG    1        4.098   2.946   2.322  0.00  0.00    -0.510 OA
ENDROOT
BRANCH   1  11
ATOM      8  C   LIG    1        1.563   5.195   6.657  0.00  0.00    +0.360 C 
ATOM      9  N   LIG    1        2.180   5.406   5.345  0.00  0.00    -0.370 N 
ATOM     10  C   LIG    1        3.492   5.282   5.056  0.00  0.00    +0.240 A 
ATOM     11  C   LIG    1        3.652   5.559   3.741  0.00  0.00    -0.240 A 
ATOM     12  C   LIG    1        2.396   5.868   3.210  0.00  0.00    +0.230 A 
ATOM     13  N   LIG    1        1.512   5.771   4.169  0.00  0.00    -0.300 NA
ENDBRANCH   1  11
BRANCH   6  14
ATOM     14  C   LIG    1        4.165   3.231  -0.020  0.00  0.00    +0.360 C 
BRANCH  14  15
ATOM     15  N   LIG    1        3.706   1.839  -0.024  0.00  0.00    -0.520 N 
ATOM     16  C   LIG    1        4.496   0.749  -0.037  0.00  0.00    +0.690 A 
ATOM     17  N   LIG    1        3.736  -0.362  -0.036  0.00  0.00    -0.540 N 
ATOM     18  C   LIG    1        2.397   0.022  -0.021  0.00  0.00    +0.090 A 
ATOM     19  C   LIG    1        1.204  -0.684  -0.013  0.00  0.00    +0.020 A 
ATOM     20  C   LIG    1        0.002  -0.004   0.002  0.00  0.00    +0.020 A 
ATOM     21  C   LIG    1       -0.017   1.380   0.010  0.00  0.00    +0.020 A 
ATOM     22  C   LIG    1        1.167   2.093   0.002  0.00  0.00    +0.030 A 
ATOM     23  C   LIG    1        4.232  -1.740  -0.047  0.00  0.00    +0.340 C 
ATOM     24  O   LIG    1        5.713   0.766  -0.049  0.00  0.00    -0.550 OA
ATOM     25  C   LIG    1        2.378   1.419  -0.013  0.00  0.00    +0.100 A 
ENDBRANCH  14  15
ENDBRANCH   6  14
TORSDOF 3
