REMARK  Name = ZINCqH0000031HEj.0
REMARK                            x       y       z     vdW  Elec       q    Type
REMARK                         _______ _______ _______ _____ _____    ______ ____
ROOT
ATOM      1  C   LIG    1       -3.559   2.667   3.187  0.00  0.00    +0.590 C 
ATOM      2  N   LIG    1       -4.641   2.553   2.391  0.00  0.00    -0.620 N 
ATOM      3  C   LIG    1       -4.498   2.028   1.031  0.00  0.00    +0.280 C 
ATOM      4  O   LIG    1       -3.659   3.200   4.276  0.00  0.00    -0.510 OA
ENDROOT
BRANCH   1   9
ATOM      5  C   LIG    1       -0.114   1.537   2.667  0.00  0.00    -0.260 A 
ATOM      6  C   LIG    1       -0.704   1.238   1.448  0.00  0.00    +0.100 A 
ATOM      7  N   LIG    1       -1.990   1.613   1.499  0.00  0.00    -0.530 N 
ATOM      8  H   LIG    1       -2.630   1.521   0.776  0.00  0.00    +0.420 HD
ATOM      9  C   LIG    1       -2.261   2.146   2.740  0.00  0.00    -0.060 A 
ATOM     10  C   LIG    1       -0.014   0.608   0.266  0.00  0.00    +0.150 C 
ATOM     11  C   LIG    1       -1.118   2.115   3.481  0.00  0.00    -0.030 A 
ATOM     12  C   LIG    1       -0.953   2.603   4.897  0.00  0.00    +0.120 C 
BRANCH   5  14
ATOM     13  C   LIG    1        1.702  -0.048   3.574  0.00  0.00    +0.070 C 
ATOM     14  C   LIG    1        1.283   1.299   3.041  0.00  0.00    +0.440 C 
ATOM     15  O   LIG    1        2.103   2.185   2.922  0.00  0.00    -0.450 OA
ENDBRANCH   5  14
ENDBRANCH   1   9
BRANCH   2  16
ATOM     16  C   LIG    1       -5.960   2.954   2.886  0.00  0.00    +0.360 C 
BRANCH  16  17
ATOM     17  C   LIG    1       -6.245   4.373   2.466  0.00  0.00    -0.120 A 
ATOM     18  C   LIG    1       -5.364   5.037   1.636  0.00  0.00    +0.030 A 
ATOM     19  C   LIG    1       -5.624   6.340   1.250  0.00  0.00    -0.020 A 
ATOM     20  C   LIG    1       -6.766   6.981   1.694  0.00  0.00    +0.030 A 
ATOM     21  C   LIG    1       -7.651   6.322   2.524  0.00  0.00    -0.030 A 
ATOM     22  C   LIG    1       -7.396   5.012   2.910  0.00  0.00    +0.110 A 
BRANCH  22  23
ATOM     23  N   LIG    1       -8.291   4.341   3.745  0.00  0.00    -0.470 N 
ATOM     24  C   LIG    1       -9.521   5.145   3.964  0.00  0.00    +0.180 C 
ATOM     25  C   LIG    1      -10.557   4.091   4.426  0.00  0.00    +0.030 C 
ATOM     26  C   LIG    1      -10.205   2.858   3.562  0.00  0.00    +0.020 C 
ATOM     27  C   LIG    1       -8.742   3.074   3.131  0.00  0.00    +0.170 C 
ENDBRANCH  22  23
ENDBRANCH  16  17
ENDBRANCH   2  16
TORSDOF 5
