REMARK  Name = ZINCvU000000043J.0
REMARK                            x       y       z     vdW  Elec       q    Type
REMARK                         _______ _______ _______ _____ _____    ______ ____
ROOT
ATOM      1  C   LIG    1       -2.038   3.212  -3.672  0.00  0.00    -0.020 A 
ATOM      2  C   LIG    1       -2.441   4.091  -4.587  0.00  0.00    -0.020 A 
ATOM      3  S   LIG    1       -3.028   5.564  -3.838  0.00  0.00    +0.180 S 
ATOM      4  C   LIG    1       -2.711   4.955  -2.221  0.00  0.00    +0.120 A 
ATOM      5  N   LIG    1       -2.899   5.514  -1.018  0.00  0.00    -0.520 NA
ATOM      6  C   LIG    1       -2.588   4.871   0.084  0.00  0.00    +0.390 A 
ATOM      7  N   LIG    1       -2.079   3.652   0.066  0.00  0.00    -0.580 NA
ATOM      8  C   LIG    1       -1.857   3.019  -1.077  0.00  0.00    +0.490 A 
ATOM      9  C   LIG    1       -2.170   3.671  -2.295  0.00  0.00    -0.230 A 
ENDROOT
BRANCH   1  13
ATOM     10  C   LIG    1       -0.478  -0.611  -4.684  0.00  0.00    +0.020 A 
ATOM     11  C   LIG    1       -1.749  -0.253  -5.099  0.00  0.00    +0.020 A 
ATOM     12  C   LIG    1       -2.260   0.986  -4.774  0.00  0.00    +0.030 A 
ATOM     13  C   LIG    1       -1.494   1.879  -4.025  0.00  0.00    -0.040 A 
ATOM     14  C   LIG    1       -0.212   1.514  -3.614  0.00  0.00    +0.010 A 
ATOM     15  C   LIG    1        0.286   0.270  -3.941  0.00  0.00    +0.020 A 
ENDBRANCH   1  13
BRANCH   8  16
ATOM     16  N   LIG    1       -1.324   1.742  -1.080  0.00  0.00    -0.700 N 
ATOM     17  H   LIG    1       -1.241   1.254  -1.914  0.00  0.00    +0.410 HD
BRANCH  16  18
ATOM     18  C   LIG    1       -0.885   1.129   0.175  0.00  0.00    +0.250 C 
ATOM     19  C   LIG    1        0.548   1.568   0.484  0.00  0.00    -0.010 C 
ATOM     20  C   LIG    1        0.868   1.270   1.950  0.00  0.00    +0.010 C 
ATOM     21  C   LIG    1       -0.313   1.691   2.827  0.00  0.00    -0.000 C 
ATOM     22  C   LIG    1       -0.957   0.449   3.446  0.00  0.00    +0.000 C 
ATOM     23  C   LIG    1       -1.793  -0.272   2.386  0.00  0.00    +0.000 C 
ATOM     24  C   LIG    1       -0.867  -1.030   1.433  0.00  0.00    +0.020 C 
ATOM     25  C   LIG    1       -0.933  -0.395   0.043  0.00  0.00    +0.010 C 
ENDBRANCH  16  18
ENDBRANCH   8  16
BRANCH   6  26
ATOM     26  C   LIG    1       -2.819   5.545   1.411  0.00  0.00    +0.300 C 
BRANCH  26  27
ATOM     27  N   LIG    1       -1.617   6.298   1.794  0.00  0.00    -0.530 NA
ATOM     28  C   LIG    1       -0.491   5.392   2.062  0.00  0.00    +0.160 C 
ATOM     29  C   LIG    1        0.753   6.218   2.398  0.00  0.00    +0.220 C 
ATOM     30  O   LIG    1        0.467   7.069   3.511  0.00  0.00    -0.380 OA
ATOM     31  C   LIG    1       -0.625   7.965   3.285  0.00  0.00    +0.220 C 
ATOM     32  C   LIG    1       -1.883   7.157   2.958  0.00  0.00    +0.160 C 
ENDBRANCH  26  27
ENDBRANCH   6  26
TORSDOF 5
