REMARK  Name = ZINCpk00001AZj5y.0
REMARK                            x       y       z     vdW  Elec       q    Type
REMARK                         _______ _______ _______ _____ _____    ______ ____
ROOT
ATOM      1  N   LIG    1        4.175   5.479   3.913  0.00  0.00    -0.690 N 
ATOM      2  H   LIG    1        4.667   4.923   4.538  0.00  0.00    +0.410 HD
ATOM      3  C   LIG    1        4.570   6.747   3.684  0.00  0.00    +0.700 C 
ATOM      4  N   LIG    1        5.588   7.274   4.392  0.00  0.00    -0.730 N 
ATOM      5  H   LIG    1        6.037   6.741   5.067  0.00  0.00    +0.400 HD
ATOM      6  O   LIG    1        4.007   7.415   2.838  0.00  0.00    -0.560 OA
ENDROOT
BRANCH   1  11
ATOM      7  C   LIG    1        1.675   4.826   1.285  0.00  0.00    -0.020 A 
ATOM      8  C   LIG    1        0.833   3.931   1.946  0.00  0.00    +0.010 A 
ATOM      9  C   LIG    1        1.106   3.560   3.247  0.00  0.00    +0.040 A 
ATOM     10  C   LIG    1        2.212   4.072   3.899  0.00  0.00    +0.020 A 
ATOM     11  C   LIG    1        3.056   4.963   3.249  0.00  0.00    +0.170 A 
ATOM     12  C   LIG    1        2.793   5.338   1.940  0.00  0.00    +0.090 A 
BRANCH   7  17
ATOM     13  N   LIG    1        0.558   4.588  -0.977  0.00  0.00    -0.370 N 
ATOM     14  N   LIG    1        0.619   5.338  -2.164  0.00  0.00    -0.080 NA
ATOM     15  N   LIG    1        1.420   6.323  -1.943  0.00  0.00    -0.040 NA
ATOM     16  N   LIG    1        1.879   6.268  -0.745  0.00  0.00    -0.310 NA
ATOM     17  C   LIG    1        1.384   5.226  -0.111  0.00  0.00    +0.290 A 
BRANCH  13  19
ATOM     18  C   LIG    1       -1.627   3.759  -0.256  0.00  0.00    +0.050 C 
ATOM     19  C   LIG    1       -0.224   3.374  -0.730  0.00  0.00    +0.330 C 
ENDBRANCH  13  19
ENDBRANCH   7  17
ENDBRANCH   1  11
BRANCH   4  20
ATOM     20  C   LIG    1        6.017   8.653   4.143  0.00  0.00    +0.250 C 
ATOM     21  C   LIG    1        7.480   8.816   4.562  0.00  0.00    +0.030 C 
ATOM     22  C   LIG    1        7.939  10.247   4.272  0.00  0.00    +0.040 C 
ATOM     23  C   LIG    1        7.090  11.226   5.088  0.00  0.00    +0.300 C 
ATOM     24  N   LIG    1        5.671  10.977   4.799  0.00  0.00    -0.570 N 
ATOM     25  C   LIG    1        5.146   9.614   4.958  0.00  0.00    +0.300 C 
BRANCH  24  26
ATOM     26  C   LIG    1        4.862  11.986   4.393  0.00  0.00    +0.420 C 
ATOM     27  N   LIG    1        4.184  12.831   4.053  0.00  0.00    -0.440 NA
ENDBRANCH  24  26
ENDBRANCH   4  20
TORSDOF 5
