REMARK  Name = ZINCwJ00000004pD.1
REMARK                            x       y       z     vdW  Elec       q    Type
REMARK                         _______ _______ _______ _____ _____    ______ ____
ROOT
ATOM      1  C   LIG    1       -0.775   3.013  -1.536  0.00  0.00    -0.120 A 
ATOM      2  C   LIG    1       -1.256   3.439  -2.760  0.00  0.00    +0.000 A 
ATOM      3  C   LIG    1       -2.173   2.667  -3.449  0.00  0.00    +0.090 A 
ATOM      4  C   LIG    1       -2.608   1.469  -2.914  0.00  0.00    +0.060 A 
ATOM      5  C   LIG    1       -2.123   1.040  -1.693  0.00  0.00    +0.080 A 
ATOM      6  C   LIG    1       -1.210   1.815  -1.001  0.00  0.00    -0.130 A 
ENDROOT
BRANCH   1   7
ATOM      7  C   LIG    1        0.225   3.854  -0.785  0.00  0.00    +0.310 C 
BRANCH   7  12
ATOM      8  C   LIG    1        1.906   7.077  -1.717  0.00  0.00    +0.080 C 
ATOM      9  C   LIG    1        2.704   6.580  -2.926  0.00  0.00    +0.060 C 
ATOM     10  C   LIG    1        1.858   5.564  -3.700  0.00  0.00    +0.070 C 
ATOM     11  C   LIG    1        1.458   4.424  -2.760  0.00  0.00    +0.260 C 
ATOM     12  N   LIG    1        0.675   4.960  -1.641  0.00  0.00    -0.380 N 
ATOM     13  H   LIG    1       -0.129   5.455  -1.999  0.00  0.00    +0.420 HD
ATOM     14  C   LIG    1        1.502   5.881  -0.852  0.00  0.00    +0.280 C 
BRANCH   8  20
ATOM     15  C   LIG    1        1.963  10.209  -1.895  0.00  0.00    +0.320 C 
ATOM     16  N   LIG    1        2.773   9.386  -0.993  0.00  0.00    -0.450 N 
ATOM     17  C   LIG    1        3.674   9.834  -0.093  0.00  0.00    +0.430 A 
ATOM     18  N   LIG    1        4.194   8.808   0.524  0.00  0.00    -0.490 NA
ATOM     19  C   LIG    1        3.645   7.681   0.048  0.00  0.00    +0.170 A 
ATOM     20  C   LIG    1        2.757   8.020  -0.906  0.00  0.00    -0.060 A 
ENDBRANCH   8  20
ENDBRANCH   7  12
ENDBRANCH   1   7
BRANCH   6  21
ATOM     21  C   LIG    1       -0.685   1.350   0.333  0.00  0.00    +0.310 C 
BRANCH  21  22
ATOM     22  N   LIG    1       -1.357   2.090   1.409  0.00  0.00    -0.380 N 
ATOM     23  C   LIG    1       -2.785   1.754   1.414  0.00  0.00    +0.260 C 
ATOM     24  C   LIG    1       -2.956   0.241   1.570  0.00  0.00    +0.060 C 
ATOM     25  C   LIG    1       -2.320  -0.205   2.890  0.00  0.00    +0.060 C 
ATOM     26  C   LIG    1       -0.848   0.217   2.904  0.00  0.00    +0.080 C 
ATOM     27  C   LIG    1       -0.755   1.730   2.698  0.00  0.00    +0.280 C 
ATOM     28  H   LIG    1       -1.246   3.081   1.253  0.00  0.00    +0.410 HD
BRANCH  26  29
ATOM     29  C   LIG    1       -0.231  -0.150   4.229  0.00  0.00    -0.060 A 
ATOM     30  C   LIG    1       -0.265   0.580   5.360  0.00  0.00    +0.170 A 
ATOM     31  N   LIG    1        0.398  -0.097   6.310  0.00  0.00    -0.480 NA
ATOM     32  C   LIG    1        0.841  -1.218   5.811  0.00  0.00    +0.430 A 
ATOM     33  N   LIG    1        0.466  -1.293   4.516  0.00  0.00    -0.450 N 
ATOM     34  C   LIG    1        0.754  -2.391   3.590  0.00  0.00    +0.320 C 
ENDBRANCH  26  29
ENDBRANCH  21  22
ENDBRANCH   6  21
TORSDOF 6
