REMARK  Name = ZINCwJ00000004pD.0
REMARK                            x       y       z     vdW  Elec       q    Type
REMARK                         _______ _______ _______ _____ _____    ______ ____
ROOT
ATOM      1  C   LIG    1        1.581   1.775  -2.400  0.00  0.00    -0.140 A 
ATOM      2  C   LIG    1        1.924   2.956  -3.030  0.00  0.00    +0.070 A 
ATOM      3  C   LIG    1        3.136   3.561  -2.753  0.00  0.00    +0.070 A 
ATOM      4  C   LIG    1        4.008   2.981  -1.852  0.00  0.00    +0.070 A 
ATOM      5  C   LIG    1        3.667   1.796  -1.225  0.00  0.00    +0.070 A 
ATOM      6  C   LIG    1        2.454   1.193  -1.499  0.00  0.00    -0.140 A 
ENDROOT
BRANCH   1   7
ATOM      7  C   LIG    1        0.259   1.117  -2.699  0.00  0.00    +0.310 C 
BRANCH   7  12
ATOM      8  C   LIG    1       -0.572  -1.904  -4.765  0.00  0.00    +0.080 C 
ATOM      9  C   LIG    1       -0.081  -1.395  -6.124  0.00  0.00    +0.060 C 
ATOM     10  C   LIG    1        1.191  -0.569  -5.919  0.00  0.00    +0.070 C 
ATOM     11  C   LIG    1        0.901   0.573  -4.943  0.00  0.00    +0.260 C 
ATOM     12  N   LIG    1        0.462   0.021  -3.656  0.00  0.00    -0.380 N 
ATOM     13  H   LIG    1        1.168  -0.607  -3.302  0.00  0.00    +0.410 HD
ATOM     14  C   LIG    1       -0.797  -0.712  -3.832  0.00  0.00    +0.270 C 
BRANCH   8  20
ATOM     15  C   LIG    1       -0.935  -5.000  -5.114  0.00  0.00    +0.320 C 
ATOM     16  N   LIG    1       -2.012  -4.006  -5.097  0.00  0.00    -0.450 N 
ATOM     17  C   LIG    1       -3.333  -4.254  -5.226  0.00  0.00    +0.440 A 
ATOM     18  N   LIG    1       -3.979  -3.122  -5.167  0.00  0.00    -0.480 NA
ATOM     19  C   LIG    1       -3.102  -2.121  -4.996  0.00  0.00    +0.170 A 
ATOM     20  C   LIG    1       -1.867  -2.654  -4.946  0.00  0.00    -0.060 A 
ENDBRANCH   8  20
ENDBRANCH   7  12
ENDBRANCH   1   7
BRANCH   6  21
ATOM     21  C   LIG    1        2.083  -0.098  -0.816  0.00  0.00    +0.310 C 
BRANCH  21  22
ATOM     22  N   LIG    1        1.175   0.184   0.303  0.00  0.00    -0.380 N 
ATOM     23  C   LIG    1        1.886   0.962   1.325  0.00  0.00    +0.260 C 
ATOM     24  C   LIG    1        0.922   1.328   2.455  0.00  0.00    +0.070 C 
ATOM     25  C   LIG    1        0.369   0.045   3.082  0.00  0.00    +0.060 C 
ATOM     26  C   LIG    1       -0.306  -0.794   1.993  0.00  0.00    +0.080 C 
ATOM     27  C   LIG    1        0.703  -1.081   0.879  0.00  0.00    +0.270 C 
ATOM     28  H   LIG    1        0.385   0.715  -0.032  0.00  0.00    +0.410 HD
BRANCH  26  29
ATOM     29  C   LIG    1       -0.786  -2.094   2.584  0.00  0.00    -0.060 A 
ATOM     30  C   LIG    1       -0.061  -3.216   2.753  0.00  0.00    +0.170 A 
ATOM     31  N   LIG    1       -0.853  -4.144   3.310  0.00  0.00    -0.480 NA
ATOM     32  C   LIG    1       -2.043  -3.639   3.494  0.00  0.00    +0.440 A 
ATOM     33  N   LIG    1       -2.042  -2.360   3.059  0.00  0.00    -0.450 N 
ATOM     34  C   LIG    1       -3.175  -1.432   3.088  0.00  0.00    +0.320 C 
ENDBRANCH  26  29
ENDBRANCH  21  22
ENDBRANCH   6  21
TORSDOF 6
