REMARK  Name = ZINCpk000004ANOB.0
REMARK                            x       y       z     vdW  Elec       q    Type
REMARK                         _______ _______ _______ _____ _____    ______ ____
ROOT
ATOM      1  C   LIG    1       -6.881   1.867  -4.403  0.00  0.00    +0.520 C 
ATOM      2  N   LIG    1       -5.818   1.482  -3.670  0.00  0.00    -0.720 N 
ATOM      3  H   LIG    1       -5.946   1.149  -2.768  0.00  0.00    +0.400 HD
ATOM      4  O   LIG    1       -6.720   2.283  -5.531  0.00  0.00    -0.530 OA
ENDROOT
BRANCH   1   9
ATOM      5  C   LIG    1      -12.036   0.177  -4.154  0.00  0.00    +0.550 C 
ATOM      6  N   LIG    1      -10.941   0.858  -3.759  0.00  0.00    -0.610 N 
ATOM      7  C   LIG    1      -10.691   2.221  -4.247  0.00  0.00    +0.280 C 
ATOM      8  C   LIG    1       -9.285   2.277  -4.853  0.00  0.00    +0.060 C 
ATOM      9  C   LIG    1       -8.268   1.782  -3.822  0.00  0.00    -0.010 C 
ATOM     10  C   LIG    1       -8.579   0.329  -3.455  0.00  0.00    +0.030 C 
ATOM     11  C   LIG    1       -9.976   0.250  -2.832  0.00  0.00    +0.280 C 
ATOM     12  O   LIG    1      -12.874   0.723  -4.846  0.00  0.00    -0.540 OA
BRANCH   5  14
ATOM     13  C   LIG    1      -13.242  -1.927  -4.221  0.00  0.00    +0.140 C 
ATOM     14  C   LIG    1      -12.216  -1.225  -3.748  0.00  0.00    -0.090 C 
ENDBRANCH   5  14
ENDBRANCH   1   9
BRANCH   2  15
ATOM     15  C   LIG    1       -4.469   1.565  -4.235  0.00  0.00    +0.260 C 
ATOM     16  C   LIG    1       -3.861   2.969  -4.011  0.00  0.00    +0.050 C 
ATOM     17  C   LIG    1       -3.082   2.835  -2.721  0.00  0.00    +0.520 C 
ATOM     18  N   LIG    1       -2.891   1.536  -2.430  0.00  0.00    -0.620 N 
ATOM     19  O   LIG    1       -2.687   3.763  -2.048  0.00  0.00    -0.520 OA
ATOM     20  C   LIG    1       -3.480   0.667  -3.455  0.00  0.00    +0.280 C 
BRANCH  18  21
ATOM     21  C   LIG    1       -2.180   1.052  -1.244  0.00  0.00    +0.250 C 
ATOM     22  C   LIG    1       -0.744   1.579  -1.258  0.00  0.00    +0.010 C 
ATOM     23  C   LIG    1       -0.002   1.072  -0.020  0.00  0.00    +0.020 C 
ATOM     24  C   LIG    1       -0.715   1.568   1.240  0.00  0.00    +0.000 C 
ATOM     25  C   LIG    1       -2.151   1.041   1.254  0.00  0.00    +0.020 C 
ATOM     26  C   LIG    1       -2.893   1.548   0.016  0.00  0.00    +0.010 C 
ENDBRANCH  18  21
ENDBRANCH   2  15
TORSDOF 4
