REMARK  Name = ZINCqH0000032Ct2.0
REMARK                            x       y       z     vdW  Elec       q    Type
REMARK                         _______ _______ _______ _____ _____    ______ ____
ROOT
ATOM      1  C   LIG    1        2.932  -1.512  -1.763  0.00  0.00    +0.270 C 
ENDROOT
BRANCH   1   2
ATOM      2  N   LIG    1        3.345  -1.954  -3.097  0.00  0.00    -0.720 N 
ATOM      3  H   LIG    1        2.763  -2.528  -3.619  0.00  0.00    +0.400 HD
ATOM      4  C   LIG    1        4.534  -1.563  -3.599  0.00  0.00    +0.560 C 
ATOM      5  O   LIG    1        5.263  -0.844  -2.944  0.00  0.00    -0.520 OA
BRANCH   4   6
ATOM      6  C   LIG    1        4.949  -2.009  -4.942  0.00  0.00    -0.100 A 
ATOM      7  C   LIG    1        6.181  -1.601  -5.471  0.00  0.00    -0.100 A 
ATOM      8  S   LIG    1        7.495  -0.596  -4.857  0.00  0.00    +0.260 S 
ATOM      9  N   LIG    1        8.487  -0.742  -6.223  0.00  0.00    -0.450 NA
ATOM     10  C   LIG    1        7.899  -1.490  -7.089  0.00  0.00    +0.320 A 
ATOM     11  C   LIG    1        6.594  -2.024  -6.749  0.00  0.00    -0.150 A 
ATOM     12  C   LIG    1        5.725  -2.858  -7.484  0.00  0.00    +0.120 A 
ATOM     13  C   LIG    1        4.518  -3.246  -6.957  0.00  0.00    +0.000 A 
ATOM     14  C   LIG    1        4.118  -2.833  -5.697  0.00  0.00    +0.090 A 
ENDBRANCH   4   6
ENDBRANCH   1   2
BRANCH   1  15
ATOM     15  C   LIG    1        1.555  -2.092  -1.437  0.00  0.00    +0.180 C 
BRANCH  15  19
ATOM     16  C   LIG    1       -2.333  -3.131   0.210  0.00  0.00    +0.080 C 
ATOM     17  C   LIG    1       -1.229  -2.192  -0.281  0.00  0.00    +0.070 C 
ATOM     18  C   LIG    1        0.086  -2.516   0.440  0.00  0.00    +0.230 C 
ATOM     19  N   LIG    1        1.141  -1.649  -0.099  0.00  0.00    -0.480 N 
ATOM     20  C   LIG    1        0.760  -0.303  -0.113  0.00  0.00    +0.020 A 
ATOM     21  C   LIG    1        1.752   0.669  -0.187  0.00  0.00    +0.050 A 
ATOM     22  C   LIG    1        1.413   2.008  -0.209  0.00  0.00    -0.010 A 
ATOM     23  C   LIG    1        0.086   2.389  -0.156  0.00  0.00    +0.040 A 
ATOM     24  C   LIG    1       -0.906   1.429  -0.080  0.00  0.00    -0.010 A 
ATOM     25  C   LIG    1       -0.575   0.083  -0.057  0.00  0.00    +0.090 A 
ATOM     26  C   LIG    1       -1.046  -2.353  -1.791  0.00  0.00    +0.040 C 
ATOM     27  O   LIG    1       -1.575  -0.837   0.024  0.00  0.00    -0.300 OA
ENDBRANCH  15  19
ENDBRANCH   1  15
TORSDOF 4
