REMARK  Name = ZINCkj000005iwA5.0
REMARK                            x       y       z     vdW  Elec       q    Type
REMARK                         _______ _______ _______ _____ _____    ______ ____
ROOT
ATOM      1  C   LIG    1        0.837  -0.477   1.117  0.00  0.00    +0.180 C 
ATOM      2  C   LIG    1        2.083  -0.237   0.264  0.00  0.00    +0.150 C 
ATOM      3  C   LIG    1        2.164   1.217  -0.124  0.00  0.00    -0.090 A 
ATOM      4  C   LIG    1        3.368   1.713  -0.599  0.00  0.00    +0.040 A 
ATOM      5  C   LIG    1        3.478   3.039  -0.967  0.00  0.00    +0.050 A 
ATOM      6  C   LIG    1        2.383   3.876  -0.861  0.00  0.00    +0.040 A 
ATOM      7  C   LIG    1        1.184   3.383  -0.387  0.00  0.00    +0.050 A 
ATOM      8  C   LIG    1        1.071   2.052  -0.016  0.00  0.00    -0.140 A 
ATOM      9  C   LIG    1       -0.255   1.558   0.499  0.00  0.00    +0.340 C 
ATOM     10  N   LIG    1       -0.326   0.096   0.421  0.00  0.00    -0.490 N 
ATOM     11  H   LIG    1       -0.317  -0.192  -0.546  0.00  0.00    +0.440 HD
ATOM     12  H   LIG    1       -1.175  -0.226   0.861  0.00  0.00    +0.440 HD
ENDROOT
BRANCH   1  18
ATOM     13  C   LIG    1        0.968  -4.439   3.798  0.00  0.00    +0.150 C 
ATOM     14  C   LIG    1        2.038  -3.812   4.695  0.00  0.00    +0.010 C 
ATOM     15  C   LIG    1        2.002  -2.289   4.546  0.00  0.00    +0.030 C 
ATOM     16  C   LIG    1        2.309  -1.914   3.093  0.00  0.00    +0.270 C 
ATOM     17  N   LIG    1        1.375  -2.629   2.212  0.00  0.00    -0.580 N 
ATOM     18  C   LIG    1        0.633  -1.958   1.309  0.00  0.00    +0.510 C 
ATOM     19  O   LIG    1       -0.199  -2.546   0.651  0.00  0.00    -0.520 OA
ATOM     20  C   LIG    1        1.260  -4.088   2.340  0.00  0.00    +0.310 C 
BRANCH  13  22
ATOM     21  C   LIG    1        0.116  -6.333   4.994  0.00  0.00    +0.220 C 
ATOM     22  O   LIG    1        0.982  -5.858   3.961  0.00  0.00    -0.380 OA
ENDBRANCH  13  22
ENDBRANCH   1  18
TORSDOF 2
