REMARK  Name = ZINCrH000004qnbQ.0
REMARK                            x       y       z     vdW  Elec       q    Type
REMARK                         _______ _______ _______ _____ _____    ______ ____
ROOT
ATOM      1  C   LIG    1        4.908  -1.780  -0.056  0.00  0.00    +0.230 A 
ATOM      2  C   LIG    1        6.178  -2.389  -0.077  0.00  0.00    -0.260 A 
ATOM      3  C   LIG    1        7.507  -1.913  -0.081  0.00  0.00    +0.320 A 
ATOM      4  N   LIG    1        8.313  -2.938  -0.094  0.00  0.00    -0.230 NA
ATOM      5  N   LIG    1        7.569  -4.124  -0.094  0.00  0.00    -0.330 N 
ATOM      6  C   LIG    1        6.243  -3.796  -0.080  0.00  0.00    +0.360 A 
ATOM      7  N   LIG    1        5.107  -4.491  -0.073  0.00  0.00    -0.540 NA
ATOM      8  C   LIG    1        3.944  -3.877  -0.059  0.00  0.00    +0.570 A 
ATOM      9  N   LIG    1        3.832  -2.561  -0.050  0.00  0.00    -0.550 NA
ENDROOT
BRANCH   5  10
ATOM     10  C   LIG    1        8.093  -5.423  -0.107  0.00  0.00    +0.150 A 
ATOM     11  C   LIG    1        7.450  -6.439   0.588  0.00  0.00    +0.020 A 
ATOM     12  C   LIG    1        7.967  -7.720   0.568  0.00  0.00    +0.030 A 
ATOM     13  C   LIG    1        9.129  -7.988  -0.132  0.00  0.00    +0.010 A 
ATOM     14  C   LIG    1        9.775  -6.976  -0.819  0.00  0.00    +0.030 A 
ATOM     15  C   LIG    1        9.260  -5.695  -0.809  0.00  0.00    +0.020 A 
ENDBRANCH   5  10
BRANCH   1  16
ATOM     16  S   LIG    1        4.748  -0.025  -0.044  0.00  0.00    +0.040 S 
BRANCH  16  17
ATOM     17  C   LIG    1        2.945   0.127  -0.026  0.00  0.00    +0.100 C 
BRANCH  17  18
ATOM     18  C   LIG    1        2.564   1.585  -0.014  0.00  0.00    +0.450 C 
ATOM     19  O   LIG    1        3.427   2.438  -0.017  0.00  0.00    -0.460 OA
BRANCH  18  23
ATOM     20  C   LIG    1       -2.528   1.387   0.019  0.00  0.00    +0.120 C 
ATOM     21  C   LIG    1       -1.099   1.866   0.017  0.00  0.00    +0.010 A 
ATOM     22  C   LIG    1       -0.013   1.076   0.008  0.00  0.00    +0.000 A 
ATOM     23  C   LIG    1        1.151   1.972   0.002  0.00  0.00    -0.270 A 
ATOM     24  C   LIG    1        0.640   3.256   0.013  0.00  0.00    +0.120 A 
ATOM     25  C   LIG    1        1.446   4.529   0.012  0.00  0.00    +0.150 C 
ATOM     26  N   LIG    1       -0.703   3.172   0.026  0.00  0.00    -0.440 N 
ATOM     27  C   LIG    1       -1.611   4.321   0.041  0.00  0.00    +0.320 C 
ENDBRANCH  18  23
ENDBRANCH  17  18
ENDBRANCH  16  17
ENDBRANCH   1  16
TORSDOF 5
