REMARK  Name = ZINCrD000000BXiZ.0
REMARK                            x       y       z     vdW  Elec       q    Type
REMARK                         _______ _______ _______ _____ _____    ______ ____
ROOT
ATOM      1  O   LIG    1       -1.065  -0.274   2.165  0.00  0.00    -0.560 OA
ATOM      2  C   LIG    1       -1.232   0.928   2.093  0.00  0.00    +0.710 C 
ATOM      3  N   LIG    1       -0.627   1.636   1.118  0.00  0.00    -0.620 N 
ATOM      4  C   LIG    1        0.147   0.956   0.070  0.00  0.00    +0.310 C 
ATOM      5  C   LIG    1       -0.371   1.406  -1.300  0.00  0.00    +0.040 C 
ATOM      6  C   LIG    1       -0.330   2.934  -1.379  0.00  0.00    +0.170 C 
ATOM      7  C   LIG    1       -1.240   3.527  -0.301  0.00  0.00    +0.010 C 
ATOM      8  C   LIG    1       -0.731   3.101   1.080  0.00  0.00    +0.270 C 
ATOM      9  N   LIG    1       -2.022   1.554   2.988  0.00  0.00    -0.690 N 
ATOM     10  H   LIG    1       -2.107   2.520   2.968  0.00  0.00    +0.410 HD
ENDROOT
BRANCH   9  11
ATOM     11  C   LIG    1       -2.721   0.809   3.945  0.00  0.00    +0.180 A 
ATOM     12  C   LIG    1       -3.985   1.214   4.354  0.00  0.00    +0.010 A 
ATOM     13  C   LIG    1       -4.675   0.478   5.296  0.00  0.00    +0.050 A 
ATOM     14  C   LIG    1       -4.102  -0.664   5.840  0.00  0.00    +0.100 A 
ATOM     15  C   LIG    1       -2.837  -1.067   5.435  0.00  0.00    +0.070 A 
ATOM     16  C   LIG    1       -2.148  -0.333   4.490  0.00  0.00    +0.060 A 
BRANCH  14  17
ATOM     17  N   LIG    1       -4.802  -1.410   6.801  0.00  0.00    -0.240 N 
ATOM     18  C   LIG    1       -6.043  -1.127   7.283  0.00  0.00    +0.140 A 
ATOM     19  C   LIG    1       -6.326  -2.100   8.181  0.00  0.00    +0.160 A 
ATOM     20  N   LIG    1       -5.266  -2.916   8.205  0.00  0.00    -0.260 NA
ATOM     21  N   LIG    1       -4.385  -2.484   7.374  0.00  0.00    -0.080 NA
ENDBRANCH  14  17
ENDBRANCH   9  11
BRANCH   6  22
ATOM     22  O   LIG    1       -0.783   3.355  -2.668  0.00  0.00    -0.310 OA
BRANCH  22  23
ATOM     23  C   LIG    1       -0.362   4.572  -3.102  0.00  0.00    +0.130 A 
ATOM     24  C   LIG    1       -0.830   5.081  -4.304  0.00  0.00    -0.020 A 
ATOM     25  C   LIG    1       -0.405   6.321  -4.740  0.00  0.00    +0.050 A 
ATOM     26  C   LIG    1        0.495   7.050  -3.985  0.00  0.00    -0.040 A 
ATOM     27  C   LIG    1        0.967   6.543  -2.788  0.00  0.00    +0.040 A 
ATOM     28  C   LIG    1        0.541   5.306  -2.345  0.00  0.00    -0.080 A 
ENDBRANCH  22  23
ENDBRANCH   6  22
TORSDOF 4
