REMARK  Name = ZINCpk000000nzA6.0
REMARK                            x       y       z     vdW  Elec       q    Type
REMARK                         _______ _______ _______ _____ _____    ______ ____
ROOT
ATOM      1  N   LIG    1        2.606   1.415  -0.320  0.00  0.00    -0.530 N 
ATOM      2  C   LIG    1        3.104   1.301  -1.564  0.00  0.00    +0.710 A 
ATOM      3  N   LIG    1        4.221   0.610  -1.840  0.00  0.00    -0.560 N 
ATOM      4  C   LIG    1        4.915  -0.018  -0.866  0.00  0.00    +0.560 A 
ATOM      5  C   LIG    1        4.416   0.073   0.518  0.00  0.00    -0.190 A 
ATOM      6  C   LIG    1        5.075  -0.546   1.577  0.00  0.00    +0.140 A 
ATOM      7  C   LIG    1        4.566  -0.431   2.854  0.00  0.00    -0.010 A 
ATOM      8  C   LIG    1        3.409   0.296   3.086  0.00  0.00    +0.100 A 
ATOM      9  C   LIG    1        2.745   0.914   2.044  0.00  0.00    -0.040 A 
ATOM     10  O   LIG    1        5.926  -0.643  -1.124  0.00  0.00    -0.490 OA
ATOM     11  C   LIG    1        4.695   0.534  -3.224  0.00  0.00    +0.340 C 
ATOM     12  O   LIG    1        2.517   1.848  -2.478  0.00  0.00    -0.540 OA
ATOM     13  C   LIG    1        3.244   0.814   0.755  0.00  0.00    +0.210 A 
ENDROOT
BRANCH   1  14
ATOM     14  C   LIG    1        1.381   2.188  -0.097  0.00  0.00    +0.370 C 
BRANCH  14  16
ATOM     15  N   LIG    1       -1.058   1.776  -0.062  0.00  0.00    -0.610 N 
ATOM     16  C   LIG    1        0.185   1.280  -0.224  0.00  0.00    +0.500 C 
ATOM     17  O   LIG    1        0.341   0.104  -0.475  0.00  0.00    -0.500 OA
BRANCH  15  19
ATOM     18  C   LIG    1       -2.191   3.818  -0.789  0.00  0.00    +0.040 C 
ATOM     19  C   LIG    1       -1.245   3.197   0.241  0.00  0.00    +0.220 C 
ATOM     20  C   LIG    1       -1.847   3.344   1.640  0.00  0.00    +0.030 C 
ENDBRANCH  15  19
BRANCH  15  21
ATOM     21  C   LIG    1       -2.221   0.895  -0.191  0.00  0.00    +0.340 C 
BRANCH  21  22
ATOM     22  C   LIG    1       -2.577   0.733  -1.670  0.00  0.00    +0.430 C 
ATOM     23  F   LIG    1       -2.781   1.994  -2.241  0.00  0.00    -0.180 F 
ATOM     24  F   LIG    1       -3.746  -0.026  -1.788  0.00  0.00    -0.180 F 
ATOM     25  F   LIG    1       -1.530   0.084  -2.334  0.00  0.00    -0.170 F 
ENDBRANCH  21  22
ENDBRANCH  15  21
ENDBRANCH  14  16
ENDBRANCH   1  14
TORSDOF 5
