REMARK  Name = ZINCqH0000006YEc.0
REMARK                            x       y       z     vdW  Elec       q    Type
REMARK                         _______ _______ _______ _____ _____    ______ ____
ROOT
ATOM      1  C   LIG    1       -0.630  -2.120  -0.003  0.00  0.00    +0.040 A 
ATOM      2  C   LIG    1        0.727  -2.048  -0.015  0.00  0.00    +0.180 A 
ATOM      3  N   LIG    1        1.080  -0.756  -0.012  0.00  0.00    -0.480 NA
ATOM      4  C   LIG    1        0.002  -0.004   0.002  0.00  0.00    +0.190 A 
ATOM      5  N   LIG    1       -1.095  -0.815   0.014  0.00  0.00    -0.390 N 
ENDROOT
BRANCH   5   6
ATOM      6  C   LIG    1       -2.436  -0.406   0.035  0.00  0.00    +0.090 A 
ATOM      7  C   LIG    1       -3.118  -0.198  -1.156  0.00  0.00    +0.040 A 
ATOM      8  C   LIG    1       -4.439   0.205  -1.132  0.00  0.00    +0.010 A 
ATOM      9  C   LIG    1       -5.082   0.400   0.077  0.00  0.00    -0.060 A 
ATOM     10  C   LIG    1       -4.405   0.193   1.265  0.00  0.00    +0.020 A 
ATOM     11  C   LIG    1       -6.524   0.839   0.100  0.00  0.00    +0.100 C 
ATOM     12  C   LIG    1       -3.086  -0.215   1.247  0.00  0.00    -0.050 A 
ATOM     13  C   LIG    1       -2.350  -0.446   2.542  0.00  0.00    +0.100 C 
ENDBRANCH   5   6
BRANCH   1  17
ATOM     14  C   LIG    1       -2.985  -5.656   0.002  0.00  0.00    +0.130 A 
ATOM     15  C   LIG    1       -1.603  -5.745   0.092  0.00  0.00    -0.010 A 
ATOM     16  C   LIG    1       -0.835  -4.600   0.091  0.00  0.00    +0.080 A 
ATOM     17  C   LIG    1       -1.449  -3.350  -0.001  0.00  0.00    -0.050 A 
ATOM     18  C   LIG    1       -2.840  -3.265  -0.087  0.00  0.00    +0.050 A 
ATOM     19  C   LIG    1       -3.600  -4.415  -0.091  0.00  0.00    -0.070 A 
BRANCH  14  21
ATOM     20  C   LIG    1       -5.155  -6.624  -0.093  0.00  0.00    +0.250 C 
ATOM     21  O   LIG    1       -3.739  -6.788   0.003  0.00  0.00    -0.320 OA
ENDBRANCH  14  21
ENDBRANCH   1  17
BRANCH   4  22
ATOM     22  S   LIG    1       -0.022   1.758   0.012  0.00  0.00    +0.070 S 
BRANCH  22  23
ATOM     23  C   LIG    1        1.756   2.096  -0.004  0.00  0.00    +0.110 C 
BRANCH  23  24
ATOM     24  C   LIG    1        1.984   3.586   0.002  0.00  0.00    +0.540 C 
ATOM     25  O   LIG    1        1.037   4.344   0.015  0.00  0.00    -0.530 OA
ATOM     26  N   LIG    1        3.240   4.076  -0.007  0.00  0.00    -0.850 N 
ATOM     27  H   LIG    1        3.386   5.035  -0.003  0.00  0.00    +0.410 HD
ATOM     28  H   LIG    1        3.997   3.469  -0.018  0.00  0.00    +0.410 HD
ENDBRANCH  23  24
ENDBRANCH  22  23
ENDBRANCH   4  22
TORSDOF 6
