REMARK  Name = ZINCnE00000dPaRW.0
REMARK                            x       y       z     vdW  Elec       q    Type
REMARK                         _______ _______ _______ _____ _____    ______ ____
ROOT
ATOM      1  C   LIG    1        1.351  -0.312  -0.681  0.00  0.00    -0.060 C 
ATOM      2  C   LIG    1        0.002  -0.004   0.002  0.00  0.00    +0.040 C 
ATOM      3  C   LIG    1       -0.019   1.539   0.011  0.00  0.00    +0.070 C 
ATOM      4  C   LIG    1        1.437   1.955  -0.001  0.00  0.00    -0.080 A 
ATOM      5  C   LIG    1        2.031   3.178   0.313  0.00  0.00    -0.050 A 
ATOM      6  C   LIG    1        3.413   3.322   0.226  0.00  0.00    +0.000 A 
ATOM      7  C   LIG    1        4.190   2.254  -0.172  0.00  0.00    -0.010 A 
ATOM      8  C   LIG    1        3.598   1.044  -0.482  0.00  0.00    +0.020 A 
ATOM      9  C   LIG    1        2.223   0.892  -0.398  0.00  0.00    -0.050 A 
ENDROOT
BRANCH   5  10
ATOM     10  C   LIG    1        1.190   4.323   0.741  0.00  0.00    -0.040 A 
ATOM     11  C   LIG    1        0.076   4.690  -0.011  0.00  0.00    +0.040 A 
ATOM     12  C   LIG    1       -0.715   5.746   0.393  0.00  0.00    -0.020 A 
ATOM     13  C   LIG    1       -0.398   6.441   1.551  0.00  0.00    +0.170 A 
ATOM     14  N   LIG    1       -1.221   7.467   2.019  0.00  0.00    -0.790 N 
ATOM     15  H   LIG    1       -1.324   8.294   1.522  0.00  0.00    +0.400 HD
ATOM     16  C   LIG    1       -1.927   7.251   3.293  0.00  0.00    +0.250 C 
ATOM     17  C   LIG    1       -1.014   7.573   4.454  0.00  0.00    +0.180 C 
ATOM     18  O   LIG    1        0.128   6.726   4.522  0.00  0.00    -0.380 OA
ATOM     19  C   LIG    1        1.106   6.918   3.504  0.00  0.00    +0.270 C 
ATOM     20  C   LIG    1        0.730   6.093   2.288  0.00  0.00    -0.140 A 
ATOM     21  C   LIG    1        1.512   5.030   1.900  0.00  0.00    +0.040 A 
ENDBRANCH   5  10
BRANCH   1  23
ATOM     22  O   LIG    1        0.043  -0.395  -2.650  0.00  0.00    -0.690 OA
ATOM     23  C   LIG    1        1.159  -0.482  -2.166  0.00  0.00    +0.510 C 
ATOM     24  O   LIG    1        2.119  -0.705  -2.884  0.00  0.00    -0.690 OA
ENDBRANCH   1  23
TORSDOF 2
