REMARK  Name = ZINCtV00000L6l8U.0
REMARK                            x       y       z     vdW  Elec       q    Type
REMARK                         _______ _______ _______ _____ _____    ______ ____
ROOT
ATOM      1  C   LIG    1       -1.160   7.408  -0.455  0.00  0.00    +0.310 C 
ENDROOT
BRANCH   1   3
ATOM      2  O   LIG    1       -2.187   5.290  -0.622  0.00  0.00    -0.500 OA
ATOM      3  C   LIG    1       -1.176   5.904  -0.356  0.00  0.00    +0.520 C 
ATOM      4  N   LIG    1       -0.067   5.243   0.030  0.00  0.00    -0.690 N 
ATOM      5  H   LIG    1        0.719   5.737   0.313  0.00  0.00    +0.420 HD
BRANCH   4   6
ATOM      6  C   LIG    1       -0.049   3.843   0.022  0.00  0.00    +0.200 A 
ATOM      7  C   LIG    1        0.226   3.157  -1.155  0.00  0.00    -0.030 A 
ATOM      8  C   LIG    1        0.247   1.775  -1.157  0.00  0.00    +0.080 A 
ATOM      9  C   LIG    1       -0.014   1.076   0.006  0.00  0.00    +0.050 A 
ATOM     10  C   LIG    1       -0.287   1.756   1.179  0.00  0.00    +0.090 A 
ATOM     11 CL   LIG    1        0.547   4.034  -2.618  0.00  0.00    -0.040 Cl
ATOM     12  C   LIG    1       -0.305   3.137   1.190  0.00  0.00    -0.170 A 
BRANCH  12  13
ATOM     13  C   LIG    1       -0.604   3.877   2.468  0.00  0.00    +0.510 C 
ATOM     14  F   LIG    1       -1.744   4.668   2.294  0.00  0.00    -0.170 F 
ATOM     15  F   LIG    1        0.483   4.694   2.799  0.00  0.00    -0.170 F 
ATOM     16  F   LIG    1       -0.827   2.958   3.498  0.00  0.00    -0.170 F 
ENDBRANCH  12  13
ENDBRANCH   4   6
ENDBRANCH   1   3
BRANCH   1  17
ATOM     17  N   LIG    1       -2.475   7.883  -0.891  0.00  0.00    -0.740 N 
ATOM     18  H   LIG    1       -3.187   7.247  -1.065  0.00  0.00    +0.410 HD
BRANCH  17  19
ATOM     19  C   LIG    1       -2.705   9.251  -1.057  0.00  0.00    +0.220 A 
ATOM     20  C   LIG    1       -1.687  10.162  -0.808  0.00  0.00    -0.080 A 
ATOM     21  C   LIG    1       -1.917  11.514  -0.974  0.00  0.00    +0.050 A 
ATOM     22  C   LIG    1       -3.159  11.960  -1.385  0.00  0.00    -0.050 A 
ATOM     23  C   LIG    1       -4.175  11.055  -1.633  0.00  0.00    +0.050 A 
ATOM     24  C   LIG    1       -3.950   9.702  -1.475  0.00  0.00    -0.150 A 
BRANCH  24  25
ATOM     25  C   LIG    1       -5.056   8.716  -1.752  0.00  0.00    +0.110 C 
BRANCH  25  26
ATOM     26  C   LIG    1       -5.769   8.387  -0.465  0.00  0.00    -0.080 A 
ATOM     27  C   LIG    1       -5.339   7.327   0.311  0.00  0.00    +0.010 A 
ATOM     28  C   LIG    1       -5.990   7.028   1.494  0.00  0.00    +0.000 A 
ATOM     29  C   LIG    1       -7.077   7.783   1.895  0.00  0.00    +0.000 A 
ATOM     30  C   LIG    1       -7.510   8.840   1.115  0.00  0.00    +0.000 A 
ATOM     31  C   LIG    1       -6.856   9.142  -0.065  0.00  0.00    +0.010 A 
ENDBRANCH  25  26
ENDBRANCH  24  25
ENDBRANCH  17  19
ENDBRANCH   1  17
TORSDOF 7
