REMARK  Name = ZINCwl0000000zZN.0
REMARK                            x       y       z     vdW  Elec       q    Type
REMARK                         _______ _______ _______ _____ _____    ______ ____
ROOT
ATOM      1  C   LIG    1       -1.436   1.544  -0.468  0.00  0.00    +0.190 C 
ATOM      2  C   LIG    1       -1.396   1.783   1.019  0.00  0.00    +0.410 A 
ATOM      3  N   LIG    1       -1.994   0.933   1.797  0.00  0.00    -0.520 NA
ATOM      4  C   LIG    1       -2.000   1.083   3.144  0.00  0.00    +0.140 A 
ATOM      5  C   LIG    1       -2.647   0.165   3.984  0.00  0.00    +0.140 A 
ATOM      6  C   LIG    1       -2.625   0.361   5.354  0.00  0.00    +0.080 A 
ATOM      7  C   LIG    1       -1.972   1.454   5.903  0.00  0.00    +0.030 A 
ATOM      8  C   LIG    1       -1.330   2.368   5.096  0.00  0.00    +0.110 A 
ATOM      9  C   LIG    1       -1.337   2.192   3.713  0.00  0.00    -0.180 A 
ATOM     10  C   LIG    1       -0.669   3.137   2.806  0.00  0.00    +0.550 A 
ATOM     11  O   LIG    1       -0.080   4.114   3.231  0.00  0.00    -0.500 OA
ATOM     12  N   LIG    1       -0.730   2.876   1.479  0.00  0.00    -0.530 N 
ENDROOT
BRANCH  12  13
ATOM     13  C   LIG    1       -0.077   3.781   0.530  0.00  0.00    +0.250 C 
ATOM     14  C   LIG    1        1.416   3.447   0.448  0.00  0.00    +0.070 C 
ATOM     15  C   LIG    1        2.053   3.723   1.814  0.00  0.00    +0.080 C 
ATOM     16  C   LIG    1        1.773   5.148   2.212  0.00  0.00    +0.550 C 
ATOM     17  N   LIG    1        0.668   5.784   1.794  0.00  0.00    -0.650 N 
ATOM     18  H   LIG    1        0.521   6.699   2.079  0.00  0.00    +0.420 HD
ATOM     19  O   LIG    1        2.562   5.732   2.924  0.00  0.00    -0.500 OA
ATOM     20  C   LIG    1       -0.241   5.203   0.997  0.00  0.00    +0.530 C 
ATOM     21  O   LIG    1       -1.214   5.835   0.646  0.00  0.00    -0.490 OA
ENDBRANCH  12  13
BRANCH   5  22
ATOM     22  N   LIG    1       -3.308  -0.940   3.442  0.00  0.00    -0.640 N 
ATOM     23  H   LIG    1       -2.965  -1.366   2.640  0.00  0.00    +0.420 HD
ATOM     24  C   LIG    1       -4.423  -1.415   4.032  0.00  0.00    +0.550 C 
ATOM     25  O   LIG    1       -4.805  -0.937   5.082  0.00  0.00    -0.500 OA
BRANCH  24  26
ATOM     26  C   LIG    1       -5.180  -2.517   3.402  0.00  0.00    -0.060 A 
ATOM     27  C   LIG    1       -4.747  -3.064   2.193  0.00  0.00    +0.060 A 
ATOM     28  C   LIG    1       -5.456  -4.095   1.612  0.00  0.00    +0.100 A 
ATOM     29  C   LIG    1       -6.599  -4.582   2.219  0.00  0.00    -0.180 A 
ATOM     30  C   LIG    1       -7.039  -4.041   3.416  0.00  0.00    +0.120 A 
ATOM     31  F   LIG    1       -8.157  -4.521   4.003  0.00  0.00    -0.130 F 
ATOM     32  C   LIG    1       -6.335  -3.011   4.011  0.00  0.00    +0.070 A 
BRANCH  29  33
ATOM     33  C   LIG    1       -7.371  -5.705   1.574  0.00  0.00    +0.350 C 
BRANCH  33  34
ATOM     34  N   LIG    1       -8.531  -5.155   0.860  0.00  0.00    -0.640 N 
ATOM     35  H   LIG    1       -9.047  -5.907   0.428  0.00  0.00    +0.440 HD
ATOM     36  H   LIG    1       -8.214  -4.513   0.149  0.00  0.00    +0.440 HD
ATOM     37  H   LIG    1       -9.127  -4.667   1.512  0.00  0.00    +0.440 HD
ENDBRANCH  33  34
ENDBRANCH  29  33
ENDBRANCH  24  26
ENDBRANCH   5  22
TORSDOF 5
