REMARK  Name = ZINCrD00000hQ7lE.0
REMARK                            x       y       z     vdW  Elec       q    Type
REMARK                         _______ _______ _______ _____ _____    ______ ____
ROOT
ATOM      1  N   LIG    1        4.831   2.490  -3.941  0.00  0.00    -0.710 N 
ATOM      2  H   LIG    1        5.095   3.294  -3.467  0.00  0.00    +0.410 HD
ENDROOT
BRANCH   1   3
ATOM      3  C   LIG    1        4.051   1.537  -3.307  0.00  0.00    +0.450 A 
ATOM      4  C   LIG    1        3.664   0.375  -3.978  0.00  0.00    -0.160 A 
ATOM      5  C   LIG    1        2.886  -0.544  -3.302  0.00  0.00    +0.350 A 
ATOM      6  N   LIG    1        2.538  -0.299  -2.047  0.00  0.00    -0.550 NA
ATOM      7  C   LIG    1        2.915   0.810  -1.442  0.00  0.00    +0.370 A 
ATOM      8  N   LIG    1        3.658   1.714  -2.048  0.00  0.00    -0.570 NA
BRANCH   7   9
ATOM      9  C   LIG    1        2.490   1.048  -0.016  0.00  0.00    +0.190 C 
BRANCH   9  10
ATOM     10  C   LIG    1        1.175   1.783   0.000  0.00  0.00    -0.080 A 
ATOM     11  C   LIG    1       -0.013   1.076   0.008  0.00  0.00    +0.030 A 
ATOM     12  C   LIG    1       -1.219   1.751   0.017  0.00  0.00    +0.000 A 
ATOM     13  C   LIG    1       -1.238   3.133   0.030  0.00  0.00    +0.000 A 
ATOM     14  C   LIG    1       -0.050   3.840   0.022  0.00  0.00    +0.000 A 
ATOM     15  C   LIG    1        1.156   3.165   0.008  0.00  0.00    +0.020 A 
ENDBRANCH   9  10
ENDBRANCH   7   9
ENDBRANCH   1   3
BRANCH   1  16
ATOM     16  C   LIG    1        5.258   2.282  -5.327  0.00  0.00    +0.390 C 
BRANCH  16  21
ATOM     17  C   LIG    1        5.431   6.133  -8.524  0.00  0.00    +0.200 C 
ATOM     18  C   LIG    1        5.611   5.251  -7.315  0.00  0.00    +0.170 A 
ATOM     19  N   LIG    1        6.245   5.561  -6.224  0.00  0.00    -0.370 NA
ATOM     20  O   LIG    1        6.210   4.635  -5.441  0.00  0.00    +0.090 OA
ATOM     21  C   LIG    1        5.529   3.616  -5.974  0.00  0.00    +0.170 A 
ATOM     22  N   LIG    1        5.147   3.996  -7.169  0.00  0.00    -0.460 NA
ENDBRANCH  16  21
BRANCH  16  23
ATOM     23  C   LIG    1        6.533   1.437  -5.347  0.00  0.00    -0.010 C 
ATOM     24  C   LIG    1        7.642   2.163  -4.580  0.00  0.00    -0.010 C 
ATOM     25  C   LIG    1        8.935   1.349  -4.674  0.00  0.00    +0.210 C 
ATOM     26  O   LIG    1        9.280   1.160  -6.048  0.00  0.00    -0.380 OA
ATOM     27  C   LIG    1        8.301   0.444  -6.802  0.00  0.00    +0.220 C 
ATOM     28  C   LIG    1        6.983   1.223  -6.795  0.00  0.00    +0.000 C 
ENDBRANCH  16  23
ENDBRANCH   1  16
TORSDOF 6
