REMARK  Name = ZINCnE00000rhn0I.0
REMARK                            x       y       z     vdW  Elec       q    Type
REMARK                         _______ _______ _______ _____ _____    ______ ____
ROOT
ATOM      1  C   LIG    1        0.063   1.053  -0.086  0.00  0.00    +0.200 C 
ATOM      2  C   LIG    1        1.512   1.549  -0.035  0.00  0.00    +0.020 C 
ATOM      3  C   LIG    1        2.132   1.162   1.310  0.00  0.00    +0.000 C 
ATOM      4  C   LIG    1        1.352   1.832   2.444  0.00  0.00    +0.010 C 
ATOM      5  C   LIG    1       -0.098   1.340   2.421  0.00  0.00    +0.260 C 
ATOM      6  N   LIG    1       -0.657   1.577   1.083  0.00  0.00    -0.610 N 
ATOM      7  C   LIG    1       -1.809   2.260   0.931  0.00  0.00    +0.500 C 
ATOM      8  O   LIG    1       -2.312   2.363  -0.167  0.00  0.00    -0.500 OA
ENDROOT
BRANCH   1   9
ATOM      9  C   LIG    1       -0.605   1.552  -1.369  0.00  0.00    +0.080 C 
BRANCH   9  10
ATOM     10  C   LIG    1        0.174   1.040  -2.582  0.00  0.00    -0.090 C 
BRANCH  10  12
ATOM     11  O   LIG    1       -1.365   2.385  -3.772  0.00  0.00    -0.690 OA
ATOM     12  C   LIG    1       -0.412   1.627  -3.840  0.00  0.00    +0.490 C 
ATOM     13  O   LIG    1        0.066   1.345  -4.925  0.00  0.00    -0.710 OA
ENDBRANCH  10  12
ENDBRANCH   9  10
ENDBRANCH   1   9
BRANCH   7  14
ATOM     14  C   LIG    1       -2.470   2.898   2.126  0.00  0.00    +0.080 C 
BRANCH  14  15
ATOM     15  C   LIG    1       -3.732   3.596   1.689  0.00  0.00    +0.020 C 
ATOM     16  C   LIG    1       -4.887   3.301   2.268  0.00  0.00    -0.010 C 
BRANCH  16  17
ATOM     17  C   LIG    1       -6.125   3.986   1.840  0.00  0.00    -0.060 A 
ATOM     18  C   LIG    1       -6.079   4.947   0.829  0.00  0.00    +0.060 A 
ATOM     19  C   LIG    1       -7.238   5.580   0.430  0.00  0.00    -0.010 A 
ATOM     20  C   LIG    1       -8.444   5.270   1.037  0.00  0.00    +0.090 A 
ATOM     21  C   LIG    1       -8.494   4.319   2.045  0.00  0.00    -0.020 A 
ATOM     22  F   LIG    1       -9.576   5.896   0.645  0.00  0.00    -0.140 F 
ATOM     23  C   LIG    1       -7.342   3.677   2.448  0.00  0.00    +0.040 A 
ENDBRANCH  16  17
ENDBRANCH  14  15
ENDBRANCH   7  14
TORSDOF 6
