REMARK  Name = ZINCrD00000hQ7oz.1
REMARK                            x       y       z     vdW  Elec       q    Type
REMARK                         _______ _______ _______ _____ _____    ______ ____
ROOT
ATOM      1  C   LIG    1       -4.419   8.120  -1.441  0.00  0.00    +0.230 C 
ENDROOT
BRANCH   1   2
ATOM      2  O   LIG    1       -3.364   8.757  -2.164  0.00  0.00    -0.540 OA
ATOM      3  H   LIG    1       -2.708   9.191  -1.602  0.00  0.00    +0.370 HD
ENDBRANCH   1   2
BRANCH   1   4
ATOM      4  C   LIG    1       -5.163   9.161  -0.602  0.00  0.00    +0.160 C 
BRANCH   4   5
ATOM      5  N   LIG    1       -5.737  10.184  -1.487  0.00  0.00    -0.530 NA
ATOM      6  C   LIG    1       -6.043  11.413  -0.742  0.00  0.00    +0.200 C 
ATOM      7  C   LIG    1       -6.564  12.477  -1.711  0.00  0.00    +0.210 C 
ATOM      8  N   LIG    1       -7.760  11.969  -2.397  0.00  0.00    -0.490 N 
ATOM      9  C   LIG    1       -7.453  10.739  -3.142  0.00  0.00    +0.200 C 
ATOM     10  C   LIG    1       -6.933   9.675  -2.173  0.00  0.00    +0.190 C 
BRANCH   8  11
ATOM     11  C   LIG    1       -8.305  12.941  -3.239  0.00  0.00    +0.130 A 
ATOM     12  C   LIG    1       -8.666  14.181  -2.727  0.00  0.00    -0.010 A 
ATOM     13  C   LIG    1       -9.205  15.141  -3.561  0.00  0.00    +0.050 A 
ATOM     14  C   LIG    1       -9.387  14.868  -4.904  0.00  0.00    -0.010 A 
ATOM     15  C   LIG    1       -9.030  13.634  -5.418  0.00  0.00    -0.010 A 
ATOM     16 CL   LIG    1       -9.260  13.296  -7.105  0.00  0.00    -0.070 Cl
ATOM     17  C   LIG    1       -8.484  12.671  -4.590  0.00  0.00    -0.020 A 
ENDBRANCH   8  11
ENDBRANCH   4   5
ENDBRANCH   1   4
BRANCH   1  18
ATOM     18  C   LIG    1       -3.832   7.048  -0.521  0.00  0.00    +0.170 C 
BRANCH  18  19
ATOM     19  O   LIG    1       -3.238   6.015  -1.310  0.00  0.00    -0.300 OA
BRANCH  19  20
ATOM     20  C   LIG    1       -2.667   4.979  -0.642  0.00  0.00    +0.130 A 
ATOM     21  C   LIG    1       -2.678   4.956   0.745  0.00  0.00    -0.080 A 
ATOM     22  C   LIG    1       -2.096   3.901   1.419  0.00  0.00    +0.050 A 
ATOM     23  C   LIG    1       -1.502   2.865   0.717  0.00  0.00    -0.140 A 
ATOM     24  C   LIG    1       -0.804   1.615   1.218  0.00  0.00    +0.070 C 
ATOM     25  C   LIG    1        0.008   1.099   0.011  0.00  0.00    +0.030 C 
ATOM     26  C   LIG    1       -0.788   1.652  -1.190  0.00  0.00    +0.080 C 
ATOM     27  C   LIG    1       -1.490   2.886  -0.666  0.00  0.00    -0.060 A 
ATOM     28  C   LIG    1       -2.073   3.942  -1.345  0.00  0.00    -0.010 A 
ENDBRANCH  19  20
ENDBRANCH  18  19
ENDBRANCH   1  18
TORSDOF 7
