REMARK  Name = ZINCvU00000009uB.0
REMARK                            x       y       z     vdW  Elec       q    Type
REMARK                         _______ _______ _______ _____ _____    ______ ____
ROOT
ATOM      1  N   LIG    1       -4.510   2.140  -1.811  0.00  0.00    -0.680 N 
ATOM      2  H   LIG    1       -5.444   2.192  -1.554  0.00  0.00    +0.410 HD
ATOM      3  C   LIG    1       -4.174   1.760  -3.059  0.00  0.00    +0.510 C 
ATOM      4  O   LIG    1       -3.007   1.615  -3.356  0.00  0.00    -0.520 OA
ENDROOT
BRANCH   1   7
ATOM      5  C   LIG    1       -1.315   2.091   0.027  0.00  0.00    -0.060 A 
ATOM      6  C   LIG    1       -2.307   1.770  -0.895  0.00  0.00    +0.080 A 
ATOM      7  C   LIG    1       -3.510   2.461  -0.883  0.00  0.00    +0.110 A 
ATOM      8  C   LIG    1       -3.724   3.471   0.046  0.00  0.00    +0.030 A 
ATOM      9  C   LIG    1       -2.741   3.792   0.963  0.00  0.00    -0.060 A 
ATOM     10  C   LIG    1       -1.539   3.105   0.964  0.00  0.00    +0.130 A 
BRANCH   5  14
ATOM     11  C   LIG    1        2.379  -0.017  -0.006  0.00  0.00    +0.130 A 
ATOM     12  C   LIG    1        1.181  -0.719  -0.001  0.00  0.00    -0.020 A 
ATOM     13  C   LIG    1       -0.018  -0.038   0.011  0.00  0.00    +0.070 A 
ATOM     14  C   LIG    1       -0.027   1.356   0.020  0.00  0.00    -0.070 A 
ATOM     15  C   LIG    1        1.178   2.058   0.015  0.00  0.00    +0.080 A 
ATOM     16  C   LIG    1        2.374   1.371   0.003  0.00  0.00    -0.080 A 
BRANCH  11  18
ATOM     17  C   LIG    1        4.754   0.094  -0.022  0.00  0.00    +0.250 C 
ATOM     18  O   LIG    1        3.559  -0.691  -0.018  0.00  0.00    -0.320 OA
ENDBRANCH  11  18
ENDBRANCH   5  14
BRANCH  10  19
ATOM     19  O   LIG    1       -0.576   3.418   1.870  0.00  0.00    -0.310 OA
ATOM     20  C   LIG    1       -0.874   4.465   2.797  0.00  0.00    +0.240 C 
ENDBRANCH  10  19
ENDBRANCH   1   7
BRANCH   3  21
ATOM     21  C   LIG    1       -5.249   1.516  -4.087  0.00  0.00    +0.060 C 
BRANCH  21  22
ATOM     22  C   LIG    1       -4.604   1.098  -5.410  0.00  0.00    +0.040 C 
BRANCH  22  23
ATOM     23  C   LIG    1       -5.694   0.850  -6.454  0.00  0.00    +0.100 C 
BRANCH  23  24
ATOM     24  C   LIG    1       -5.059   0.439  -7.757  0.00  0.00    -0.170 A 
ATOM     25  C   LIG    1       -4.755   1.245  -8.786  0.00  0.00    +0.220 A 
ATOM     26  N   LIG    1       -4.190   0.517  -9.798  0.00  0.00    -0.600 N 
ATOM     27  H   LIG    1       -3.887   0.881 -10.645  0.00  0.00    +0.420 HD
ATOM     28  C   LIG    1       -4.114  -0.809  -9.435  0.00  0.00    +0.090 A 
ATOM     29  C   LIG    1       -3.638  -1.950 -10.071  0.00  0.00    -0.010 A 
ATOM     30  C   LIG    1       -3.702  -3.168  -9.430  0.00  0.00    +0.020 A 
ATOM     31  C   LIG    1       -4.237  -3.269  -8.153  0.00  0.00    -0.030 A 
ATOM     32  C   LIG    1       -4.710  -2.160  -7.509  0.00  0.00    +0.050 A 
ATOM     33  C   LIG    1       -4.650  -0.915  -8.138  0.00  0.00    -0.100 A 
ENDBRANCH  23  24
ENDBRANCH  22  23
ENDBRANCH  21  22
ENDBRANCH   3  21
TORSDOF 8
