REMARK  Name = ZINCkj000005jThs.0
REMARK                            x       y       z     vdW  Elec       q    Type
REMARK                         _______ _______ _______ _____ _____    ______ ____
ROOT
ATOM      1  C   LIG    1       -0.013   1.086   0.008  0.00  0.00    +0.100 C 
ATOM      2  C   LIG    1       -0.729   1.579   1.267  0.00  0.00    +0.160 C 
ATOM      3  C   LIG    1        0.012   1.072   2.508  0.00  0.00    +0.330 C 
ATOM      4  N   LIG    1       -0.615   1.664   3.700  0.00  0.00    -0.640 N 
ATOM      5  C   LIG    1       -0.823   3.120   3.723  0.00  0.00    +0.320 C 
ATOM      6  C   LIG    1       -1.525   3.531   2.424  0.00  0.00    +0.150 C 
ATOM      7  C   LIG    1       -1.632   5.056   2.362  0.00  0.00    +0.110 C 
ATOM      8  C   LIG    1       -0.989   0.894   4.741  0.00  0.00    +0.520 C 
ATOM      9  O   LIG    1       -0.809  -0.305   4.704  0.00  0.00    -0.480 OA
ATOM     10  N   LIG    1       -0.748   3.047   1.276  0.00  0.00    -0.500 N 
ATOM     11  H   LIG    1       -1.169   3.382   0.422  0.00  0.00    +0.430 HD
ATOM     12  H   LIG    1        0.197   3.394   1.340  0.00  0.00    +0.430 HD
ENDROOT
BRANCH   8  13
ATOM     13  C   LIG    1       -1.629   1.523   5.952  0.00  0.00    +0.210 C 
BRANCH  13  14
ATOM     14  N   LIG    1       -1.941   0.480   6.938  0.00  0.00    -0.520 NA
ATOM     15  C   LIG    1       -0.712  -0.127   7.469  0.00  0.00    +0.190 C 
BRANCH  14  16
ATOM     16  C   LIG    1       -2.775   1.014   8.023  0.00  0.00    +0.240 C 
BRANCH  16  17
ATOM     17  C   LIG    1       -3.276  -0.122   8.877  0.00  0.00    -0.090 A 
ATOM     18  C   LIG    1       -4.477  -0.736   8.575  0.00  0.00    +0.020 A 
ATOM     19  C   LIG    1       -4.934  -1.782   9.356  0.00  0.00    +0.000 A 
ATOM     20  C   LIG    1       -4.196  -2.206  10.444  0.00  0.00    +0.010 A 
ATOM     21  C   LIG    1       -2.997  -1.588  10.749  0.00  0.00    +0.000 A 
ATOM     22  C   LIG    1       -2.537  -0.547   9.966  0.00  0.00    +0.010 A 
ENDBRANCH  16  17
ENDBRANCH  14  16
ENDBRANCH  13  14
ENDBRANCH   8  13
TORSDOF 4
