REMARK  Name = ZINCnE000001DOND.0
REMARK                            x       y       z     vdW  Elec       q    Type
REMARK                         _______ _______ _______ _____ _____    ______ ____
ROOT
ATOM      1  C   LIG    1       -6.190  -0.578   4.219  0.00  0.00    -0.080 A 
ATOM      2  N   LIG    1       -6.789  -0.979   3.143  0.00  0.00    -0.250 NA
ATOM      3  N   LIG    1       -8.041  -1.540   3.254  0.00  0.00    -0.510 NA
ATOM      4  C   LIG    1       -8.554  -1.628   4.515  0.00  0.00    +0.340 A 
ATOM      5  N   LIG    1       -9.715  -2.119   4.877  0.00  0.00    -0.630 NA
ATOM      6  S   LIG    1       -7.296  -0.936   5.557  0.00  0.00    -0.100 S 
ENDROOT
BRANCH   1   7
ATOM      7  S   LIG    1       -4.596   0.165   4.331  0.00  0.00    +0.030 S 
BRANCH   7   8
ATOM      8  C   LIG    1       -4.047   0.215   2.603  0.00  0.00    +0.080 C 
BRANCH   8  11
ATOM      9  N   LIG    1       -2.062   0.977   1.338  0.00  0.00    -0.730 N 
ATOM     10  H   LIG    1       -2.504   0.679   0.527  0.00  0.00    +0.400 HD
ATOM     11  C   LIG    1       -2.675   0.835   2.530  0.00  0.00    +0.540 C 
ATOM     12  O   LIG    1       -2.123   1.207   3.544  0.00  0.00    -0.520 OA
BRANCH   9  13
ATOM     13  C   LIG    1       -0.729   1.579   1.267  0.00  0.00    +0.240 C 
ATOM     14  C   LIG    1       -0.860   3.103   1.215  0.00  0.00    +0.020 C 
BRANCH  13  16
ATOM     15  C   LIG    1        1.423   1.615  -0.003  0.00  0.00    +0.030 C 
ATOM     16  C   LIG    1       -0.013   1.086   0.008  0.00  0.00    -0.020 C 
ATOM     17  C   LIG    1       -0.753   1.593  -1.232  0.00  0.00    +0.020 C 
ENDBRANCH  13  16
ENDBRANCH   9  13
ENDBRANCH   8  11
ENDBRANCH   7   8
ENDBRANCH   1   7
BRANCH   5  18
ATOM     18  C   LIG    1      -10.630  -2.656   3.867  0.00  0.00    +0.230 C 
BRANCH  18  19
ATOM     19  C   LIG    1      -10.807  -4.136   4.086  0.00  0.00    -0.050 A 
ATOM     20  C   LIG    1       -9.964  -5.034   3.458  0.00  0.00    +0.010 A 
ATOM     21  C   LIG    1      -10.124  -6.392   3.664  0.00  0.00    -0.010 A 
ATOM     22  C   LIG    1      -11.133  -6.852   4.489  0.00  0.00    -0.030 A 
ATOM     23  C   LIG    1      -11.979  -5.955   5.112  0.00  0.00    -0.020 A 
ATOM     24  C   LIG    1      -11.817  -4.597   4.911  0.00  0.00    +0.010 A 
ENDBRANCH  18  19
ENDBRANCH   5  18
TORSDOF 7
