REMARK  Name = ZINCrH000004jY2k.0
REMARK                            x       y       z     vdW  Elec       q    Type
REMARK                         _______ _______ _______ _____ _____    ______ ____
ROOT
ATOM      1  C   LIG    1       -2.090   2.458   1.084  0.00  0.00    +0.290 C 
ATOM      2  N   LIG    1       -0.685   2.051   1.173  0.00  0.00    -0.610 N 
ATOM      3  C   LIG    1       -0.019   2.179   2.337  0.00  0.00    +0.590 C 
ATOM      4  O   LIG    1        1.147   1.840   2.412  0.00  0.00    -0.510 OA
ENDROOT
BRANCH   3   5
ATOM      5  C   LIG    1       -0.703   2.728   3.520  0.00  0.00    -0.040 A 
ATOM      6  C   LIG    1       -0.119   3.086   4.720  0.00  0.00    +0.040 A 
ATOM      7  C   LIG    1       -1.177   3.553   5.522  0.00  0.00    +0.070 A 
ATOM      8  N   LIG    1       -2.284   3.454   4.817  0.00  0.00    -0.250 NA
ATOM      9  N   LIG    1       -2.040   2.977   3.649  0.00  0.00    -0.380 N 
ATOM     10  H   LIG    1       -2.706   2.819   2.962  0.00  0.00    +0.450 HD
BRANCH   7  11
ATOM     11  C   LIG    1       -1.066   4.060   6.913  0.00  0.00    +0.000 A 
ATOM     12  C   LIG    1       -2.203   4.488   7.594  0.00  0.00    +0.050 A 
ATOM     13  C   LIG    1       -2.094   4.959   8.887  0.00  0.00    +0.030 A 
ATOM     14  C   LIG    1       -0.859   5.006   9.507  0.00  0.00    +0.030 A 
ATOM     15  C   LIG    1        0.275   4.582   8.835  0.00  0.00    -0.030 A 
ATOM     16 CL   LIG    1        1.821   4.644   9.621  0.00  0.00    -0.060 Cl
ATOM     17  C   LIG    1        0.176   4.104   7.543  0.00  0.00    +0.050 A 
ENDBRANCH   7  11
ENDBRANCH   3   5
BRANCH   2  18
ATOM     18  C   LIG    1       -0.005   1.506  -0.004  0.00  0.00    +0.350 C 
BRANCH  18  19
ATOM     19  C   LIG    1       -0.174   0.009  -0.035  0.00  0.00    -0.110 A 
ATOM     20  C   LIG    1        0.756  -0.803   0.587  0.00  0.00    +0.050 A 
ATOM     21  C   LIG    1        0.601  -2.177   0.565  0.00  0.00    +0.020 A 
ATOM     22  C   LIG    1       -0.482  -2.744  -0.090  0.00  0.00    +0.060 A 
ATOM     23  O   LIG    1       -0.615  -4.098  -0.111  0.00  0.00    -0.310 OA
ATOM     24  C   LIG    1       -1.907  -4.612  -0.453  0.00  0.00    +0.220 C 
ATOM     25  C   LIG    1       -2.413  -3.855  -1.689  0.00  0.00    +0.220 C 
ATOM     26  O   LIG    1       -2.488  -2.462  -1.362  0.00  0.00    -0.310 OA
ATOM     27  C   LIG    1       -1.415  -1.927  -0.718  0.00  0.00    +0.050 A 
ATOM     28  C   LIG    1       -1.257  -0.550  -0.688  0.00  0.00    +0.030 A 
ENDBRANCH  18  19
ENDBRANCH   2  18
TORSDOF 4
