REMARK  Name = ZINCrH000004jY2k.1
REMARK                            x       y       z     vdW  Elec       q    Type
REMARK                         _______ _______ _______ _____ _____    ______ ____
ROOT
ATOM      1  C   LIG    1        0.241   4.215   0.126  0.00  0.00    +0.290 C 
ATOM      2  N   LIG    1       -1.091   3.604   0.129  0.00  0.00    -0.600 N 
ATOM      3  C   LIG    1       -1.237   2.304  -0.197  0.00  0.00    +0.600 C 
ATOM      4  O   LIG    1       -2.348   1.814  -0.258  0.00  0.00    -0.530 OA
ENDROOT
BRANCH   3   5
ATOM      5  C   LIG    1       -0.047   1.476  -0.482  0.00  0.00    -0.010 A 
ATOM      6  N   LIG    1        1.197   1.902  -0.578  0.00  0.00    -0.240 NA
ATOM      7  N   LIG    1        1.987   0.924  -0.839  0.00  0.00    -0.380 N 
ATOM      8  H   LIG    1        2.947   0.999  -0.953  0.00  0.00    +0.450 HD
ATOM      9  C   LIG    1        1.277  -0.237  -0.932  0.00  0.00    +0.060 A 
ATOM     10  C   LIG    1       -0.033   0.082  -0.708  0.00  0.00    +0.020 A 
BRANCH   9  11
ATOM     11  C   LIG    1        1.820  -1.583  -1.221  0.00  0.00    -0.010 A 
ATOM     12  C   LIG    1        0.967  -2.684  -1.280  0.00  0.00    +0.050 A 
ATOM     13  C   LIG    1        1.478  -3.936  -1.556  0.00  0.00    +0.040 A 
ATOM     14  C   LIG    1        2.835  -4.103  -1.762  0.00  0.00    +0.040 A 
ATOM     15  C   LIG    1        3.689  -3.014  -1.698  0.00  0.00    -0.030 A 
ATOM     16 CL   LIG    1        5.392  -3.232  -1.958  0.00  0.00    -0.060 Cl
ATOM     17  C   LIG    1        3.189  -1.756  -1.429  0.00  0.00    +0.020 A 
ENDBRANCH   9  11
ENDBRANCH   3   5
BRANCH   2  18
ATOM     18  C   LIG    1       -2.263   4.406   0.486  0.00  0.00    +0.350 C 
BRANCH  18  19
ATOM     19  C   LIG    1       -2.497   4.319   1.973  0.00  0.00    -0.110 A 
ATOM     20  C   LIG    1       -3.311   3.328   2.487  0.00  0.00    +0.050 A 
ATOM     21  C   LIG    1       -3.524   3.243   3.850  0.00  0.00    +0.020 A 
ATOM     22  C   LIG    1       -2.930   4.159   4.705  0.00  0.00    +0.060 A 
ATOM     23  O   LIG    1       -3.156   4.069   6.043  0.00  0.00    -0.310 OA
ATOM     24  C   LIG    1       -2.248   4.771   6.899  0.00  0.00    +0.220 C 
ATOM     25  C   LIG    1       -2.049   6.183   6.332  0.00  0.00    +0.220 C 
ATOM     26  O   LIG    1       -1.516   6.065   5.008  0.00  0.00    -0.310 OA
ATOM     27  C   LIG    1       -2.114   5.158   4.187  0.00  0.00    +0.050 A 
ATOM     28  C   LIG    1       -1.900   5.235   2.819  0.00  0.00    +0.030 A 
ENDBRANCH  18  19
ENDBRANCH   2  18
TORSDOF 4
