REMARK  Name = ZINCrg00000y19Gt.0
REMARK                            x       y       z     vdW  Elec       q    Type
REMARK                         _______ _______ _______ _____ _____    ______ ____
ROOT
ATOM      1  C   LIG    1        1.696   8.068   2.365  0.00  0.00    +0.430 A 
ATOM      2  C   LIG    1        1.837   6.937   1.543  0.00  0.00    -0.060 A 
ATOM      3  N   LIG    1        1.990   6.739   0.212  0.00  0.00    -0.460 NA
ATOM      4  C   LIG    1        2.076   5.463  -0.030  0.00  0.00    +0.490 A 
ATOM      5  N   LIG    1        1.982   4.762   1.135  0.00  0.00    -0.470 N 
ATOM      6  C   LIG    1        1.825   5.670   2.151  0.00  0.00    +0.290 A 
ATOM      7  N   LIG    1        1.691   5.588   3.471  0.00  0.00    -0.540 NA
ATOM      8  C   LIG    1        1.562   6.676   4.201  0.00  0.00    +0.540 A 
ATOM      9  N   LIG    1        1.562   7.887   3.675  0.00  0.00    -0.570 NA
ENDROOT
BRANCH   1  10
ATOM     10  N   LIG    1        1.695   9.341   1.822  0.00  0.00    -0.460 N 
BRANCH  10  12
ATOM     11  C   LIG    1        2.871  10.986   0.441  0.00  0.00    +0.040 C 
ATOM     12  C   LIG    1        2.941   9.602   1.089  0.00  0.00    +0.210 C 
ENDBRANCH  10  12
BRANCH  10  13
ATOM     13  C   LIG    1        1.472  10.356   2.861  0.00  0.00    +0.220 C 
BRANCH  13  14
ATOM     14  C   LIG    1        2.657  10.364   3.829  0.00  0.00    +0.240 C 
BRANCH  14  15
ATOM     15  C   LIG    1        2.331  11.234   5.015  0.00  0.00    -0.110 A 
ATOM     16  C   LIG    1        2.453  12.608   4.918  0.00  0.00    +0.010 A 
ATOM     17  C   LIG    1        2.150  13.406   6.005  0.00  0.00    +0.000 A 
ATOM     18  C   LIG    1        1.734  12.831   7.191  0.00  0.00    -0.090 A 
ATOM     19  C   LIG    1        1.617  11.457   7.289  0.00  0.00    +0.000 A 
ATOM     20  C   LIG    1        1.407  13.702   8.377  0.00  0.00    +0.090 C 
ATOM     21  C   LIG    1        1.916  10.659   6.201  0.00  0.00    +0.030 A 
ENDBRANCH  14  15
BRANCH  14  22
ATOM     22  O   LIG    1        3.812  10.878   3.164  0.00  0.00    -0.550 OA
ATOM     23  H   LIG    1        3.708  11.781   2.834  0.00  0.00    +0.370 HD
ENDBRANCH  14  22
ENDBRANCH  13  14
ENDBRANCH  10  13
ENDBRANCH   1  10
BRANCH   5  24
ATOM     24  C   LIG    1        2.034   3.304   1.276  0.00  0.00    +0.300 C 
BRANCH  24  25
ATOM     25  C   LIG    1        0.611   2.743   1.295  0.00  0.00    +0.200 C 
BRANCH  25  26
ATOM     26  O   LIG    1       -0.010   2.978   0.030  0.00  0.00    -0.540 OA
ATOM     27  H   LIG    1        0.448   2.569  -0.716  0.00  0.00    +0.370 HD
ENDBRANCH  25  26
BRANCH  25  28
ATOM     28  C   LIG    1        0.661   1.238   1.566  0.00  0.00    +0.160 C 
BRANCH  28  29
ATOM     29  O   LIG    1       -0.670   0.734   1.699  0.00  0.00    -0.560 OA
ATOM     30  H   LIG    1       -0.715  -0.216   1.873  0.00  0.00    +0.380 HD
ENDBRANCH  28  29
ENDBRANCH  25  28
ENDBRANCH  24  25
ENDBRANCH   5  24
TORSDOF 11
