REMARK  Name = ZINCrg000000tRkn.0
REMARK                            x       y       z     vdW  Elec       q    Type
REMARK                         _______ _______ _______ _____ _____    ______ ____
ROOT
ATOM      1  O   LIG    1      -10.302  -1.932   1.772  0.00  0.00    -0.510 OA
ATOM      2  C   LIG    1       -9.446  -1.084   1.634  0.00  0.00    +0.510 C 
ATOM      3  C   LIG    1       -9.612   0.241   2.326  0.00  0.00    +0.330 C 
ATOM      4  N   LIG    1       -9.729   1.292   1.315  0.00  0.00    -0.710 N 
ATOM      5  H   LIG    1      -10.550   1.805   1.257  0.00  0.00    +0.420 HD
ATOM      6  C   LIG    1       -8.734   1.559   0.472  0.00  0.00    +0.560 C 
ATOM      7  C   LIG    1       -7.438   0.866   0.466  0.00  0.00    -0.120 A 
ATOM      8  C   LIG    1       -6.288   1.645   0.252  0.00  0.00    +0.110 A 
ATOM      9  C   LIG    1       -5.042   1.068   0.239  0.00  0.00    +0.040 A 
ATOM     10  C   LIG    1       -4.909  -0.308   0.441  0.00  0.00    -0.090 A 
ATOM     11  C   LIG    1       -6.040  -1.089   0.647  0.00  0.00    +0.070 A 
ATOM     12  C   LIG    1       -7.310  -0.508   0.665  0.00  0.00    +0.180 A 
ATOM     13  O   LIG    1       -8.909   2.438  -0.350  0.00  0.00    -0.520 OA
ATOM     14  N   LIG    1       -8.387  -1.352   0.876  0.00  0.00    -0.660 N 
ATOM     15  H   LIG    1       -8.368  -2.214   0.431  0.00  0.00    +0.420 HD
ENDROOT
BRANCH  10  16
ATOM     16  C   LIG    1       -3.568  -0.934   0.429  0.00  0.00    +0.560 C 
ATOM     17  N   LIG    1       -2.473  -0.176   0.224  0.00  0.00    -0.640 N 
ATOM     18  H   LIG    1       -2.555   0.788   0.159  0.00  0.00    +0.420 HD
ATOM     19  O   LIG    1       -3.454  -2.131   0.605  0.00  0.00    -0.510 OA
BRANCH  17  20
ATOM     20  C   LIG    1       -1.215  -0.781   0.103  0.00  0.00    +0.070 A 
ATOM     21  C   LIG    1       -1.099  -2.120  -0.239  0.00  0.00    +0.330 A 
ATOM     22  N   LIG    1        0.109  -2.658  -0.338  0.00  0.00    -0.500 NA
ATOM     23  C   LIG    1        1.193  -1.940  -0.122  0.00  0.00    +0.490 A 
ATOM     24  N   LIG    1        1.132  -0.663   0.200  0.00  0.00    -0.530 NA
ATOM     25  C   LIG    1       -0.039  -0.048   0.320  0.00  0.00    +0.310 A 
BRANCH  25  26
ATOM     26  N   LIG    1       -0.098   1.296   0.659  0.00  0.00    -0.470 N 
ATOM     27  C   LIG    1        0.076   1.484   2.122  0.00  0.00    +0.190 C 
ATOM     28  C   LIG    1        0.506   2.968   2.240  0.00  0.00    +0.040 C 
ATOM     29  C   LIG    1        1.414   3.164   1.004  0.00  0.00    +0.020 C 
ATOM     30  C   LIG    1        1.001   2.053   0.021  0.00  0.00    +0.190 C 
ENDBRANCH  25  26
ENDBRANCH  17  20
ENDBRANCH  10  16
TORSDOF 3
