REMARK  Name = ZINCpk00000e9AVH.0
REMARK                            x       y       z     vdW  Elec       q    Type
REMARK                         _______ _______ _______ _____ _____    ______ ____
ROOT
ATOM      1  N   LIG    1        4.521   8.127   1.253  0.00  0.00    -0.710 N 
ATOM      2  H   LIG    1        5.195   8.258   1.938  0.00  0.00    +0.410 HD
ATOM      3  C   LIG    1        3.234   8.436   1.505  0.00  0.00    +0.610 C 
ATOM      4  O   LIG    1        2.390   8.272   0.646  0.00  0.00    -0.520 OA
ENDROOT
BRANCH   3   5
ATOM      5  C   LIG    1        2.848   8.973   2.826  0.00  0.00    -0.060 A 
ATOM      6  N   LIG    1        3.663   9.201   3.840  0.00  0.00    -0.200 NA
ATOM      7  N   LIG    1        2.989   9.665   4.835  0.00  0.00    -0.150 N 
ATOM      8  N   LIG    1        1.642   9.761   4.463  0.00  0.00    -0.270 NA
ATOM      9  C   LIG    1        1.549   9.335   3.225  0.00  0.00    +0.300 A 
BRANCH   7  10
ATOM     10  C   LIG    1        3.518  10.020   6.082  0.00  0.00    +0.150 A 
ATOM     11  C   LIG    1        2.685  10.516   7.076  0.00  0.00    +0.040 A 
ATOM     12  C   LIG    1        3.209  10.865   8.305  0.00  0.00    +0.040 A 
ATOM     13  C   LIG    1        4.563  10.722   8.546  0.00  0.00    +0.020 A 
ATOM     14  C   LIG    1        5.396  10.229   7.559  0.00  0.00    +0.040 A 
ATOM     15  C   LIG    1        4.878   9.878   6.328  0.00  0.00    +0.030 A 
ENDBRANCH   7  10
ENDBRANCH   3   5
BRANCH   1  16
ATOM     16  C   LIG    1        4.904   7.595  -0.058  0.00  0.00    +0.290 C 
BRANCH  16  17
ATOM     17  C   LIG    1        6.411   7.331  -0.081  0.00  0.00    +0.100 C 
ATOM     18  C   LIG    1        7.163   8.658   0.046  0.00  0.00    -0.010 C 
BRANCH  17  19
ATOM     19  N   LIG    1        6.774   6.681  -1.347  0.00  0.00    -0.520 NA
ATOM     20  C   LIG    1        8.203   6.334  -1.369  0.00  0.00    +0.150 C 
ATOM     21  C   LIG    1        8.525   5.607  -2.678  0.00  0.00    +0.220 C 
ATOM     22  O   LIG    1        8.152   6.436  -3.782  0.00  0.00    -0.380 OA
ATOM     23  C   LIG    1        6.767   6.793  -3.792  0.00  0.00    +0.220 C 
ATOM     24  C   LIG    1        6.427   7.532  -2.495  0.00  0.00    +0.150 C 
ENDBRANCH  17  19
BRANCH  17  26
ATOM     25  C   LIG    1        6.139   5.046   0.892  0.00  0.00    +0.020 C 
ATOM     26  C   LIG    1        6.787   6.418   1.088  0.00  0.00    +0.030 C 
ENDBRANCH  17  26
ENDBRANCH  16  17
ENDBRANCH   1  16
TORSDOF 6
