REMARK  Name = ZINCrH000004qfKd.0
REMARK                            x       y       z     vdW  Elec       q    Type
REMARK                         _______ _______ _______ _____ _____    ______ ____
ROOT
ATOM      1  C   LIG    1        3.669   0.986   1.791  0.00  0.00    +0.140 A 
ATOM      2  C   LIG    1        3.687  -0.380   2.042  0.00  0.00    +0.040 A 
ATOM      3  C   LIG    1        4.878  -1.018   2.330  0.00  0.00    +0.030 A 
ATOM      4  C   LIG    1        6.061  -0.296   2.382  0.00  0.00    +0.080 A 
ATOM      5  O   LIG    1        7.225  -0.934   2.676  0.00  0.00    -0.310 OA
ATOM      6  C   LIG    1        8.447  -0.296   2.301  0.00  0.00    +0.240 C 
ATOM      7  C   LIG    1        8.416   1.159   2.788  0.00  0.00    +0.270 C 
ATOM      8  N   LIG    1        7.241   1.807   2.180  0.00  0.00    -0.550 N 
ATOM      9  C   LIG    1        7.313   3.058   1.685  0.00  0.00    +0.530 C 
ATOM     10  O   LIG    1        6.369   3.529   1.087  0.00  0.00    -0.510 OA
ATOM     11  C   LIG    1        6.043   1.074   2.134  0.00  0.00    +0.100 A 
ATOM     12  C   LIG    1        4.850   1.714   1.839  0.00  0.00    +0.030 A 
ENDROOT
BRANCH   1  14
ATOM     13  C   LIG    1        1.534   1.006   0.739  0.00  0.00    +0.560 C 
ATOM     14  N   LIG    1        2.461   1.628   1.495  0.00  0.00    -0.670 N 
ATOM     15  H   LIG    1        2.290   2.521   1.834  0.00  0.00    +0.410 HD
ATOM     16  O   LIG    1        1.780  -0.078   0.246  0.00  0.00    -0.510 OA
BRANCH  13  23
ATOM     17  C   LIG    1       -0.411  -0.304  -0.955  0.00  0.00    +0.120 C 
ATOM     18  C   LIG    1       -0.724   1.022  -0.312  0.00  0.00    -0.040 A 
ATOM     19  C   LIG    1       -1.951   1.626  -0.527  0.00  0.00    +0.090 A 
ATOM     20  C   LIG    1       -2.237   2.849   0.066  0.00  0.00    +0.030 A 
ATOM     21  C   LIG    1       -1.301   3.468   0.873  0.00  0.00    +0.020 A 
ATOM     22  C   LIG    1       -0.077   2.872   1.099  0.00  0.00    +0.040 A 
ATOM     23  C   LIG    1        0.222   1.645   0.503  0.00  0.00    -0.130 A 
BRANCH  19  24
ATOM     24  O   LIG    1       -2.875   1.023  -1.321  0.00  0.00    -0.490 OA
ATOM     25  H   LIG    1       -3.473   0.429  -0.846  0.00  0.00    +0.390 HD
ENDBRANCH  19  24
ENDBRANCH  13  23
ENDBRANCH   1  14
BRANCH   9  26
ATOM     26  C   LIG    1        8.566   3.873   1.875  0.00  0.00    -0.080 C 
ATOM     27  C   LIG    1        9.690   3.288   1.018  0.00  0.00    +0.060 C 
ATOM     28  C   LIG    1        8.979   3.839   3.349  0.00  0.00    +0.040 C 
ATOM     29  C   LIG    1        8.303   5.320   1.453  0.00  0.00    +0.070 C 
ENDBRANCH   9  26
TORSDOF 4
