REMARK  Name = ZINCrH000004sMN7.0
REMARK                            x       y       z     vdW  Elec       q    Type
REMARK                         _______ _______ _______ _____ _____    ______ ____
ROOT
ATOM      1  C   LIG    1        1.194  -2.160  -0.021  0.00  0.00    +0.220 A 
ATOM      2  N   LIG    1        0.146  -2.943  -0.017  0.00  0.00    -0.370 NA
ATOM      3  O   LIG    1        0.493  -4.105  -0.027  0.00  0.00    +0.100 OA
ATOM      4  C   LIG    1        1.828  -4.184  -0.040  0.00  0.00    +0.210 A 
ATOM      5  N   LIG    1        2.287  -2.957  -0.042  0.00  0.00    -0.460 NA
ENDROOT
BRANCH   4   6
ATOM      6  C   LIG    1        2.650  -5.447  -0.055  0.00  0.00    +0.180 C 
ATOM      7  C   LIG    1        2.339  -6.272   1.195  0.00  0.00    +0.040 C 
ATOM      8  C   LIG    1        2.950  -7.668   1.015  0.00  0.00    +0.120 C 
ATOM      9  O   LIG    1        2.288  -8.312  -0.074  0.00  0.00    -0.300 OA
ATOM     10  C   LIG    1        2.158  -7.621  -1.236  0.00  0.00    +0.160 A 
ATOM     11  C   LIG    1        1.855  -8.325  -2.397  0.00  0.00    -0.010 A 
ATOM     12  C   LIG    1        1.710  -7.657  -3.596  0.00  0.00    +0.060 A 
ATOM     13  C   LIG    1        1.866  -6.285  -3.645  0.00  0.00    -0.020 A 
ATOM     14  C   LIG    1        2.168  -5.582  -2.494  0.00  0.00    +0.040 A 
ATOM     15  C   LIG    1        4.444  -7.541   0.709  0.00  0.00    +0.040 C 
ATOM     16  C   LIG    1        2.754  -8.485   2.294  0.00  0.00    +0.080 C 
ATOM     17  C   LIG    1        2.316  -6.247  -1.289  0.00  0.00    -0.170 A 
ENDBRANCH   4   6
BRANCH   1  25
ATOM     18  C   LIG    1       -2.495   1.995   0.023  0.00  0.00    +0.200 C 
ATOM     19  C   LIG    1       -1.016   2.282   0.018  0.00  0.00    +0.150 A 
ATOM     20  N   LIG    1       -0.457   3.464   0.025  0.00  0.00    -0.240 NA
ATOM     21  N   LIG    1        0.824   3.353   0.012  0.00  0.00    -0.280 NA
ATOM     22  C   LIG    1        1.157   2.072   0.002  0.00  0.00    +0.190 A 
ATOM     23  C   LIG    1        2.392   1.395  -0.013  0.00  0.00    +0.100 A 
ATOM     24  C   LIG    1        2.407   0.037  -0.021  0.00  0.00    +0.100 A 
ATOM     25  C   LIG    1        1.185  -0.677  -0.013  0.00  0.00    -0.030 A 
ATOM     26  C   LIG    1        0.002  -0.004   0.002  0.00  0.00    +0.290 A 
ATOM     27  N   LIG    1       -0.016   1.357   0.009  0.00  0.00    -0.390 N 
ENDBRANCH   1  25
TORSDOF 2
