REMARK  Name = ZINCvU0000000J5I.0
REMARK                            x       y       z     vdW  Elec       q    Type
REMARK                         _______ _______ _______ _____ _____    ______ ____
ROOT
ATOM      1  C   LIG    1        2.329   5.277   0.079  0.00  0.00    +0.270 A 
ATOM      2  N   LIG    1        3.356   6.030  -0.162  0.00  0.00    -0.470 NA
ATOM      3  C   LIG    1        3.146   7.332  -0.206  0.00  0.00    +0.090 A 
ATOM      4  C   LIG    1        1.880   7.697   0.007  0.00  0.00    -0.060 A 
ATOM      5  S   LIG    1        0.928   6.238   0.272  0.00  0.00    +0.150 S 
ENDROOT
BRANCH   1   6
ATOM      6  N   LIG    1        2.361   3.888   0.161  0.00  0.00    -0.480 N 
ATOM      7  C   LIG    1        3.498   3.222  -0.120  0.00  0.00    +0.510 C 
ATOM      8  O   LIG    1        4.514   3.836  -0.370  0.00  0.00    -0.470 OA
ATOM      9  C   LIG    1        3.507   1.715  -0.126  0.00  0.00    +0.110 C 
BRANCH   6  13
ATOM     10  C   LIG    1       -1.059   1.785   1.280  0.00  0.00    -0.060 A 
ATOM     11  C   LIG    1       -0.187   2.249   2.247  0.00  0.00    +0.020 A 
ATOM     12  C   LIG    1        0.948   2.945   1.880  0.00  0.00    +0.040 A 
ATOM     13  C   LIG    1        1.211   3.183   0.537  0.00  0.00    +0.090 A 
ATOM     14  C   LIG    1        0.330   2.720  -0.432  0.00  0.00    +0.030 A 
ATOM     15  C   LIG    1       -0.803   2.026  -0.058  0.00  0.00    +0.020 A 
BRANCH  10  17
ATOM     16  C   LIG    1       -3.452   1.998   1.895  0.00  0.00    +0.030 C 
ATOM     17  C   LIG    1       -2.293   1.021   1.684  0.00  0.00    +0.070 C 
ENDBRANCH  10  17
ENDBRANCH   6  13
ENDBRANCH   1   6
BRANCH   3  18
ATOM     18  C   LIG    1        4.245   8.326  -0.476  0.00  0.00    +0.330 C 
BRANCH  18  19
ATOM     19  O   LIG    1        3.697   9.671  -0.460  0.00  0.00    -0.360 OA
BRANCH  19  20
ATOM     20  C   LIG    1        4.552  10.680  -0.686  0.00  0.00    +0.460 C 
ATOM     21  O   LIG    1        5.720  10.448  -0.890  0.00  0.00    -0.490 OA
BRANCH  20  22
ATOM     22  C   LIG    1        4.056  12.103  -0.685  0.00  0.00    +0.190 C 
BRANCH  22  23
ATOM     23  C   LIG    1        5.206  13.037  -0.961  0.00  0.00    -0.170 A 
ATOM     24  C   LIG    1        5.955  13.673  -0.046  0.00  0.00    +0.250 A 
ATOM     25  N   LIG    1        6.905  14.434  -0.670  0.00  0.00    -0.590 N 
ATOM     26  H   LIG    1        7.564  14.984  -0.217  0.00  0.00    +0.420 HD
ATOM     27  C   LIG    1        6.788  14.303  -2.035  0.00  0.00    +0.090 A 
ATOM     28  C   LIG    1        7.484  14.843  -3.112  0.00  0.00    -0.010 A 
ATOM     29  C   LIG    1        7.119  14.511  -4.399  0.00  0.00    +0.030 A 
ATOM     30  C   LIG    1        6.062  13.641  -4.632  0.00  0.00    -0.020 A 
ATOM     31  C   LIG    1        5.365  13.100  -3.589  0.00  0.00    +0.050 A 
ATOM     32  C   LIG    1        5.722  13.418  -2.277  0.00  0.00    -0.090 A 
ENDBRANCH  22  23
ENDBRANCH  20  22
ENDBRANCH  19  20
ENDBRANCH  18  19
ENDBRANCH   3  18
TORSDOF 8
