REMARK  Name = ZINCnE000001D4tJ.1
REMARK                            x       y       z     vdW  Elec       q    Type
REMARK                         _______ _______ _______ _____ _____    ______ ____
ROOT
ATOM      1  N   LIG    1        2.531   0.869   4.963  0.00  0.00    -0.670 NA
ATOM      2  C   LIG    1        2.617   0.029   6.013  0.00  0.00    +0.440 C 
ATOM      3  O   LIG    1        1.748  -0.795   6.203  0.00  0.00    -0.610 OA
ENDROOT
BRANCH   1   7
ATOM      4  C   LIG    1        0.000   1.080   2.488  0.00  0.00    +0.030 A 
ATOM      5  N   LIG    1       -0.374   0.114   3.278  0.00  0.00    -0.420 NA
ATOM      6  O   LIG    1        0.414  -0.062   4.178  0.00  0.00    +0.040 OA
ATOM      7  C   LIG    1        1.448   0.791   4.099  0.00  0.00    +0.260 A 
ATOM      8  C   LIG    1        1.224   1.562   2.995  0.00  0.00    -0.200 A 
BRANCH   4  10
ATOM      9  C   LIG    1       -0.013   1.086   0.008  0.00  0.00    +0.030 C 
ATOM     10  C   LIG    1       -0.729   1.579   1.267  0.00  0.00    +0.020 C 
ATOM     11  C   LIG    1       -2.164   1.050   1.278  0.00  0.00    +0.030 C 
ATOM     12  C   LIG    1       -0.750   3.109   1.275  0.00  0.00    +0.030 C 
ENDBRANCH   4  10
ENDBRANCH   1   7
BRANCH   2  13
ATOM     13  C   LIG    1        3.793   0.114   6.952  0.00  0.00    +0.280 C 
BRANCH  13  14
ATOM     14  N   LIG    1        3.653  -0.898   8.002  0.00  0.00    -0.710 N 
ATOM     15  H   LIG    1        2.883  -1.488   8.008  0.00  0.00    +0.420 HD
BRANCH  14  16
ATOM     16  C   LIG    1        4.630  -1.013   8.998  0.00  0.00    +0.220 A 
ATOM     17  C   LIG    1        5.732  -0.169   8.990  0.00  0.00    -0.020 A 
ATOM     18  C   LIG    1        6.697  -0.283   9.973  0.00  0.00    +0.070 A 
ATOM     19  C   LIG    1        6.567  -1.238  10.966  0.00  0.00    +0.010 A 
ATOM     20  C   LIG    1        5.467  -2.083  10.978  0.00  0.00    +0.090 A 
ATOM     21  F   LIG    1        5.341  -3.014  11.949  0.00  0.00    -0.120 F 
ATOM     22  F   LIG    1        7.512  -1.347  11.926  0.00  0.00    -0.130 F 
ATOM     23  C   LIG    1        4.496  -1.969   9.998  0.00  0.00    +0.000 A 
ATOM     24  F   LIG    1        3.421  -2.788  10.012  0.00  0.00    -0.120 F 
ENDBRANCH  14  16
ENDBRANCH  13  14
ENDBRANCH   2  13
TORSDOF 5
