REMARK  Name = ZINCvU0000000Gun.0
REMARK                            x       y       z     vdW  Elec       q    Type
REMARK                         _______ _______ _______ _____ _____    ______ ____
ROOT
ATOM      1  C   LIG    1        1.852  -1.018  -3.286  0.00  0.00    -0.150 A 
ATOM      2  C   LIG    1        1.061  -0.038  -2.686  0.00  0.00    +0.160 A 
ATOM      3  C   LIG    1        0.947   0.007  -1.312  0.00  0.00    -0.690 A 
ATOM      4  C   LIG    1        1.607  -0.923  -0.529  0.00  0.00    +0.150 A 
ATOM      5  C   LIG    1        2.389  -1.901  -1.118  0.00  0.00    +0.000 A 
ATOM      6  C   LIG    1        2.515  -1.954  -2.491  0.00  0.00    +0.020 A 
ATOM      7  C   LIG    1        3.367  -3.021  -3.130  0.00  0.00    +0.110 C 
ENDROOT
BRANCH   1   9
ATOM      8  N   LIG    1        0.880  -1.137  -5.530  0.00  0.00    -0.600 N 
ATOM      9  C   LIG    1        1.983  -1.069  -4.758  0.00  0.00    +0.570 C 
ATOM     10  O   LIG    1        3.084  -1.050  -5.271  0.00  0.00    -0.520 OA
ATOM     11  C   LIG    1       -0.449  -1.051  -4.920  0.00  0.00    +0.290 C 
BRANCH   8  12
ATOM     12  C   LIG    1        1.011  -1.297  -6.981  0.00  0.00    +0.340 C 
BRANCH  12  16
ATOM     13  C   LIG    1        1.079  -5.458  -7.955  0.00  0.00    -0.080 A 
ATOM     14  C   LIG    1       -0.130  -4.774  -7.905  0.00  0.00    +0.030 A 
ATOM     15  C   LIG    1       -0.148  -3.430  -7.589  0.00  0.00    +0.040 A 
ATOM     16  C   LIG    1        1.035  -2.764  -7.324  0.00  0.00    -0.120 A 
ATOM     17  C   LIG    1        2.240  -3.440  -7.379  0.00  0.00    +0.050 A 
ATOM     18  C   LIG    1        2.265  -4.786  -7.688  0.00  0.00    -0.020 A 
BRANCH  13  20
ATOM     19  C   LIG    1        2.873  -7.579  -8.292  0.00  0.00    +0.130 C 
ATOM     20  S   LIG    1        1.106  -7.173  -8.358  0.00  0.00    -0.120 S 
ENDBRANCH  13  20
ENDBRANCH  12  16
ENDBRANCH   8  12
ENDBRANCH   1   9
BRANCH   3  21
ATOM     21  S   LIG    1       -0.047   1.248  -0.552  0.00  0.00    +2.690 S 
ATOM     22  O   LIG    1       -0.505   0.700   0.676  0.00  0.00    -0.940 OA
ATOM     23  O   LIG    1       -0.922   1.735  -1.561  0.00  0.00    -0.950 OA
BRANCH  21  24
ATOM     24  N   LIG    1        0.956   2.506  -0.157  0.00  0.00    -1.060 N 
ATOM     25  H   LIG    1        0.838   3.371  -0.579  0.00  0.00    +0.430 HD
BRANCH  24  26
ATOM     26  C   LIG    1        1.972   2.320   0.783  0.00  0.00    +0.110 A 
ATOM     27  C   LIG    1        1.666   2.260   2.136  0.00  0.00    +0.040 A 
ATOM     28  C   LIG    1        2.672   2.071   3.063  0.00  0.00    +0.020 A 
ATOM     29  C   LIG    1        3.985   1.952   2.646  0.00  0.00    -0.070 A 
ATOM     30  C   LIG    1        4.295   2.017   1.299  0.00  0.00    +0.010 A 
ATOM     31  C   LIG    1        5.082   1.752   3.660  0.00  0.00    +0.090 C 
ATOM     32  C   LIG    1        3.292   2.200   0.367  0.00  0.00    +0.020 A 
ENDBRANCH  24  26
ENDBRANCH  21  24
ENDBRANCH   3  21
TORSDOF 7
