REMARK  Name = ZINCvU00000004Qx.0
REMARK                            x       y       z     vdW  Elec       q    Type
REMARK                         _______ _______ _______ _____ _____    ______ ____
ROOT
ATOM      1  C   LIG    1       -0.014   1.211   0.009  0.00  0.00    +0.670 C 
ATOM      2  N   LIG    1        1.143   1.901   0.001  0.00  0.00    -0.600 N 
ATOM      3  C   LIG    1        1.290   3.376   0.008  0.00  0.00    +0.260 C 
ATOM      4  C   LIG    1        2.806   3.683  -0.136  0.00  0.00    -0.010 C 
ATOM      5  C   LIG    1        3.328   2.391  -0.783  0.00  0.00    +0.000 C 
ATOM      6  C   LIG    1        4.787   2.071  -0.505  0.00  0.00    +0.030 C 
ATOM      7  C   LIG    1        5.078   0.693  -1.121  0.00  0.00    +0.010 C 
ATOM      8  C   LIG    1        4.160  -0.381  -0.545  0.00  0.00    +0.010 C 
ATOM      9  C   LIG    1        2.680   0.003  -0.703  0.00  0.00    +0.040 C 
ATOM     10  C   LIG    1        2.484   1.338  -0.009  0.00  0.00    +0.230 C 
ATOM     11  O   LIG    1        0.002  -0.004   0.002  0.00  0.00    -0.560 OA
ENDROOT
BRANCH   1  12
ATOM     12  O   LIG    1       -1.189   1.868   0.018  0.00  0.00    -0.360 OA
BRANCH  12  14
ATOM     13  C   LIG    1       -2.413   0.171   1.264  0.00  0.00    +0.040 C 
ATOM     14  C   LIG    1       -2.396   1.061   0.019  0.00  0.00    +0.140 C 
ATOM     15  C   LIG    1       -2.425   0.185  -1.235  0.00  0.00    +0.040 C 
ATOM     16  C   LIG    1       -3.622   1.976   0.030  0.00  0.00    +0.080 C 
ENDBRANCH  12  14
ENDBRANCH   1  12
BRANCH   4  17
ATOM     17  C   LIG    1        3.035   4.886  -1.052  0.00  0.00    +0.280 C 
BRANCH  17  18
ATOM     18  N   LIG    1        2.502   6.093  -0.417  0.00  0.00    -0.710 N 
ATOM     19  H   LIG    1        2.083   6.037   0.457  0.00  0.00    +0.410 HD
BRANCH  18  20
ATOM     20  C   LIG    1        2.595   7.320  -1.065  0.00  0.00    +0.430 A 
ATOM     21  C   LIG    1        3.202   7.394  -2.314  0.00  0.00    -0.100 A 
ATOM     22  C   LIG    1        3.284   8.620  -2.950  0.00  0.00    +0.170 A 
ATOM     23  C   LIG    1        2.764   9.736  -2.307  0.00  0.00    -0.310 A 
ATOM     24  C   LIG    1        2.180   9.590  -1.065  0.00  0.00    +0.380 A 
ATOM     25  N   LIG    1        2.111   8.407  -0.484  0.00  0.00    -0.540 NA
BRANCH  23  26
ATOM     26  C   LIG    1        2.837  11.093  -2.960  0.00  0.00    +0.330 C 
ATOM     27  F   LIG    1        3.971  11.158  -3.776  0.00  0.00    -0.160 F 
ATOM     28  F   LIG    1        2.915  12.081  -1.973  0.00  0.00    -0.160 F 
BRANCH  26  29
ATOM     29  C   LIG    1        1.584  11.318  -3.809  0.00  0.00    +0.430 C 
ATOM     30  F   LIG    1        1.506  10.329  -4.796  0.00  0.00    -0.160 F 
ATOM     31  F   LIG    1        1.651  12.577  -4.414  0.00  0.00    -0.160 F 
ATOM     32  F   LIG    1        0.450  11.253  -2.993  0.00  0.00    -0.160 F 
ENDBRANCH  26  29
ENDBRANCH  23  26
ENDBRANCH  18  20
ENDBRANCH  17  18
ENDBRANCH   4  17
TORSDOF 7
