REMARK  Name = ZINC9l0000002r5d.0
REMARK                            x       y       z     vdW  Elec       q    Type
REMARK                         _______ _______ _______ _____ _____    ______ ____
ROOT
ATOM      1  C   LIG    1       -1.477   0.025  -2.490  0.00  0.00    +0.020 C 
ATOM      2  C   LIG    1       -2.180   0.893  -1.445  0.00  0.00    +0.030 C 
ENDROOT
BRANCH   2   3
ATOM      3  C   LIG    1       -1.150   1.781  -0.743  0.00  0.00    -0.040 C 
ATOM      4  C   LIG    1       -0.013   1.086   0.008  0.00  0.00    +0.000 C 
ATOM      5  C   LIG    1       -1.136   1.773   0.788  0.00  0.00    -0.010 C 
ENDBRANCH   2   3
BRANCH   2   6
ATOM      6  C   LIG    1       -3.227   1.772  -2.132  0.00  0.00    -0.080 C 
BRANCH   6   7
ATOM      7  C   LIG    1       -4.307   0.900  -2.719  0.00  0.00    +0.490 C 
ATOM      8  O   LIG    1       -5.243   1.407  -3.314  0.00  0.00    -0.710 OA
ATOM      9  O   LIG    1       -4.246  -0.311  -2.598  0.00  0.00    -0.690 OA
ENDBRANCH   6   7
ENDBRANCH   2   6
TORSDOF 3
