REMARK  Name = ZINCvU0000000GEX.0
REMARK                            x       y       z     vdW  Elec       q    Type
REMARK                         _______ _______ _______ _____ _____    ______ ____
ROOT
ATOM      1  C   LIG    1       -1.097   2.236  -0.082  0.00  0.00    +0.300 A 
ATOM      2  N   LIG    1       -0.704   3.482  -0.085  0.00  0.00    -0.520 NA
ATOM      3  C   LIG    1        0.635   3.534  -0.061  0.00  0.00    +0.260 A 
ATOM      4  N   LIG    1        1.105   2.307  -0.036  0.00  0.00    -0.290 NA
ATOM      5  N   LIG    1       -0.007   1.448  -0.045  0.00  0.00    -0.360 N 
ENDROOT
BRANCH   3   6
ATOM      6  C   LIG    1        1.452   4.773  -0.063  0.00  0.00    +0.070 A 
ATOM      7  C   LIG    1        0.845   6.033  -0.097  0.00  0.00    -0.010 A 
ATOM      8  C   LIG    1        1.637   7.161  -0.092  0.00  0.00    +0.310 A 
ATOM      9  N   LIG    1        2.954   7.066  -0.066  0.00  0.00    -0.520 NA
ATOM     10  C   LIG    1        3.570   5.895  -0.040  0.00  0.00    +0.310 A 
ATOM     11  C   LIG    1        2.845   4.712  -0.037  0.00  0.00    +0.000 A 
BRANCH  10  12
ATOM     12  O   LIG    1        4.926   5.851  -0.014  0.00  0.00    -0.240 OA
BRANCH  12  13
ATOM     13  C   LIG    1        5.604   7.024  -0.119  0.00  0.00    +0.040 A 
ATOM     14  C   LIG    1        5.702   7.882   0.971  0.00  0.00    +0.070 A 
ATOM     15  C   LIG    1        6.404   9.067   0.815  0.00  0.00    -0.020 A 
ATOM     16  C   LIG    1        6.980   9.354  -0.408  0.00  0.00    +0.260 A 
ATOM     17  N   LIG    1        6.868   8.519  -1.422  0.00  0.00    -0.470 NA
ATOM     18  C   LIG    1        6.214   7.379  -1.314  0.00  0.00    +0.270 A 
ENDBRANCH  12  13
ENDBRANCH  10  12
ENDBRANCH   3   6
BRANCH   5  19
ATOM     19  C   LIG    1        0.017  -0.016  -0.026  0.00  0.00    +0.240 C 
ATOM     20  C   LIG    1        0.726  -0.500   1.243  0.00  0.00    +0.030 C 
ATOM     21  C   LIG    1        0.813  -2.029   1.215  0.00  0.00    +0.020 C 
ATOM     22  C   LIG    1        1.539  -2.467  -0.060  0.00  0.00    +0.210 C 
ATOM     23  O   LIG    1        0.845  -1.959  -1.201  0.00  0.00    -0.370 OA
ATOM     24  C   LIG    1        0.772  -0.532  -1.253  0.00  0.00    +0.230 C 
ENDBRANCH   5  19
BRANCH   1  25
ATOM     25  C   LIG    1       -2.528   1.762  -0.110  0.00  0.00    +0.080 C 
BRANCH  25  26
ATOM     26  C   LIG    1       -3.208   2.270  -1.383  0.00  0.00    +0.050 C 
ATOM     27  C   LIG    1       -2.546   1.632  -2.605  0.00  0.00    +0.010 C 
ENDBRANCH  25  26
BRANCH  25  28
ATOM     28  C   LIG    1       -3.268   2.302   1.115  0.00  0.00    +0.080 C 
BRANCH  28  31
ATOM     29  C   LIG    1       -6.474   0.521   2.255  0.00  0.00    +0.070 C 
ATOM     30  C   LIG    1       -5.080   1.093   2.218  0.00  0.00    -0.040 C 
ATOM     31  C   LIG    1       -4.662   1.729   1.152  0.00  0.00    -0.060 C 
ENDBRANCH  28  31
ENDBRANCH  25  28
ENDBRANCH   1  25
TORSDOF 8
