REMARK  Name = ZINCrH000004qVV5.0
REMARK                            x       y       z     vdW  Elec       q    Type
REMARK                         _______ _______ _______ _____ _____    ______ ____
ROOT
ATOM      1  C   LIG    1        1.506  -6.233  -1.635  0.00  0.00    +0.060 C 
ENDROOT
BRANCH   1   2
ATOM      2  C   LIG    1        1.516  -7.545  -2.376  0.00  0.00    +0.510 C 
ATOM      3  N   LIG    1        2.684  -8.167  -2.630  0.00  0.00    -0.660 N 
ATOM      4  H   LIG    1        3.523  -7.739  -2.394  0.00  0.00    +0.420 HD
ATOM      5  O   LIG    1        0.472  -8.041  -2.745  0.00  0.00    -0.520 OA
BRANCH   3   6
ATOM      6  C   LIG    1        2.688  -9.426  -3.234  0.00  0.00    +0.160 A 
ATOM      7  C   LIG    1        1.736  -9.748  -4.176  0.00  0.00    +0.040 A 
ATOM      8  C   LIG    1        1.731 -10.998  -4.788  0.00  0.00    +0.040 A 
ATOM      9  C   LIG    1        2.661 -11.939  -4.466  0.00  0.00    +0.020 A 
ATOM     10  C   LIG    1        3.645 -11.652  -3.507  0.00  0.00    -0.090 A 
ATOM     11  C   LIG    1        4.620 -12.603  -3.151  0.00  0.00    +0.080 A 
ATOM     12  C   LIG    1        5.547 -12.256  -2.210  0.00  0.00    -0.030 A 
ATOM     13  C   LIG    1        5.509 -10.989  -1.632  0.00  0.00    +0.290 A 
ATOM     14  N   LIG    1        4.599 -10.106  -1.966  0.00  0.00    -0.480 NA
ATOM     15  C   LIG    1        3.665 -10.382  -2.879  0.00  0.00    +0.110 A 
ENDBRANCH   3   6
ENDBRANCH   1   2
BRANCH   1  16
ATOM     16  C   LIG    1        0.064  -5.745  -1.480  0.00  0.00    +0.140 C 
BRANCH  16  24
ATOM     17  C   LIG    1       -0.015   1.523  -0.063  0.00  0.00    +0.170 C 
ATOM     18  C   LIG    1        0.004   0.017  -0.060  0.00  0.00    +0.120 A 
ATOM     19  N   LIG    1       -0.001  -0.749  -1.128  0.00  0.00    -0.310 NA
ATOM     20  N   LIG    1        0.025  -2.088  -0.724  0.00  0.00    -0.310 N 
ATOM     21  C   LIG    1        0.039  -2.109   0.647  0.00  0.00    +0.260 A 
ATOM     22  N   LIG    1        0.060  -3.272   1.311  0.00  0.00    -0.470 NA
ATOM     23  C   LIG    1        0.068  -4.415   0.665  0.00  0.00    +0.220 A 
ATOM     24  C   LIG    1        0.054  -4.434  -0.738  0.00  0.00    -0.200 A 
ATOM     25  C   LIG    1        0.091  -5.711   1.433  0.00  0.00    +0.160 C 
ATOM     26  C   LIG    1        0.033  -3.263  -1.420  0.00  0.00    +0.200 A 
ATOM     27  C   LIG    1        0.018  -3.258  -2.927  0.00  0.00    +0.160 C 
ATOM     28  C   LIG    1        0.026  -0.786   1.070  0.00  0.00    -0.110 A 
ENDBRANCH  16  24
ENDBRANCH   1  16
TORSDOF 4
