REMARK  Name = ZINCrH000004jdsz.0
REMARK                            x       y       z     vdW  Elec       q    Type
REMARK                         _______ _______ _______ _____ _____    ______ ____
ROOT
ATOM      1  N   LIG    1        1.941   3.507   0.597  0.00  0.00    -0.570 N 
ATOM      2  C   LIG    1        0.816   4.010  -0.199  0.00  0.00    +0.310 C 
ATOM      3  C   LIG    1       -0.226   2.869  -0.209  0.00  0.00    -0.010 C 
ATOM      4  C   LIG    1        0.666   1.627   0.018  0.00  0.00    +0.080 C 
ATOM      5  C   LIG    1        1.885   2.170   0.730  0.00  0.00    +0.530 C 
ATOM      6  O   LIG    1        2.695   1.498   1.333  0.00  0.00    -0.510 OA
ENDROOT
BRANCH   1  12
ATOM      7  C   LIG    1        2.788   4.843   2.422  0.00  0.00    -0.070 A 
ATOM      8  C   LIG    1        3.779   5.639   2.962  0.00  0.00    +0.020 A 
ATOM      9  C   LIG    1        4.924   5.910   2.235  0.00  0.00    +0.020 A 
ATOM     10  C   LIG    1        5.081   5.385   0.966  0.00  0.00    +0.010 A 
ATOM     11  C   LIG    1        4.096   4.583   0.422  0.00  0.00    +0.020 A 
ATOM     12  C   LIG    1        2.943   4.314   1.147  0.00  0.00    +0.140 A 
BRANCH   7  14
ATOM     13  C   LIG    1        1.707   3.215   3.948  0.00  0.00    +0.030 C 
ATOM     14  C   LIG    1        1.542   4.548   3.215  0.00  0.00    +0.060 C 
ENDBRANCH   7  14
ENDBRANCH   1  12
BRANCH   3  15
ATOM     15  C   LIG    1       -0.928   2.792  -1.540  0.00  0.00    +0.540 C 
ATOM     16  N   LIG    1       -1.962   1.944  -1.708  0.00  0.00    -0.600 N 
ATOM     17  O   LIG    1       -0.564   3.494  -2.460  0.00  0.00    -0.510 OA
BRANCH  16  18
ATOM     18  C   LIG    1       -2.574   1.787  -3.030  0.00  0.00    +0.270 C 
ATOM     19  C   LIG    1       -2.562   0.309  -3.425  0.00  0.00    +0.050 C 
BRANCH  18  20
ATOM     20  C   LIG    1       -4.017   2.293  -2.988  0.00  0.00    -0.060 C 
ATOM     21  C   LIG    1       -5.133   1.260  -3.160  0.00  0.00    +0.010 C 
ATOM     22  C   LIG    1       -4.821   2.246  -4.289  0.00  0.00    +0.030 C 
ENDBRANCH  18  20
ENDBRANCH  16  18
BRANCH  16  23
ATOM     23  C   LIG    1       -2.474   1.178  -0.569  0.00  0.00    +0.330 C 
BRANCH  23  24
ATOM     24  C   LIG    1       -3.502   2.020   0.191  0.00  0.00    +0.430 C 
ATOM     25  F   LIG    1       -2.929   3.247   0.544  0.00  0.00    -0.180 F 
ATOM     26  F   LIG    1       -3.898   1.340   1.347  0.00  0.00    -0.180 F 
ATOM     27  F   LIG    1       -4.616   2.243  -0.625  0.00  0.00    -0.170 F 
ENDBRANCH  23  24
ENDBRANCH  16  23
ENDBRANCH   3  15
TORSDOF 7
