REMARK  Name = ZINCpk00000KfKXQ.0
REMARK                            x       y       z     vdW  Elec       q    Type
REMARK                         _______ _______ _______ _____ _____    ______ ____
ROOT
ATOM      1  C   LIG    1        5.037  -2.480   0.521  0.00  0.00    +0.580 C 
ATOM      2  N   LIG    1        6.111  -1.669   0.593  0.00  0.00    -0.590 N 
ATOM      3  C   LIG    1        5.973  -0.222   0.379  0.00  0.00    +0.300 C 
ATOM      4  C   LIG    1        6.585   0.510   1.583  0.00  0.00    +0.020 C 
ATOM      5  C   LIG    1        8.028   0.039   1.779  0.00  0.00    +0.280 C 
ATOM      6  C   LIG    1        8.041  -1.463   2.072  0.00  0.00    +0.020 C 
ATOM      7  C   LIG    1        7.444  -2.217   0.879  0.00  0.00    +0.280 C 
ATOM      8  O   LIG    1        3.952  -2.026   0.217  0.00  0.00    -0.500 OA
ENDROOT
BRANCH   1  12
ATOM      9  O   LIG    1        3.632  -6.566   2.590  0.00  0.00    -0.440 OA
ATOM     10  C   LIG    1        4.341  -5.987   1.786  0.00  0.00    +0.420 A 
ATOM     11  C   LIG    1        4.199  -4.546   1.515  0.00  0.00    -0.060 A 
ATOM     12  C   LIG    1        5.179  -3.926   0.813  0.00  0.00    +0.100 A 
ATOM     13  O   LIG    1        6.271  -4.566   0.372  0.00  0.00    -0.220 OA
ATOM     14  C   LIG    1        6.332  -5.910   0.324  0.00  0.00    +0.140 A 
ATOM     15  C   LIG    1        7.324  -6.549  -0.413  0.00  0.00    +0.010 A 
ATOM     16  C   LIG    1        7.380  -7.926  -0.444  0.00  0.00    +0.080 A 
ATOM     17  C   LIG    1        6.456  -8.691   0.254  0.00  0.00    -0.010 A 
ATOM     18  C   LIG    1        5.463  -8.079   0.988  0.00  0.00    +0.110 A 
ATOM     19  C   LIG    1        5.394  -6.688   1.024  0.00  0.00    -0.220 A 
ENDBRANCH   1  12
BRANCH   5  20
ATOM     20  N   LIG    1        8.628   0.761   2.904  0.00  0.00    -0.630 N 
ATOM     21  C   LIG    1        9.821   1.617   2.828  0.00  0.00    +0.250 C 
ATOM     22  C   LIG    1       10.007   2.120   4.273  0.00  0.00    +0.250 C 
ATOM     23  N   LIG    1        8.904   1.487   5.011  0.00  0.00    -0.740 N 
ATOM     24  H   LIG    1        8.729   1.592   5.960  0.00  0.00    +0.430 HD
ATOM     25  C   LIG    1        8.180   0.742   4.166  0.00  0.00    +0.700 C 
ATOM     26  O   LIG    1        7.203   0.106   4.514  0.00  0.00    -0.580 OA
ENDBRANCH   5  20
TORSDOF 2
