REMARK  Name = ZINCpk00000kTiiJ.0
REMARK                            x       y       z     vdW  Elec       q    Type
REMARK                         _______ _______ _______ _____ _____    ______ ____
ROOT
ATOM      1  C   LIG    1       -0.910   0.310  -3.337  0.00  0.00    +0.100 C 
ATOM      2  C   LIG    1       -2.333   0.693  -2.858  0.00  0.00    +0.020 C 
ATOM      3  C   LIG    1       -2.133   0.912  -1.338  0.00  0.00    +0.170 C 
ATOM      4  C   LIG    1       -0.753   1.593  -1.232  0.00  0.00    +0.010 C 
ATOM      5  C   LIG    1        0.025   1.210  -2.503  0.00  0.00    +0.060 C 
ENDROOT
BRANCH   1  13
ATOM      6  C   LIG    1       -1.514  -1.644  -5.678  0.00  0.00    +0.350 C 
ATOM      7  N   LIG    1       -1.020  -0.273  -5.830  0.00  0.00    -0.550 N 
ATOM      8  C   LIG    1       -0.756   0.345  -6.999  0.00  0.00    +0.650 A 
ATOM      9  N   LIG    1       -0.326   1.591  -6.708  0.00  0.00    -0.550 N 
ATOM     10  H   LIG    1       -0.060   2.271  -7.346  0.00  0.00    +0.460 HD
ATOM     11  N   LIG    1       -0.339   1.721  -5.312  0.00  0.00    -0.270 NA
ATOM     12  O   LIG    1       -0.882  -0.133  -8.112  0.00  0.00    -0.550 OA
ATOM     13  C   LIG    1       -0.750   0.602  -4.807  0.00  0.00    +0.290 A 
ENDBRANCH   1  13
BRANCH   3  14
ATOM     14  O   LIG    1       -2.129  -0.339  -0.648  0.00  0.00    -0.550 OA
ATOM     15  H   LIG    1       -2.972  -0.810  -0.682  0.00  0.00    +0.380 HD
ENDBRANCH   3  14
BRANCH   4  16
ATOM     16  C   LIG    1       -0.013   1.086   0.008  0.00  0.00    +0.280 C 
BRANCH  16  17
ATOM     17  N   LIG    1       -0.698   1.558   1.213  0.00  0.00    -0.710 N 
ATOM     18  H   LIG    1       -1.495   2.106   1.135  0.00  0.00    +0.410 HD
BRANCH  17  19
ATOM     19  C   LIG    1       -0.207   1.222   2.469  0.00  0.00    +0.410 A 
ATOM     20  C   LIG    1        0.933   0.432   2.575  0.00  0.00    -0.070 A 
ATOM     21  C   LIG    1        1.414   0.109   3.831  0.00  0.00    +0.120 A 
ATOM     22  C   LIG    1        0.730   0.580   4.944  0.00  0.00    -0.040 A 
ATOM     23  C   LIG    1       -0.398   1.356   4.766  0.00  0.00    +0.090 A 
ATOM     24  N   LIG    1       -0.831   1.652   3.555  0.00  0.00    -0.510 NA
BRANCH  23  25
ATOM     25  C   LIG    1       -1.145   1.870   5.969  0.00  0.00    +0.520 C 
ATOM     26  F   LIG    1       -0.332   2.762   6.676  0.00  0.00    -0.170 F 
ATOM     27  F   LIG    1       -1.490   0.797   6.798  0.00  0.00    -0.170 F 
ATOM     28  F   LIG    1       -2.306   2.529   5.551  0.00  0.00    -0.160 F 
ENDBRANCH  23  25
ENDBRANCH  17  19
ENDBRANCH  16  17
ENDBRANCH   4  16
TORSDOF 6
