REMARK  Name = ZINCkj000005kraU.0
REMARK                            x       y       z     vdW  Elec       q    Type
REMARK                         _______ _______ _______ _____ _____    ______ ____
ROOT
ATOM      1  N   LIG    1       -2.029   1.243  -1.416  0.00  0.00    -0.690 N 
ATOM      2  H   LIG    1       -2.487   0.676  -0.776  0.00  0.00    +0.410 HD
ATOM      3  C   LIG    1       -0.742   1.585  -1.213  0.00  0.00    +0.500 C 
ATOM      4  O   LIG    1       -0.169   2.295  -2.013  0.00  0.00    -0.530 OA
ENDROOT
BRANCH   3   5
ATOM      5  C   LIG    1       -0.013   1.086   0.008  0.00  0.00    +0.180 C 
ATOM      6  C   LIG    1       -0.729   1.579   1.267  0.00  0.00    +0.120 C 
BRANCH   5   7
ATOM      7  N   LIG    1        1.365   1.594  -0.002  0.00  0.00    -0.470 N 
ATOM      8  H   LIG    1        1.354   2.599   0.086  0.00  0.00    +0.430 HD
ATOM      9  H   LIG    1        1.812   1.338  -0.870  0.00  0.00    +0.440 HD
BRANCH   7  10
ATOM     10  C   LIG    1        2.111   1.012   1.122  0.00  0.00    +0.100 C 
ATOM     11  C   LIG    1        2.623   1.969   2.201  0.00  0.00    +0.100 C 
ATOM     12  C   LIG    1        3.605   1.328   1.218  0.00  0.00    +0.110 C 
ENDBRANCH   7  10
ENDBRANCH   5   7
ENDBRANCH   3   5
BRANCH   1  13
ATOM     13  C   LIG    1       -2.738   1.728  -2.603  0.00  0.00    +0.410 C 
BRANCH  13  19
ATOM     14  C   LIG    1       -9.977   0.389  -1.953  0.00  0.00    +0.120 C 
ATOM     15  C   LIG    1       -8.518   0.210  -2.284  0.00  0.00    -0.090 A 
ATOM     16  C   LIG    1       -7.639   1.193  -1.999  0.00  0.00    +0.210 A 
ATOM     17  N   LIG    1       -6.314   1.047  -2.291  0.00  0.00    -0.360 N 
ATOM     18  C   LIG    1       -5.230   1.862  -2.109  0.00  0.00    +0.120 A 
ATOM     19  C   LIG    1       -4.152   1.207  -2.592  0.00  0.00    +0.020 A 
ATOM     20  N   LIG    1       -4.547   0.017  -3.052  0.00  0.00    -0.480 NA
ATOM     21  C   LIG    1       -5.856  -0.103  -2.881  0.00  0.00    +0.230 A 
ATOM     22  C   LIG    1       -6.761  -1.139  -3.185  0.00  0.00    +0.080 A 
ATOM     23  C   LIG    1       -8.079  -0.980  -2.888  0.00  0.00    +0.060 A 
ENDBRANCH  13  19
ENDBRANCH   1  13
TORSDOF 5
