REMARK  Name = ZINCtV000002I1Mf.0
REMARK                            x       y       z     vdW  Elec       q    Type
REMARK                         _______ _______ _______ _____ _____    ______ ____
ROOT
ATOM      1  C   LIG    1        2.858  -2.115  -0.036  0.00  0.00    +0.280 A 
ATOM      2  N   LIG    1        1.562  -1.998  -0.023  0.00  0.00    -0.470 NA
ATOM      3  C   LIG    1        1.223  -0.684  -0.013  0.00  0.00    +0.040 A 
ATOM      4  C   LIG    1        0.002  -0.004   0.002  0.00  0.00    +0.070 A 
ATOM      5  C   LIG    1       -0.017   1.362   0.009  0.00  0.00    +0.000 A 
ATOM      6  C   LIG    1        1.167   2.086   0.002  0.00  0.00    +0.030 A 
ATOM      7  C   LIG    1        2.383   1.437  -0.014  0.00  0.00    +0.010 A 
ATOM      8  C   LIG    1        2.422   0.049  -0.021  0.00  0.00    +0.060 A 
ATOM      9  N   LIG    1        3.439  -0.884  -0.035  0.00  0.00    -0.470 N 
ENDROOT
BRANCH   1  10
ATOM     10  C   LIG    1        3.607  -3.423  -0.049  0.00  0.00    +0.320 C 
BRANCH  10  11
ATOM     11  O   LIG    1        3.832  -3.830  -1.400  0.00  0.00    -0.300 OA
BRANCH  11  16
ATOM     12  C   LIG    1        6.599  -8.672  -2.186  0.00  0.00    +0.100 C 
ATOM     13  C   LIG    1        5.859  -7.376  -1.976  0.00  0.00    -0.120 A 
ATOM     14  C   LIG    1        5.431  -6.641  -3.066  0.00  0.00    +0.050 A 
ATOM     15  C   LIG    1        4.752  -5.453  -2.876  0.00  0.00    -0.010 A 
ATOM     16  C   LIG    1        4.500  -4.998  -1.590  0.00  0.00    +0.120 A 
ATOM     17  C   LIG    1        4.935  -5.734  -0.497  0.00  0.00    -0.080 A 
ATOM     18  C   LIG    1        5.608  -6.925  -0.693  0.00  0.00    +0.050 A 
ENDBRANCH  11  16
ENDBRANCH  10  11
ENDBRANCH   1  10
BRANCH   9  19
ATOM     19  C   LIG    1        4.876  -0.603  -0.048  0.00  0.00    +0.350 C 
BRANCH  19  20
ATOM     20  C   LIG    1        5.355  -0.499  -1.473  0.00  0.00    -0.130 A 
ATOM     21  C   LIG    1        5.810  -1.625  -2.133  0.00  0.00    +0.040 A 
ATOM     22  C   LIG    1        6.245  -1.531  -3.442  0.00  0.00    +0.010 A 
ATOM     23  C   LIG    1        6.235  -0.309  -4.087  0.00  0.00    -0.050 A 
ATOM     24  C   LIG    1        5.784   0.819  -3.425  0.00  0.00    +0.000 A 
ATOM     25  C   LIG    1        5.345   0.723  -2.118  0.00  0.00    +0.030 A 
BRANCH  23  26
ATOM     26  C   LIG    1        6.715  -0.205  -5.512  0.00  0.00    -0.030 C 
ATOM     27  C   LIG    1        5.579   0.314  -6.396  0.00  0.00    +0.040 C 
ATOM     28  C   LIG    1        7.154  -1.585  -6.004  0.00  0.00    +0.030 C 
ATOM     29  C   LIG    1        7.898   0.763  -5.582  0.00  0.00    +0.040 C 
ENDBRANCH  23  26
ENDBRANCH  19  20
ENDBRANCH   9  19
TORSDOF 6
