REMARK  Name = ZINCrD00000l1SUc.0
REMARK                            x       y       z     vdW  Elec       q    Type
REMARK                         _______ _______ _______ _____ _____    ______ ____
ROOT
ATOM      1  C   LIG    1       -4.748   2.768   2.161  0.00  0.00    +0.150 C 
ATOM      2  C   LIG    1       -4.617   3.979   1.236  0.00  0.00    +0.070 C 
ENDROOT
BRANCH   1   3
ATOM      3  C   LIG    1       -3.568   2.720   3.098  0.00  0.00    +0.420 C 
ATOM      4  O   LIG    1       -3.702   3.043   4.260  0.00  0.00    -0.420 OA
BRANCH   3   9
ATOM      5  C   LIG    1       -0.134   1.750   2.494  0.00  0.00    -0.260 A 
ATOM      6  C   LIG    1       -0.717   1.577   1.246  0.00  0.00    +0.120 A 
ATOM      7  N   LIG    1       -2.011   1.913   1.328  0.00  0.00    -0.520 N 
ATOM      8  H   LIG    1       -2.645   1.886   0.594  0.00  0.00    +0.420 HD
ATOM      9  C   LIG    1       -2.303   2.299   2.621  0.00  0.00    -0.100 A 
ATOM     10  C   LIG    1       -0.009   1.098   0.005  0.00  0.00    +0.160 C 
ATOM     11  C   LIG    1       -1.147   2.210   3.365  0.00  0.00    -0.010 A 
ATOM     12  C   LIG    1       -0.993   2.538   4.828  0.00  0.00    +0.140 C 
BRANCH   5  14
ATOM     13  C   LIG    1        1.715   0.115   3.228  0.00  0.00    +0.070 C 
ATOM     14  C   LIG    1        1.269   1.502   2.842  0.00  0.00    +0.430 C 
ATOM     15  O   LIG    1        2.070   2.413   2.820  0.00  0.00    -0.450 OA
ENDBRANCH   5  14
ENDBRANCH   3   9
ENDBRANCH   1   3
BRANCH   1  16
ATOM     16  O   LIG    1       -5.973   2.878   2.933  0.00  0.00    -0.330 OA
BRANCH  16  17
ATOM     17  C   LIG    1       -7.079   2.334   2.400  0.00  0.00    +0.470 C 
ATOM     18  O   LIG    1       -7.025   1.785   1.325  0.00  0.00    -0.500 OA
BRANCH  17  19
ATOM     19  C   LIG    1       -8.390   2.410   3.144  0.00  0.00    +0.020 C 
ATOM     20  C   LIG    1       -8.233   1.735   4.506  0.00  0.00    +0.070 C 
ATOM     21  C   LIG    1       -9.552   1.828   5.284  0.00  0.00    -0.020 C 
ATOM     22  C   LIG    1      -10.067   0.410   5.559  0.00  0.00    +0.040 C 
ATOM     23  C   LIG    1      -10.288  -0.332   4.243  0.00  0.00    +0.010 C 
ATOM     24  C   LIG    1      -11.310   0.392   3.370  0.00  0.00    +0.040 C 
ATOM     25  C   LIG    1      -10.819   1.811   3.053  0.00  0.00    -0.020 C 
ATOM     26  C   LIG    1      -10.566   2.510   4.379  0.00  0.00    +0.370 C 
ATOM     27  O   LIG    1      -11.129   3.532   4.690  0.00  0.00    -0.440 OA
ATOM     28  C   LIG    1       -9.475   1.719   2.319  0.00  0.00    +0.070 C 
ENDBRANCH  17  19
ENDBRANCH  16  17
ENDBRANCH   1  16
TORSDOF 6
