REMARK  Name = ZINCtV00001bB3TT.0
REMARK                            x       y       z     vdW  Elec       q    Type
REMARK                         _______ _______ _______ _____ _____    ______ ____
ROOT
ATOM      1  C   LIG    1        4.961  -4.008  -0.071  0.00  0.00    +0.550 C 
ATOM      2  N   LIG    1        4.939  -2.660  -0.063  0.00  0.00    -0.580 N 
ATOM      3  H   LIG    1        5.771  -2.161  -0.068  0.00  0.00    +0.390 HD
ATOM      4  O   LIG    1        3.920  -4.631  -0.065  0.00  0.00    -0.480 OA
ENDROOT
BRANCH   2   5
ATOM      5  N   LIG    1        3.714  -1.980  -0.046  0.00  0.00    -0.230 NA
ATOM      6  C   LIG    1        3.693  -0.682  -0.038  0.00  0.00    +0.140 C 
ATOM      7  C   LIG    1        4.986   0.092  -0.047  0.00  0.00    +0.090 C 
BRANCH   6   8
ATOM      8  C   LIG    1        2.404   0.034  -0.021  0.00  0.00    -0.060 A 
ATOM      9  C   LIG    1        1.204  -0.681  -0.014  0.00  0.00    +0.060 A 
ATOM     10  C   LIG    1        0.002  -0.004   0.002  0.00  0.00    +0.010 A 
ATOM     11  C   LIG    1       -0.017   1.379   0.010  0.00  0.00    -0.060 A 
ATOM     12  C   LIG    1        1.168   2.094   0.002  0.00  0.00    +0.010 A 
ATOM     13  C   LIG    1        2.377   1.431  -0.013  0.00  0.00    +0.040 A 
BRANCH  11  14
ATOM     14  C   LIG    1       -1.334   2.111   0.020  0.00  0.00    +0.030 C 
ATOM     15  C   LIG    1       -1.435   2.997  -1.224  0.00  0.00    +0.010 C 
ATOM     16  C   LIG    1       -2.772   3.740  -1.214  0.00  0.00    +0.000 C 
ATOM     17  C   LIG    1       -2.862   4.611   0.041  0.00  0.00    +0.000 C 
ATOM     18  C   LIG    1       -2.761   3.726   1.285  0.00  0.00    +0.000 C 
ATOM     19  C   LIG    1       -1.423   2.983   1.274  0.00  0.00    +0.010 C 
ENDBRANCH  11  14
ENDBRANCH   6   8
ENDBRANCH   2   5
BRANCH   1  20
ATOM     20  C   LIG    1        6.278  -4.740  -0.089  0.00  0.00    +0.080 C 
BRANCH  20  21
ATOM     21  S   LIG    1        5.976  -6.528  -0.097  0.00  0.00    +0.000 S 
BRANCH  21  30
ATOM     22  C   LIG    1        6.588  -9.501  -0.119  0.00  0.00    +0.120 C 
ATOM     23  C   LIG    1        7.783  -8.583  -0.127  0.00  0.00    -0.060 A 
ATOM     24  C   LIG    1        9.059  -9.110  -0.143  0.00  0.00    +0.070 A 
ATOM     25  C   LIG    1       10.157  -8.268  -0.150  0.00  0.00    -0.100 A 
ATOM     26  C   LIG    1        9.981  -6.896  -0.139  0.00  0.00    -0.040 A 
ATOM     27  C   LIG    1        8.707  -6.362  -0.129  0.00  0.00    +0.000 A 
ATOM     28  C   LIG    1       11.179  -5.983  -0.146  0.00  0.00    +0.100 C 
ATOM     29 BR   LIG    1       11.903  -8.995  -0.172  0.00  0.00    -0.040 Br
ATOM     30  C   LIG    1        7.602  -7.205  -0.117  0.00  0.00    -0.090 A 
ENDBRANCH  21  30
ENDBRANCH  20  21
ENDBRANCH   1  20
TORSDOF 6
