REMARK  Name = ZINCpk00000e97Gc.0
REMARK                            x       y       z     vdW  Elec       q    Type
REMARK                         _______ _______ _______ _____ _____    ______ ____
ROOT
ATOM      1  C   LIG    1       -1.350   0.643  -2.077  0.00  0.00    +0.510 C 
ATOM      2  N   LIG    1       -0.962   1.438  -1.061  0.00  0.00    -0.600 N 
ATOM      3  C   LIG    1       -0.463   0.859   0.194  0.00  0.00    +0.290 C 
ATOM      4  C   LIG    1       -1.265   1.441   1.362  0.00  0.00    +0.040 C 
ATOM      5  C   LIG    1       -1.206   2.970   1.304  0.00  0.00    +0.100 C 
ATOM      6  C   LIG    1       -1.828   3.460  -0.005  0.00  0.00    +0.040 C 
ATOM      7  C   LIG    1       -1.030   2.900  -1.186  0.00  0.00    +0.270 C 
ATOM      8  O   LIG    1       -1.205  -0.559  -1.997  0.00  0.00    -0.510 OA
ENDROOT
BRANCH   5   9
ATOM      9  C   LIG    1       -1.968   3.546   2.470  0.00  0.00    +0.200 A 
ATOM     10  N   LIG    1       -3.235   3.370   2.729  0.00  0.00    -0.280 NA
ATOM     11  N   LIG    1       -3.551   4.008   3.799  0.00  0.00    -0.280 NA
ATOM     12  C   LIG    1       -2.498   4.622   4.271  0.00  0.00    +0.160 A 
ATOM     13  C   LIG    1       -2.031   5.519   5.396  0.00  0.00    +0.160 C 
ATOM     14  C   LIG    1       -0.680   6.082   4.899  0.00  0.00    +0.070 C 
ATOM     15  C   LIG    1       -0.231   4.992   3.903  0.00  0.00    +0.300 C 
ATOM     16  N   LIG    1       -1.464   4.340   3.447  0.00  0.00    -0.490 N 
ENDBRANCH   5   9
BRANCH   1  17
ATOM     17  C   LIG    1       -1.966   1.246  -3.313  0.00  0.00    +0.270 C 
BRANCH  17  18
ATOM     18  N   LIG    1       -3.397   1.463  -3.090  0.00  0.00    -0.370 N 
ATOM     19  C   LIG    1       -4.228   0.685  -2.374  0.00  0.00    +0.480 A 
ATOM     20  N   LIG    1       -5.421   1.220  -2.416  0.00  0.00    -0.540 NA
ATOM     21  C   LIG    1       -5.394   2.330  -3.152  0.00  0.00    +0.420 A 
ATOM     22  N   LIG    1       -4.176   2.521  -3.587  0.00  0.00    -0.310 NA
ENDBRANCH  17  18
BRANCH  17  24
ATOM     23  C   LIG    1       -2.520   0.838  -5.715  0.00  0.00    +0.040 C 
ATOM     24  C   LIG    1       -1.772   0.295  -4.496  0.00  0.00    -0.010 C 
ATOM     25  C   LIG    1       -0.281   0.182  -4.821  0.00  0.00    +0.040 C 
ENDBRANCH  17  24
ENDBRANCH   1  17
TORSDOF 4
