REMARK  Name = ZINCpk000000oTjZ.0
REMARK                            x       y       z     vdW  Elec       q    Type
REMARK                         _______ _______ _______ _____ _____    ______ ____
ROOT
ATOM      1  C   LIG    1       -0.871   3.119  -1.140  0.00  0.00    +0.030 C 
ATOM      2  C   LIG    1       -0.730   1.598  -1.224  0.00  0.00    +0.050 C 
ATOM      3  C   LIG    1        0.008   1.088   0.018  0.00  0.00    +0.310 C 
ATOM      4  N   LIG    1       -0.695   1.564   1.218  0.00  0.00    -0.620 N 
ATOM      5  C   LIG    1       -0.967   3.002   1.353  0.00  0.00    +0.270 C 
ATOM      6  C   LIG    1       -1.086   0.697   2.173  0.00  0.00    +0.710 C 
ATOM      7  N   LIG    1       -1.635   1.156   3.315  0.00  0.00    -0.690 N 
ATOM      8  H   LIG    1       -1.819   2.103   3.419  0.00  0.00    +0.410 HD
ATOM      9  O   LIG    1       -0.945  -0.498   2.004  0.00  0.00    -0.560 OA
ATOM     10  C   LIG    1       -1.694   3.490   0.096  0.00  0.00    +0.050 C 
ENDROOT
BRANCH   7  11
ATOM     11  C   LIG    1       -1.938   0.267   4.353  0.00  0.00    +0.180 A 
ATOM     12  C   LIG    1       -3.052   0.486   5.153  0.00  0.00    +0.020 A 
ATOM     13  C   LIG    1       -3.354  -0.394   6.172  0.00  0.00    +0.040 A 
ATOM     14  C   LIG    1       -2.538  -1.493   6.405  0.00  0.00    +0.110 A 
ATOM     15  C   LIG    1       -1.421  -1.709   5.610  0.00  0.00    +0.070 A 
ATOM     16  C   LIG    1       -1.122  -0.832   4.587  0.00  0.00    +0.050 A 
BRANCH  14  17
ATOM     17  N   LIG    1       -2.842  -2.384   7.446  0.00  0.00    -0.320 N 
ATOM     18  C   LIG    1       -3.879  -2.315   8.308  0.00  0.00    +0.460 A 
ATOM     19  N   LIG    1       -3.787  -3.344   9.109  0.00  0.00    -0.330 NA
ATOM     20  N   LIG    1       -2.757  -4.053   8.818  0.00  0.00    -0.030 NA
ATOM     21  N   LIG    1       -2.128  -3.537   7.818  0.00  0.00    -0.080 NA
ENDBRANCH  14  17
ENDBRANCH   7  11
BRANCH   1  22
ATOM     22  C   LIG    1       -1.566   3.628  -2.376  0.00  0.00    +0.460 C 
ATOM     23  O   LIG    1       -1.913   2.853  -3.236  0.00  0.00    -0.500 OA
BRANCH  22  24
ATOM     24  O   LIG    1       -1.800   4.942  -2.522  0.00  0.00    -0.360 OA
BRANCH  24  26
ATOM     25  C   LIG    1       -2.652   6.880  -3.726  0.00  0.00    +0.070 C 
ATOM     26  C   LIG    1       -2.474   5.360  -3.739  0.00  0.00    +0.200 C 
ENDBRANCH  24  26
ENDBRANCH  22  24
ENDBRANCH   1  22
TORSDOF 5
