REMARK  Name = ZINCrD00000hQ4Kt.0
REMARK                            x       y       z     vdW  Elec       q    Type
REMARK                         _______ _______ _______ _____ _____    ______ ____
ROOT
ATOM      1  C   LIG    1        4.965   1.325  -0.293  0.00  0.00    +0.240 C 
ENDROOT
BRANCH   1   2
ATOM      2  C   LIG    1        6.107   2.219   0.115  0.00  0.00    +0.520 C 
ATOM      3  N   LIG    1        7.351   1.713   0.231  0.00  0.00    -0.600 N 
ATOM      4  C   LIG    1        7.630   0.320  -0.144  0.00  0.00    +0.270 C 
ATOM      5  C   LIG    1        8.307  -0.385   1.030  0.00  0.00    +0.020 C 
ATOM      6  C   LIG    1        9.543   0.411   1.456  0.00  0.00    +0.010 C 
ATOM      7  C   LIG    1        9.119   1.810   1.910  0.00  0.00    +0.160 C 
ATOM      8  C   LIG    1        8.452   2.542   0.741  0.00  0.00    +0.250 C 
ATOM      9  O   LIG    1        5.908   3.395   0.338  0.00  0.00    -0.530 OA
BRANCH   6  10
ATOM     10  C   LIG    1       10.240  -0.310   2.612  0.00  0.00    -0.060 C 
ATOM     11  C   LIG    1       11.559   0.396   2.931  0.00  0.00    +0.030 C 
ATOM     12  C   LIG    1       10.521  -1.760   2.212  0.00  0.00    +0.020 C 
ATOM     13  C   LIG    1        9.337  -0.287   3.847  0.00  0.00    +0.010 C 
ENDBRANCH   6  10
BRANCH   7  14
ATOM     14  O   LIG    1       10.269   2.542   2.337  0.00  0.00    -0.550 OA
ATOM     15  H   LIG    1       10.075   3.441   2.636  0.00  0.00    +0.370 HD
ENDBRANCH   7  14
ENDBRANCH   1   2
BRANCH   1  16
ATOM     16  N   LIG    1        3.736   1.771   0.369  0.00  0.00    -0.710 N 
ATOM     17  H   LIG    1        3.646   2.693   0.654  0.00  0.00    +0.410 HD
ATOM     18  C   LIG    1        2.731   0.898   0.582  0.00  0.00    +0.560 C 
ATOM     19  O   LIG    1        2.844  -0.258   0.224  0.00  0.00    -0.510 OA
BRANCH  18  20
ATOM     20  C   LIG    1        1.492   1.347   1.249  0.00  0.00    -0.130 A 
ATOM     21  C   LIG    1        1.358   2.674   1.662  0.00  0.00    +0.060 A 
ATOM     22  C   LIG    1        0.199   3.087   2.285  0.00  0.00    +0.020 A 
ATOM     23  C   LIG    1       -0.831   2.189   2.502  0.00  0.00    +0.060 A 
ATOM     24  C   LIG    1       -0.710   0.874   2.092  0.00  0.00    +0.020 A 
ATOM     25  C   LIG    1        0.448   0.445   1.472  0.00  0.00    +0.020 A 
ATOM     26 CL   LIG    1        0.602  -1.207   0.963  0.00  0.00    -0.030 Cl
ENDBRANCH  18  20
ENDBRANCH   1  16
BRANCH   1  28
ATOM     27  C   LIG    1        6.034   0.854  -2.502  0.00  0.00    +0.030 C 
ATOM     28  C   LIG    1        4.780   1.394  -1.810  0.00  0.00    -0.020 C 
ATOM     29  C   LIG    1        3.571   0.549  -2.216  0.00  0.00    +0.030 C 
ENDBRANCH   1  28
TORSDOF 6
