REMARK  Name = ZINCpe000000QNwY.0
REMARK                            x       y       z     vdW  Elec       q    Type
REMARK                         _______ _______ _______ _____ _____    ______ ____
ROOT
ATOM      1  C   LIG    1       -3.851   2.222   6.776  0.00  0.00    +0.520 C 
ATOM      2  N   LIG    1       -4.270   1.341   7.706  0.00  0.00    -0.530 N 
ATOM      3  H   LIG    1       -4.096   0.394   7.590  0.00  0.00    +0.430 HD
ATOM      4  O   LIG    1       -4.068   3.406   6.922  0.00  0.00    -0.510 OA
ENDROOT
BRANCH   2   5
ATOM      5  N   LIG    1       -4.956   1.793   8.841  0.00  0.00    -0.350 N 
ATOM      6  C   LIG    1       -4.272   2.407   9.841  0.00  0.00    +0.590 A 
ATOM      7  N   LIG    1       -4.836   2.858  10.920  0.00  0.00    -0.510 NA
ATOM      8  C   LIG    1       -6.171   2.735  11.130  0.00  0.00    +0.150 A 
ATOM      9  C   LIG    1       -6.777   3.215  12.292  0.00  0.00    +0.030 A 
ATOM     10  C   LIG    1       -8.136   3.068  12.463  0.00  0.00    +0.070 A 
ATOM     11  C   LIG    1       -8.912   2.447  11.493  0.00  0.00    +0.010 A 
ATOM     12  C   LIG    1       -8.336   1.965  10.337  0.00  0.00    +0.100 A 
ATOM     13  C   LIG    1       -6.964   2.104  10.145  0.00  0.00    -0.190 A 
ATOM     14  C   LIG    1       -6.294   1.610   8.932  0.00  0.00    +0.550 A 
ATOM     15  O   LIG    1       -6.919   1.057   8.046  0.00  0.00    -0.500 OA
ENDBRANCH   2   5
BRANCH   1  16
ATOM     16  C   LIG    1       -3.113   1.736   5.556  0.00  0.00    +0.090 C 
BRANCH  16  17
ATOM     17  C   LIG    1       -2.753   2.929   4.668  0.00  0.00    +0.140 C 
BRANCH  17  22
ATOM     18  C   LIG    1       -0.013   1.086   0.008  0.00  0.00    +0.190 C 
ATOM     19  C   LIG    1       -0.718   1.572   1.248  0.00  0.00    +0.400 A 
ATOM     20  N   LIG    1       -2.008   1.772   1.211  0.00  0.00    -0.540 NA
ATOM     21  C   LIG    1       -2.679   2.198   2.284  0.00  0.00    +0.190 A 
ATOM     22  C   LIG    1       -2.015   2.442   3.448  0.00  0.00    -0.270 A 
ATOM     23  C   LIG    1       -0.621   2.231   3.486  0.00  0.00    +0.530 A 
ATOM     24  O   LIG    1        0.012   2.437   4.508  0.00  0.00    -0.530 OA
ATOM     25  C   LIG    1       -4.169   2.413   2.207  0.00  0.00    +0.140 C 
ATOM     26  N   LIG    1       -0.003   1.795   2.368  0.00  0.00    -0.630 N 
ATOM     27  H   LIG    1        0.955   1.642   2.371  0.00  0.00    +0.420 HD
ENDBRANCH  17  22
ENDBRANCH  16  17
ENDBRANCH   1  16
TORSDOF 4
