REMARK  Name = ZINCtV000002q8wK.0
REMARK                            x       y       z     vdW  Elec       q    Type
REMARK                         _______ _______ _______ _____ _____    ______ ____
ROOT
ATOM      1  C   LIG    1       -1.192   1.741  -0.190  0.00  0.00    -0.070 A 
ATOM      2  C   LIG    1       -0.006   1.061   0.045  0.00  0.00    +0.020 A 
ATOM      3  C   LIG    1        1.207   1.767   0.038  0.00  0.00    +0.200 A 
ATOM      4  N   LIG    1        1.264   3.064  -0.180  0.00  0.00    -0.440 NA
ATOM      5  C   LIG    1        0.174   3.797  -0.410  0.00  0.00    +0.130 A 
ATOM      6  C   LIG    1        0.266   5.183  -0.640  0.00  0.00    +0.050 A 
ATOM      7  C   LIG    1       -0.865   5.905  -0.870  0.00  0.00    +0.030 A 
ATOM      8  C   LIG    1       -2.117   5.296  -0.883  0.00  0.00    +0.020 A 
ATOM      9  C   LIG    1       -2.245   3.956  -0.665  0.00  0.00    +0.060 A 
ATOM     10  C   LIG    1       -1.104   3.183  -0.424  0.00  0.00    -0.060 A 
ENDROOT
BRANCH   3  11
ATOM     11  C   LIG    1        2.468   1.027   0.285  0.00  0.00    -0.050 A 
ATOM     12  C   LIG    1        2.437  -0.346   0.524  0.00  0.00    +0.050 A 
ATOM     13  C   LIG    1        3.614  -1.031   0.749  0.00  0.00    +0.030 A 
ATOM     14  C   LIG    1        4.822  -0.355   0.746  0.00  0.00    -0.020 A 
ATOM     15  C   LIG    1        4.857   1.009   0.514  0.00  0.00    +0.030 A 
ATOM     16 CL   LIG    1        6.298  -1.222   1.036  0.00  0.00    -0.060 Cl
ATOM     17  C   LIG    1        3.687   1.703   0.284  0.00  0.00    +0.090 A 
ENDBRANCH   3  11
BRANCH   1  20
ATOM     18  N   LIG    1       -2.534  -0.304  -0.088  0.00  0.00    -0.660 N 
ATOM     19  H   LIG    1       -1.717  -0.804   0.062  0.00  0.00    +0.410 HD
ATOM     20  C   LIG    1       -2.493   1.039  -0.198  0.00  0.00    +0.570 C 
ATOM     21  O   LIG    1       -3.525   1.672  -0.303  0.00  0.00    -0.500 OA
BRANCH  18  26
ATOM     22  C   LIG    1       -5.038  -2.886  -0.902  0.00  0.00    -0.150 A 
ATOM     23  C   LIG    1       -6.194  -2.295  -0.385  0.00  0.00    +0.060 A 
ATOM     24  C   LIG    1       -6.124  -1.058   0.221  0.00  0.00    +0.030 A 
ATOM     25  C   LIG    1       -4.912  -0.401   0.325  0.00  0.00    +0.050 A 
ATOM     26  C   LIG    1       -3.756  -0.976  -0.191  0.00  0.00    +0.130 A 
ATOM     27  C   LIG    1       -3.814  -2.219  -0.802  0.00  0.00    +0.060 A 
BRANCH  22  29
ATOM     28  C   LIG    1       -6.430  -4.923  -1.656  0.00  0.00    +0.090 C 
ATOM     29  C   LIG    1       -5.109  -4.206  -1.550  0.00  0.00    +0.400 C 
ATOM     30  O   LIG    1       -4.104  -4.716  -1.998  0.00  0.00    -0.460 OA
ENDBRANCH  22  29
ENDBRANCH  18  26
ENDBRANCH   1  20
TORSDOF 4
