REMARK  Name = ZINCrD00000F5Lqe.0
REMARK                            x       y       z     vdW  Elec       q    Type
REMARK                         _______ _______ _______ _____ _____    ______ ____
ROOT
ATOM      1  C   LIG    1       -3.170   1.838  -1.133  0.00  0.00    +0.170 A 
ATOM      2  C   LIG    1       -3.365   3.165  -0.966  0.00  0.00    -0.040 A 
ATOM      3  C   LIG    1       -2.398   3.915  -0.138  0.00  0.00    +0.190 A 
ATOM      4  C   LIG    1       -1.138   3.202   0.198  0.00  0.00    -0.130 A 
ATOM      5  C   LIG    1       -0.050   3.872   0.739  0.00  0.00    +0.070 A 
ATOM      6  C   LIG    1        1.107   3.171   1.030  0.00  0.00    +0.070 A 
ATOM      7  C   LIG    1        1.175   1.809   0.781  0.00  0.00    +0.050 A 
ATOM      8  C   LIG    1        0.093   1.137   0.244  0.00  0.00    +0.040 A 
ATOM      9  F   LIG    1        2.172   3.814   1.558  0.00  0.00    -0.130 F 
ATOM     10  C   LIG    1       -1.073   1.826  -0.057  0.00  0.00    +0.130 A 
ATOM     11  N   LIG    1       -2.637   5.136   0.275  0.00  0.00    -0.230 NA
ATOM     12  O   LIG    1       -2.143   1.175  -0.566  0.00  0.00    -0.230 OA
ENDROOT
BRANCH  11  13
ATOM     13  N   LIG    1       -1.774   5.745   1.196  0.00  0.00    -0.580 N 
ATOM     14  C   LIG    1       -0.956   6.904   0.810  0.00  0.00    +0.290 C 
ATOM     15  C   LIG    1       -1.174   8.015   1.850  0.00  0.00    +0.160 C 
ATOM     16  N   LIG    1       -0.903   7.484   3.192  0.00  0.00    -0.540 NA
ATOM     17  C   LIG    1       -1.845   6.411   3.540  0.00  0.00    +0.170 C 
ATOM     18  C   LIG    1       -0.929   8.554   4.198  0.00  0.00    +0.200 C 
ATOM     19  C   LIG    1       -1.658   5.238   2.572  0.00  0.00    +0.270 C 
ENDBRANCH  11  13
BRANCH   1  23
ATOM     20  C   LIG    1       -5.906  -0.334  -3.548  0.00  0.00    +0.150 A 
ATOM     21  C   LIG    1       -4.838  -0.990  -2.950  0.00  0.00    -0.010 A 
ATOM     22  C   LIG    1       -3.947  -0.290  -2.165  0.00  0.00    +0.100 A 
ATOM     23  C   LIG    1       -4.120   1.083  -1.972  0.00  0.00    -0.100 A 
ATOM     24  C   LIG    1       -5.199   1.739  -2.571  0.00  0.00    +0.100 A 
ATOM     25  C   LIG    1       -6.081   1.031  -3.358  0.00  0.00    -0.070 A 
BRANCH  20  27
ATOM     26  C   LIG    1       -7.856  -0.291  -4.906  0.00  0.00    +0.240 C 
ATOM     27  O   LIG    1       -6.781  -1.028  -4.321  0.00  0.00    -0.310 OA
ENDBRANCH  20  27
ENDBRANCH   1  23
TORSDOF 3
