REMARK  Name = ZINCtV000002HaCj.0
REMARK                            x       y       z     vdW  Elec       q    Type
REMARK                         _______ _______ _______ _____ _____    ______ ____
ROOT
ATOM      1  N   LIG    1       -0.654   1.582   5.346  0.00  0.00    -0.410 N 
ATOM      2  C   LIG    1       -0.939   1.567   4.008  0.00  0.00    +0.170 A 
ATOM      3  N   LIG    1       -2.000   2.322   3.829  0.00  0.00    -0.280 NA
ATOM      4  N   LIG    1       -2.401   2.797   4.953  0.00  0.00    -0.260 NA
ATOM      5  C   LIG    1       -1.616   2.383   5.921  0.00  0.00    +0.240 A 
ENDROOT
BRANCH   1  10
ATOM      6  C   LIG    1        3.601  -1.099   7.977  0.00  0.00    +0.110 C 
ATOM      7  C   LIG    1        2.471  -0.387   7.279  0.00  0.00    -0.060 A 
ATOM      8  C   LIG    1        1.165  -0.784   7.499  0.00  0.00    +0.040 A 
ATOM      9  C   LIG    1        0.127  -0.130   6.864  0.00  0.00    +0.030 A 
ATOM     10  C   LIG    1        0.397   0.919   5.996  0.00  0.00    +0.100 A 
ATOM     11  C   LIG    1        1.710   1.316   5.777  0.00  0.00    +0.030 A 
ATOM     12  C   LIG    1        2.743   0.661   6.419  0.00  0.00    -0.070 A 
ATOM     13  C   LIG    1        4.168   1.091   6.182  0.00  0.00    +0.110 C 
ENDBRANCH   1  10
BRANCH   5  14
ATOM     14  C   LIG    1       -1.740   2.715   7.356  0.00  0.00    -0.020 A 
ATOM     15  C   LIG    1       -2.940   3.224   7.856  0.00  0.00    +0.070 A 
ATOM     16  C   LIG    1       -3.051   3.528   9.197  0.00  0.00    +0.010 A 
ATOM     17  C   LIG    1       -1.973   3.338  10.044  0.00  0.00    +0.030 A 
ATOM     18  C   LIG    1       -0.779   2.839   9.554  0.00  0.00    +0.010 A 
ATOM     19  C   LIG    1       -0.657   2.526   8.216  0.00  0.00    +0.030 A 
ENDBRANCH   5  14
BRANCH   2  20
ATOM     20  S   LIG    1       -0.047   0.704   2.758  0.00  0.00    +0.010 S 
BRANCH  20  21
ATOM     21  C   LIG    1       -1.015   1.170   1.302  0.00  0.00    +0.090 C 
BRANCH  21  22
ATOM     22  C   LIG    1       -0.410   0.518   0.057  0.00  0.00    +0.060 C 
BRANCH  22  23
ATOM     23  C   LIG    1       -1.228   0.912  -1.174  0.00  0.00    +0.090 C 
BRANCH  23  24
ATOM     24  C   LIG    1       -0.632   0.270  -2.401  0.00  0.00    -0.080 A 
ATOM     25  C   LIG    1        0.339   0.935  -3.126  0.00  0.00    +0.000 A 
ATOM     26  C   LIG    1        0.889   0.344  -4.248  0.00  0.00    +0.000 A 
ATOM     27  C   LIG    1        0.461  -0.907  -4.650  0.00  0.00    +0.000 A 
ATOM     28  C   LIG    1       -0.513  -1.570  -3.928  0.00  0.00    +0.000 A 
ATOM     29  C   LIG    1       -1.060  -0.981  -2.803  0.00  0.00    +0.000 A 
ENDBRANCH  23  24
ENDBRANCH  22  23
ENDBRANCH  21  22
ENDBRANCH  20  21
ENDBRANCH   2  20
TORSDOF 7
