REMARK  Name = ZINCpk000000pKNg.0
REMARK                            x       y       z     vdW  Elec       q    Type
REMARK                         _______ _______ _______ _____ _____    ______ ____
ROOT
ATOM      1  C   LIG    1       -1.031  -2.196  -0.493  0.00  0.00    +0.240 C 
ATOM      2  C   LIG    1       -0.856  -2.699   0.958  0.00  0.00    +0.170 C 
ATOM      3  S   LIG    1       -1.903  -4.215   0.945  0.00  0.00    -0.240 S 
ATOM      4  C   LIG    1       -3.105  -3.526  -0.268  0.00  0.00    +0.400 C 
ATOM      5  N   LIG    1       -2.253  -2.678  -1.119  0.00  0.00    -0.980 NA
ENDROOT
BRANCH   1   8
ATOM      6  N   LIG    1        0.002  -0.004   0.002  0.00  0.00    -0.720 N 
ATOM      7  H   LIG    1        0.773  -0.481   0.347  0.00  0.00    +0.400 HD
ATOM      8  C   LIG    1       -1.051  -0.690  -0.485  0.00  0.00    +0.500 C 
ATOM      9  O   LIG    1       -2.015  -0.094  -0.916  0.00  0.00    -0.500 OA
BRANCH   6  10
ATOM     10  C   LIG    1       -0.018   1.461   0.010  0.00  0.00    +0.230 C 
ATOM     11  C   LIG    1       -0.734   1.954   1.269  0.00  0.00    +0.020 C 
BRANCH  10  13
ATOM     12  C   LIG    1        2.095   1.602  -1.317  0.00  0.00    +0.020 C 
ATOM     13  C   LIG    1        1.418   1.990  -0.001  0.00  0.00    +0.020 C 
ENDBRANCH  10  13
ENDBRANCH   6  10
ENDBRANCH   1   8
BRANCH   5  14
ATOM     14  S   LIG    1       -2.659  -2.300  -2.680  0.00  0.00    +2.700 S 
ATOM     15  O   LIG    1       -1.973  -1.096  -2.993  0.00  0.00    -0.920 OA
ATOM     16  O   LIG    1       -4.071  -2.437  -2.771  0.00  0.00    -0.940 OA
BRANCH  14  17
ATOM     17  C   LIG    1       -1.971  -3.549  -3.714  0.00  0.00    -0.660 A 
ATOM     18  C   LIG    1       -0.697  -3.391  -4.230  0.00  0.00    +0.120 A 
ATOM     19  C   LIG    1       -0.150  -4.367  -5.037  0.00  0.00    +0.070 A 
ATOM     20  C   LIG    1       -0.889  -5.512  -5.341  0.00  0.00    -0.070 A 
ATOM     21  C   LIG    1       -2.176  -5.663  -4.822  0.00  0.00    +0.080 A 
ATOM     22  C   LIG    1       -2.709  -4.681  -4.012  0.00  0.00    +0.120 A 
BRANCH  20  23
ATOM     23  C   LIG    1       -0.312  -6.559  -6.209  0.00  0.00    +0.500 C 
ATOM     24  O   LIG    1       -0.958  -7.554  -6.472  0.00  0.00    -0.490 OA
BRANCH  23  25
ATOM     25  O   LIG    1        0.930  -6.410  -6.709  0.00  0.00    -0.350 OA
ATOM     26  C   LIG    1        1.433  -7.479  -7.554  0.00  0.00    +0.290 C 
ENDBRANCH  23  25
ENDBRANCH  20  23
ENDBRANCH  14  17
ENDBRANCH   5  14
TORSDOF 7
