REMARK  Name = ZINCpe00000MJK2L.0
REMARK                            x       y       z     vdW  Elec       q    Type
REMARK                         _______ _______ _______ _____ _____    ______ ____
ROOT
ATOM      1  C   LIG    1        7.009   2.069   1.560  0.00  0.00    +0.530 C 
ATOM      2  N   LIG    1        5.958   1.857   0.744  0.00  0.00    -0.620 N 
ATOM      3  C   LIG    1        6.003   1.841  -0.725  0.00  0.00    +0.250 C 
ATOM      4  C   LIG    1        4.564   1.590  -1.226  0.00  0.00    +0.060 C 
ATOM      5  C   LIG    1        3.695   2.042  -0.022  0.00  0.00    +0.050 C 
ATOM      6  C   LIG    1        4.572   1.604   1.177  0.00  0.00    +0.280 C 
ATOM      7  O   LIG    1        6.855   2.062   2.763  0.00  0.00    -0.520 OA
ENDROOT
BRANCH   5   8
ATOM      8  C   LIG    1        2.370   1.324  -0.013  0.00  0.00    +0.240 A 
ATOM      9  C   LIG    1        1.208   2.038   0.002  0.00  0.00    -0.190 A 
ATOM     10  C   LIG    1       -0.016   1.346   0.009  0.00  0.00    +0.540 A 
ATOM     11  N   LIG    1        0.002  -0.004   0.002  0.00  0.00    -0.650 N 
ATOM     12  H   LIG    1       -0.830  -0.502   0.007  0.00  0.00    +0.410 HD
ATOM     13  C   LIG    1        1.192  -0.663  -0.013  0.00  0.00    +0.640 A 
ATOM     14  O   LIG    1       -1.074   1.953   0.018  0.00  0.00    -0.540 OA
ATOM     15  N   LIG    1        2.335  -0.007  -0.020  0.00  0.00    -0.590 NA
BRANCH  13  16
ATOM     16  N   LIG    1        1.202  -2.032  -0.020  0.00  0.00    -0.590 N 
ATOM     17  C   LIG    1       -0.061  -2.775  -0.011  0.00  0.00    +0.300 C 
ATOM     18  C   LIG    1        2.477  -2.755  -0.036  0.00  0.00    +0.330 C 
ENDBRANCH  13  16
ENDBRANCH   5   8
BRANCH   1  19
ATOM     19  C   LIG    1        8.377   2.317   0.977  0.00  0.00    +0.150 C 
BRANCH  19  24
ATOM     20  C   LIG    1       11.757   1.457   4.688  0.00  0.00    +0.160 C 
ATOM     21  C   LIG    1       10.848   2.164   3.717  0.00  0.00    +0.070 A 
ATOM     22  N   LIG    1       10.690   3.459   3.618  0.00  0.00    -0.290 NA
ATOM     23  N   LIG    1        9.765   3.711   2.596  0.00  0.00    -0.370 N 
ATOM     24  C   LIG    1        9.368   2.523   2.093  0.00  0.00    +0.100 A 
ATOM     25  C   LIG    1        9.306   5.030   2.154  0.00  0.00    +0.340 C 
ATOM     26  C   LIG    1       10.026   1.550   2.767  0.00  0.00    -0.100 A 
ENDBRANCH  19  24
ENDBRANCH   1  19
TORSDOF 4
