REMARK  Name = ZINCtj00001n1k6j.0
REMARK                            x       y       z     vdW  Elec       q    Type
REMARK                         _______ _______ _______ _____ _____    ______ ____
ROOT
ATOM      1  N   LIG    1       -4.508  -0.113  -5.502  0.00  0.00    -0.390 N 
ATOM      2  C   LIG    1       -4.024  -1.011  -4.604  0.00  0.00    +0.440 A 
ATOM      3  N   LIG    1       -4.054  -2.218  -5.132  0.00  0.00    -0.510 NA
ATOM      4  C   LIG    1       -4.555  -2.162  -6.367  0.00  0.00    +0.340 A 
ATOM      5  N   LIG    1       -4.804  -3.115  -7.342  0.00  0.00    -0.510 N 
ATOM      6  C   LIG    1       -4.498  -4.524  -7.083  0.00  0.00    +0.350 C 
ATOM      7  C   LIG    1       -5.326  -2.747  -8.527  0.00  0.00    +0.710 A 
ATOM      8  O   LIG    1       -5.538  -3.596  -9.371  0.00  0.00    -0.520 OA
ATOM      9  N   LIG    1       -5.618  -1.463  -8.800  0.00  0.00    -0.650 N 
ATOM     10  H   LIG    1       -5.993  -1.232  -9.665  0.00  0.00    +0.440 HD
ATOM     11  C   LIG    1       -5.397  -0.492  -7.890  0.00  0.00    +0.600 A 
ATOM     12  O   LIG    1       -5.667   0.668  -8.150  0.00  0.00    -0.500 OA
ATOM     13  C   LIG    1       -4.854  -0.831  -6.639  0.00  0.00    -0.140 A 
ENDROOT
BRANCH   2  14
ATOM     14  N   LIG    1       -3.569  -0.707  -3.342  0.00  0.00    -0.460 N 
ATOM     15  C   LIG    1       -3.511  -1.909  -2.498  0.00  0.00    +0.280 C 
ATOM     16  C   LIG    1       -3.058  -1.519  -1.089  0.00  0.00    +0.290 C 
ATOM     17  N   LIG    1       -1.735  -0.884  -1.159  0.00  0.00    -0.390 N 
ATOM     18  C   LIG    1       -1.814   0.328  -1.984  0.00  0.00    +0.280 C 
ATOM     19  H   LIG    1       -1.075  -1.528  -1.569  0.00  0.00    +0.420 HD
ATOM     20  C   LIG    1       -2.257  -0.046  -3.400  0.00  0.00    +0.230 C 
BRANCH  17  21
ATOM     21  C   LIG    1       -1.293  -0.526   0.196  0.00  0.00    +0.330 C 
BRANCH  21  22
ATOM     22  C   LIG    1        0.114   0.011   0.139  0.00  0.00    -0.160 A 
ATOM     23  C   LIG    1        0.330   1.365  -0.039  0.00  0.00    +0.030 A 
ATOM     24  C   LIG    1        1.621   1.858  -0.091  0.00  0.00    +0.030 A 
ATOM     25  C   LIG    1        2.695   0.997   0.035  0.00  0.00    +0.060 A 
ATOM     26  C   LIG    1        2.479  -0.357   0.214  0.00  0.00    +0.030 A 
ATOM     27  C   LIG    1        1.188  -0.850   0.266  0.00  0.00    +0.040 A 
ENDBRANCH  21  22
ENDBRANCH  17  21
ENDBRANCH   2  14
BRANCH   1  28
ATOM     28  C   LIG    1       -4.639   1.333  -5.309  0.00  0.00    +0.360 C 
BRANCH  28  30
ATOM     29  C   LIG    1       -5.958   1.783  -3.304  0.00  0.00    +0.060 C 
ATOM     30  C   LIG    1       -5.938   1.631  -4.605  0.00  0.00    -0.150 C 
ATOM     31  C   LIG    1       -7.213   1.752  -5.398  0.00  0.00    +0.090 C 
ENDBRANCH  28  30
ENDBRANCH   1  28
TORSDOF 5
