REMARK  Name = ZINCrD0000074GP7.0
REMARK                            x       y       z     vdW  Elec       q    Type
REMARK                         _______ _______ _______ _____ _____    ______ ____
ROOT
ATOM      1  N   LIG    1        1.315   7.931   2.122  0.00  0.00    -0.600 N 
ATOM      2  C   LIG    1        0.718   6.760   1.824  0.00  0.00    +0.540 C 
ATOM      3  O   LIG    1       -0.476   6.628   1.989  0.00  0.00    -0.520 OA
ATOM      4  C   LIG    1        2.757   8.090   1.923  0.00  0.00    +0.310 C 
ENDROOT
BRANCH   1   5
ATOM      5  C   LIG    1        0.520   9.044   2.647  0.00  0.00    +0.340 C 
BRANCH   5   8
ATOM      6  N   LIG    1       -0.196   9.898   4.855  0.00  0.00    -0.670 N 
ATOM      7  H   LIG    1       -0.722  10.569   4.393  0.00  0.00    +0.410 HD
ATOM      8  C   LIG    1        0.482   8.969   4.151  0.00  0.00    +0.500 C 
ATOM      9  O   LIG    1        1.061   8.074   4.729  0.00  0.00    -0.510 OA
BRANCH   6  14
ATOM     10  C   LIG    1        0.024   9.880  10.524  0.00  0.00    +0.100 C 
ATOM     11  C   LIG    1       -0.035   9.884   9.018  0.00  0.00    -0.100 A 
ATOM     12  C   LIG    1        1.075   9.508   8.284  0.00  0.00    +0.030 A 
ATOM     13  C   LIG    1        1.024   9.511   6.903  0.00  0.00    +0.010 A 
ATOM     14  C   LIG    1       -0.142   9.893   6.253  0.00  0.00    +0.140 A 
ATOM     15  C   LIG    1       -1.253  10.275   6.994  0.00  0.00    -0.010 A 
ATOM     16  C   LIG    1       -1.198  10.265   8.374  0.00  0.00    +0.030 A 
ENDBRANCH   6  14
ENDBRANCH   5   8
ENDBRANCH   1   5
BRANCH   2  17
ATOM     17  C   LIG    1        1.535   5.614   1.284  0.00  0.00    +0.090 C 
BRANCH  17  18
ATOM     18  S   LIG    1        0.456   4.192   0.985  0.00  0.00    +0.070 S 
BRANCH  18  19
ATOM     19  C   LIG    1        1.637   3.034   0.377  0.00  0.00    +0.170 A 
ATOM     20  N   LIG    1        2.922   3.256   0.226  0.00  0.00    -0.480 NA
ATOM     21  C   LIG    1        3.510   2.149  -0.259  0.00  0.00    +0.010 A 
ATOM     22  C   LIG    1        2.568   1.203  -0.413  0.00  0.00    -0.010 A 
ATOM     23  C   LIG    1        2.780  -0.199  -0.924  0.00  0.00    +0.140 C 
ATOM     24  C   LIG    1        4.976   1.993  -0.571  0.00  0.00    +0.140 C 
ATOM     25  N   LIG    1        1.372   1.758  -0.017  0.00  0.00    -0.410 N 
BRANCH  25  26
ATOM     26  C   LIG    1        0.064   1.099  -0.013  0.00  0.00    +0.200 C 
ATOM     27  C   LIG    1       -1.040   1.725   0.842  0.00  0.00    +0.060 C 
ATOM     28  C   LIG    1       -1.099   1.833  -0.684  0.00  0.00    +0.050 C 
ENDBRANCH  25  26
ENDBRANCH  18  19
ENDBRANCH  17  18
ENDBRANCH   2  17
TORSDOF 7
