REMARK  Name = ZINCqH0000003Hpd.0
REMARK                            x       y       z     vdW  Elec       q    Type
REMARK                         _______ _______ _______ _____ _____    ______ ____
ROOT
ATOM      1  C   LIG    1        6.048  -2.394   5.291  0.00  0.00    +0.350 C 
ENDROOT
BRANCH   1  11
ATOM      2  C   LIG    1        8.534  -2.567   5.025  0.00  0.00    +0.130 A 
ATOM      3  C   LIG    1        9.704  -3.312   5.004  0.00  0.00    -0.020 A 
ATOM      4  C   LIG    1        9.655  -4.674   5.204  0.00  0.00    -0.120 A 
ATOM      5  C   LIG    1        8.446  -5.318   5.428  0.00  0.00    +0.070 A 
ATOM      6  O   LIG    1        8.623  -6.660   5.584  0.00  0.00    -0.300 OA
ATOM      7  C   LIG    1        9.999  -6.922   5.907  0.00  0.00    +0.170 C 
ATOM      8  C   LIG    1       10.453  -8.253   5.306  0.00  0.00    +0.070 C 
ATOM      9  C   LIG    1        7.275  -4.564   5.454  0.00  0.00    +0.060 A 
ATOM     10  C   LIG    1       10.738  -5.736   5.244  0.00  0.00    +0.090 C 
ATOM     11  C   LIG    1        7.321  -3.200   5.258  0.00  0.00    -0.120 A 
BRANCH   2  12
ATOM     12  O   LIG    1        8.575  -1.223   4.824  0.00  0.00    -0.310 OA
BRANCH  12  14
ATOM     13  C   LIG    1        9.707   0.867   4.388  0.00  0.00    +0.070 C 
ATOM     14  C   LIG    1        9.860  -0.642   4.590  0.00  0.00    +0.170 C 
ENDBRANCH  12  14
ENDBRANCH   2  12
ENDBRANCH   1  11
BRANCH   1  15
ATOM     15  N   LIG    1        5.609  -2.120   3.921  0.00  0.00    -0.660 N 
ATOM     16  H   LIG    1        6.127  -2.450   3.170  0.00  0.00    +0.420 HD
BRANCH  15  17
ATOM     17  C   LIG    1        4.455  -1.390   3.697  0.00  0.00    +0.350 A 
ATOM     18  N   LIG    1        3.925  -1.064   2.537  0.00  0.00    -0.580 NA
ATOM     19  C   LIG    1        2.819  -0.358   2.570  0.00  0.00    +0.310 A 
ATOM     20  N   LIG    1        2.331  -0.045   3.735  0.00  0.00    -0.490 NA
ATOM     21  S   LIG    1        3.396  -0.716   4.877  0.00  0.00    +0.180 S 
BRANCH  19  22
ATOM     22  C   LIG    1        2.133   0.073   1.299  0.00  0.00    +0.100 C 
ATOM     23  C   LIG    1        0.718  -0.510   1.257  0.00  0.00    +0.010 C 
ATOM     24  C   LIG    1        0.002  -0.004   0.002  0.00  0.00    +0.210 C 
ATOM     25  O   LIG    1       -0.017   1.425   0.010  0.00  0.00    -0.380 OA
ATOM     26  C   LIG    1        1.279   2.026   0.001  0.00  0.00    +0.210 C 
ATOM     27  C   LIG    1        2.046   1.601   1.256  0.00  0.00    +0.010 C 
ENDBRANCH  19  22
ENDBRANCH  15  17
ENDBRANCH   1  15
TORSDOF 6
