REMARK  Name = ZINCqH00000389Sc.0
REMARK                            x       y       z     vdW  Elec       q    Type
REMARK                         _______ _______ _______ _____ _____    ______ ____
ROOT
ATOM      1  C   LIG    1       -1.232   3.146   0.013  0.00  0.00    -0.140 A 
ATOM      2  C   LIG    1       -1.214   1.748  -0.004  0.00  0.00    +0.120 A 
ATOM      3  C   LIG    1       -0.012   1.077  -0.023  0.00  0.00    -0.010 A 
ATOM      4  C   LIG    1        1.184   1.789  -0.037  0.00  0.00    +0.190 A 
ATOM      5  C   LIG    1        1.169   3.182  -0.025  0.00  0.00    -0.030 A 
ATOM      6  C   LIG    1       -0.029   3.858  -0.001  0.00  0.00    +0.180 A 
ENDROOT
BRANCH   4   7
ATOM      7  N   LIG    1        2.396   1.109  -0.061  0.00  0.00    -0.500 N 
ATOM      8  C   LIG    1        2.538   0.329  -1.300  0.00  0.00    +0.160 C 
ATOM      9  C   LIG    1        3.908  -0.354  -1.312  0.00  0.00    +0.240 C 
ATOM     10  O   LIG    1        4.040  -1.167  -0.142  0.00  0.00    -0.380 OA
ATOM     11  C   LIG    1        3.908  -0.439   1.082  0.00  0.00    +0.230 C 
ATOM     12  C   LIG    1        2.538   0.243   1.119  0.00  0.00    +0.160 C 
ENDBRANCH   4   7
BRANCH   1  15
ATOM     13  N   LIG    1       -3.677   3.179   0.051  0.00  0.00    -0.660 N 
ATOM     14  H   LIG    1       -3.668   2.212  -0.022  0.00  0.00    +0.410 HD
ATOM     15  C   LIG    1       -2.518   3.868   0.038  0.00  0.00    +0.570 C 
ATOM     16  O   LIG    1       -2.533   5.083   0.048  0.00  0.00    -0.500 OA
BRANCH  13  21
ATOM     17  C   LIG    1       -8.610   5.940   0.535  0.00  0.00    +0.100 C 
ATOM     18  C   LIG    1       -7.300   5.207   0.407  0.00  0.00    -0.090 A 
ATOM     19  C   LIG    1       -6.256   5.776  -0.299  0.00  0.00    +0.060 A 
ATOM     20  C   LIG    1       -5.052   5.110  -0.413  0.00  0.00    +0.040 A 
ATOM     21  C   LIG    1       -4.893   3.860   0.171  0.00  0.00    +0.160 A 
ATOM     22  C   LIG    1       -5.944   3.290   0.880  0.00  0.00    -0.110 A 
ATOM     23 BR   LIG    1       -5.732   1.592   1.685  0.00  0.00    -0.040 Br
ATOM     24  C   LIG    1       -7.144   3.965   0.996  0.00  0.00    +0.070 A 
ENDBRANCH  13  21
ENDBRANCH   1  15
BRANCH   5  25
ATOM     25  N   LIG    1        2.443   3.935  -0.040  0.00  0.00    +0.030 N 
ATOM     26  O   LIG    1        3.504   3.337  -0.062  0.00  0.00    -0.090 OA
ATOM     27  O   LIG    1        2.430   5.153  -0.030  0.00  0.00    -0.180 OA
ENDBRANCH   5  25
TORSDOF 4
