REMARK  Name = ZINCrD0000073Esg.0
REMARK                            x       y       z     vdW  Elec       q    Type
REMARK                         _______ _______ _______ _____ _____    ______ ____
ROOT
ATOM      1  N   LIG    1        1.217  -0.448  -0.365  0.00  0.00    -0.560 N 
ATOM      2  C   LIG    1        2.133   0.667  -0.633  0.00  0.00    +0.310 C 
ATOM      3  C   LIG    1        1.473   1.907   0.010  0.00  0.00    +0.010 C 
ATOM      4  C   LIG    1       -0.021   1.508   0.001  0.00  0.00    +0.100 C 
ATOM      5  C   LIG    1       -0.002  -0.004  -0.012  0.00  0.00    +0.520 C 
ATOM      6  O   LIG    1       -0.949  -0.713   0.257  0.00  0.00    -0.500 OA
ENDROOT
BRANCH   1  11
ATOM      7  C   LIG    1        1.017  -4.118  -0.174  0.00  0.00    +0.160 A 
ATOM      8  C   LIG    1        2.266  -4.472  -0.663  0.00  0.00    -0.100 A 
ATOM      9  C   LIG    1        3.162  -3.494  -1.050  0.00  0.00    +0.080 A 
ATOM     10  C   LIG    1        2.814  -2.160  -0.957  0.00  0.00    -0.060 A 
ATOM     11  C   LIG    1        1.567  -1.799  -0.464  0.00  0.00    +0.200 A 
ATOM     12  C   LIG    1        0.666  -2.780  -0.074  0.00  0.00    -0.030 A 
BRANCH   7  14
ATOM     13  C   LIG    1        0.565  -6.438   0.077  0.00  0.00    +0.250 C 
ATOM     14  O   LIG    1        0.137  -5.081   0.207  0.00  0.00    -0.310 OA
ENDBRANCH   7  14
ENDBRANCH   1  11
BRANCH   3  15
ATOM     15  C   LIG    1        1.708   3.138  -0.827  0.00  0.00    +0.530 C 
ATOM     16  N   LIG    1        1.107   4.299  -0.501  0.00  0.00    -0.720 N 
ATOM     17  H   LIG    1        0.523   4.343   0.272  0.00  0.00    +0.400 HD
ATOM     18  O   LIG    1        2.438   3.083  -1.794  0.00  0.00    -0.520 OA
BRANCH  16  19
ATOM     19  C   LIG    1        1.335   5.496  -1.315  0.00  0.00    +0.320 C 
BRANCH  19  20
ATOM     20  C   LIG    1        0.166   6.435  -1.167  0.00  0.00    -0.090 A 
ATOM     21  C   LIG    1       -0.429   6.608   0.069  0.00  0.00    +0.000 A 
ATOM     22  C   LIG    1       -1.499   7.472   0.206  0.00  0.00    +0.000 A 
ATOM     23  C   LIG    1       -1.980   8.157  -0.895  0.00  0.00    +0.000 A 
ATOM     24  C   LIG    1       -1.388   7.980  -2.131  0.00  0.00    +0.020 A 
ATOM     25  C   LIG    1       -0.315   7.119  -2.267  0.00  0.00    +0.020 A 
ENDBRANCH  19  20
BRANCH  19  26
ATOM     26  C   LIG    1        2.613   6.195  -0.846  0.00  0.00    -0.060 C 
ATOM     27  C   LIG    1        3.659   6.542  -1.908  0.00  0.00    +0.020 C 
ATOM     28  C   LIG    1        3.920   5.402  -0.920  0.00  0.00    +0.030 C 
ENDBRANCH  19  26
ENDBRANCH  16  19
ENDBRANCH   3  15
TORSDOF 6
