REMARK  Name = ZINCrH000004rjV5.0
REMARK                            x       y       z     vdW  Elec       q    Type
REMARK                         _______ _______ _______ _____ _____    ______ ____
ROOT
ATOM      1  N   LIG    1       -0.927   3.372  -3.695  0.00  0.00    -0.540 N 
ATOM      2  C   LIG    1       -1.744   3.382  -2.623  0.00  0.00    +0.530 C 
ATOM      3  O   LIG    1       -2.908   3.699  -2.751  0.00  0.00    -0.510 OA
ENDROOT
BRANCH   2   4
ATOM      4  C   LIG    1       -1.212   2.999  -1.266  0.00  0.00    -0.020 C 
ATOM      5  C   LIG    1       -1.096   1.476  -1.174  0.00  0.00    +0.040 C 
ATOM      6  C   LIG    1       -0.524   1.088   0.191  0.00  0.00    +0.030 C 
ATOM      7  C   LIG    1       -1.473   1.567   1.294  0.00  0.00    +0.260 C 
ATOM      8  N   LIG    1       -1.705   3.008   1.124  0.00  0.00    -0.610 N 
ATOM      9  C   LIG    1       -1.497   3.862   2.145  0.00  0.00    +0.550 C 
ATOM     10  O   LIG    1       -1.692   5.049   1.993  0.00  0.00    -0.540 OA
ATOM     11  C   LIG    1       -2.170   3.501  -0.180  0.00  0.00    +0.310 C 
BRANCH   9  12
ATOM     12  C   LIG    1       -1.020   3.342   3.477  0.00  0.00    -0.070 C 
ATOM     13  C   LIG    1       -1.999   3.405   4.651  0.00  0.00    +0.060 C 
ATOM     14  C   LIG    1       -0.804   4.361   4.597  0.00  0.00    +0.060 C 
ENDBRANCH   9  12
ENDBRANCH   2   4
BRANCH   1  19
ATOM     15  C   LIG    1       -2.590   5.514  -8.620  0.00  0.00    +0.100 C 
ATOM     16  C   LIG    1       -2.173   4.959  -7.283  0.00  0.00    -0.160 A 
ATOM     17  C   LIG    1       -2.889   5.276  -6.137  0.00  0.00    +0.080 A 
ATOM     18  C   LIG    1       -2.476   4.740  -4.930  0.00  0.00    -0.020 A 
ATOM     19  C   LIG    1       -1.357   3.915  -4.905  0.00  0.00    +0.350 A 
ATOM     20  N   LIG    1       -0.701   3.635  -6.019  0.00  0.00    -0.500 NA
ATOM     21  C   LIG    1       -1.074   4.128  -7.185  0.00  0.00    +0.280 A 
ENDBRANCH   1  19
BRANCH   1  22
ATOM     22  C   LIG    1        0.414   2.791  -3.588  0.00  0.00    +0.240 C 
ATOM     23  C   LIG    1        1.461   3.875  -3.851  0.00  0.00    +0.010 C 
ATOM     24  C   LIG    1        2.861   3.268  -3.739  0.00  0.00    +0.020 C 
ATOM     25  C   LIG    1        3.016   2.149  -4.771  0.00  0.00    +0.010 C 
ATOM     26  C   LIG    1        1.968   1.065  -4.509  0.00  0.00    +0.020 C 
ATOM     27  C   LIG    1        0.568   1.672  -4.620  0.00  0.00    +0.030 C 
ENDBRANCH   1  22
TORSDOF 4
