REMARK  Name = ZINCc70000003YWU.0
REMARK                            x       y       z     vdW  Elec       q    Type
REMARK                         _______ _______ _______ _____ _____    ______ ____
ROOT
ATOM      1  C   LIG    1       -0.610  -2.409   4.251  0.00  0.00    +0.190 C 
ATOM      2  C   LIG    1       -0.485  -1.009   3.705  0.00  0.00    +0.250 C 
ATOM      3  N   LIG    1        0.002   0.039   4.370  0.00  0.00    -0.580 NA
ATOM      4  C   LIG    1       -0.032   1.107   3.601  0.00  0.00    +0.530 C 
ATOM      5  N   LIG    1       -0.554   0.742   2.410  0.00  0.00    -0.410 NA
ATOM      6  N   LIG    1       -0.843  -0.628   2.509  0.00  0.00    -0.330 NA
ENDROOT
BRANCH   5   7
ATOM      7  C   LIG    1       -0.780   1.606   1.249  0.00  0.00    +0.250 C 
ATOM      8  C   LIG    1       -2.249   1.504   0.749  0.00  0.00    +0.030 C 
ATOM      9  C   LIG    1       -2.107   1.829  -0.754  0.00  0.00    +0.210 C 
ATOM     10  O   LIG    1       -0.746   1.581  -1.124  0.00  0.00    -0.370 OA
ATOM     11  C   LIG    1       -0.013   1.086   0.008  0.00  0.00    +0.220 C 
ENDBRANCH   5   7
BRANCH   4  12
ATOM     12  N   LIG    1        0.391   2.376   3.950  0.00  0.00    -0.830 NA
ATOM     13  H   LIG    1        0.753   2.540   4.835  0.00  0.00    +0.430 HD
ATOM     14  H   LIG    1        0.324   3.103   3.311  0.00  0.00    +0.410 HD
ENDBRANCH   4  12
TORSDOF 2
