REMARK  Name = ZINCb80000002lSp.1
REMARK                            x       y       z     vdW  Elec       q    Type
REMARK                         _______ _______ _______ _____ _____    ______ ____
ROOT
ATOM      1  C   LIG    1       -0.729   1.581   1.266  0.00  0.00    +0.100 C 
ATOM      2  N   LIG    1       -0.018   1.098   2.457  0.00  0.00    -0.670 NA
ATOM      3  H   LIG    1        0.103   0.097   2.425  0.00  0.00    +0.350 HD
ATOM      4  C   LIG    1        1.279   1.783   2.586  0.00  0.00    +0.180 C 
ATOM      5  C   LIG    1        1.027   3.250   2.938  0.00  0.00    +0.260 C 
ATOM      6  N   LIG    1        0.055   3.827   2.015  0.00  0.00    -0.720 N 
ATOM      7  H   LIG    1       -0.002   4.793   1.945  0.00  0.00    +0.400 HD
ATOM      8  C   LIG    1       -0.012   1.084   0.010  0.00  0.00    +0.020 C 
ATOM      9  C   LIG    1       -0.762   3.083   1.261  0.00  0.00    +0.530 C 
ATOM     10  O   LIG    1       -1.561   3.644   0.542  0.00  0.00    -0.540 OA
ENDROOT
BRANCH   1  11
ATOM     11  C   LIG    1       -2.162   1.044   1.278  0.00  0.00    +0.050 C 
BRANCH  11  13
ATOM     12  C   LIG    1       -4.229   0.792   2.659  0.00  0.00    +0.000 C 
ATOM     13  C   LIG    1       -2.841   1.432   2.594  0.00  0.00    +0.010 C 
ENDBRANCH  11  13
ENDBRANCH   1  11
TORSDOF 2
