REMARK  Name = ZINCrD00000F5Lzu.0
REMARK                            x       y       z     vdW  Elec       q    Type
REMARK                         _______ _______ _______ _____ _____    ______ ____
ROOT
ATOM      1  C   LIG    1       -2.715   2.941   4.762  0.00  0.00    +0.330 C 
ENDROOT
BRANCH   1   6
ATOM      2  C   LIG    1       -0.052   1.177  -0.054  0.00  0.00    +0.090 C 
ATOM      3  C   LIG    1       -0.747   1.637   1.202  0.00  0.00    -0.070 A 
ATOM      4  C   LIG    1       -2.110   1.862   1.195  0.00  0.00    +0.000 A 
ATOM      5  C   LIG    1       -2.748   2.280   2.348  0.00  0.00    +0.060 A 
ATOM      6  C   LIG    1       -2.020   2.481   3.506  0.00  0.00    -0.090 A 
ATOM      7  C   LIG    1       -0.655   2.261   3.512  0.00  0.00    -0.070 A 
ATOM      8  C   LIG    1        0.138   2.481   4.774  0.00  0.00    +0.090 C 
ATOM      9  C   LIG    1       -0.019   1.839   2.360  0.00  0.00    -0.090 A 
ATOM     10  C   LIG    1        1.469   1.599   2.366  0.00  0.00    +0.090 C 
ENDBRANCH   1   6
BRANCH   1  11
ATOM     11  C   LIG    1       -2.619   4.441   4.869  0.00  0.00    +0.160 A 
ATOM     12  N   LIG    1       -3.296   5.320   4.172  0.00  0.00    -0.290 NA
ATOM     13  N   LIG    1       -2.935   6.496   4.555  0.00  0.00    -0.070 NA
ATOM     14  N   LIG    1       -2.039   6.390   5.473  0.00  0.00    -0.090 NA
ATOM     15  N   LIG    1       -1.817   5.138   5.695  0.00  0.00    -0.270 N 
BRANCH  15  16
ATOM     16  C   LIG    1       -0.869   4.581   6.663  0.00  0.00    +0.200 C 
ATOM     17  C   LIG    1       -0.206   5.552   7.643  0.00  0.00    +0.090 C 
ATOM     18  C   LIG    1        0.608   4.946   6.497  0.00  0.00    +0.070 C 
ENDBRANCH  15  16
ENDBRANCH   1  11
BRANCH   1  19
ATOM     19  N   LIG    1       -4.128   2.543   4.714  0.00  0.00    -0.620 NA
ATOM     20  H   LIG    1       -4.678   3.221   4.210  0.00  0.00    +0.370 HD
BRANCH  19  21
ATOM     21  C   LIG    1       -4.662   2.333   6.067  0.00  0.00    +0.030 C 
ATOM     22  C   LIG    1       -5.861   1.363   6.302  0.00  0.00    +0.060 C 
ATOM     23  C   LIG    1       -5.350   1.484   7.766  0.00  0.00    +0.070 C 
ATOM     24  O   LIG    1       -5.404   2.881   8.187  0.00  0.00    -0.350 OA
ATOM     25  C   LIG    1       -5.775   0.427   8.787  0.00  0.00    +0.110 C 
ATOM     26  C   LIG    1       -4.909   3.582   6.981  0.00  0.00    +0.140 C 
ATOM     27  C   LIG    1       -5.981   4.502   6.394  0.00  0.00    +0.040 C 
ATOM     28  C   LIG    1       -3.976   1.359   7.063  0.00  0.00    +0.020 C 
ENDBRANCH  19  21
ENDBRANCH   1  19
TORSDOF 5
