REMARK  Name = ZINCqH0000050Soi.0
REMARK                            x       y       z     vdW  Elec       q    Type
REMARK                         _______ _______ _______ _____ _____    ______ ____
ROOT
ATOM      1  C   LIG    1        1.748   3.155  -0.031  0.00  0.00    +0.610 C 
ATOM      2  N   LIG    1        3.069   3.425  -0.032  0.00  0.00    -0.700 N 
ATOM      3  H   LIG    1        3.712   2.699  -0.037  0.00  0.00    +0.420 HD
ATOM      4  O   LIG    1        0.941   4.065  -0.024  0.00  0.00    -0.530 OA
ENDROOT
BRANCH   1   7
ATOM      5  C   LIG    1       -1.239   2.215  -0.036  0.00  0.00    +0.210 C 
ATOM      6  C   LIG    1       -0.015   1.337  -0.038  0.00  0.00    +0.050 A 
ATOM      7  C   LIG    1        1.282   1.756  -0.038  0.00  0.00    -0.080 A 
ATOM      8  N   LIG    1        2.064   0.646  -0.046  0.00  0.00    -0.450 NA
ATOM      9  C   LIG    1        1.287  -0.407  -0.051  0.00  0.00    +0.240 A 
ATOM     10  O   LIG    1        0.004  -0.006  -0.046  0.00  0.00    -0.190 OA
BRANCH   9  11
ATOM     11  C   LIG    1        1.747  -1.813  -0.060  0.00  0.00    -0.020 A 
ATOM     12  C   LIG    1        3.112  -2.103  -0.070  0.00  0.00    +0.070 A 
ATOM     13  C   LIG    1        3.535  -3.417  -0.073  0.00  0.00    +0.010 A 
ATOM     14  C   LIG    1        2.608  -4.445  -0.076  0.00  0.00    +0.030 A 
ATOM     15  C   LIG    1        1.254  -4.163  -0.073  0.00  0.00    +0.010 A 
ATOM     16  C   LIG    1        0.818  -2.854  -0.065  0.00  0.00    +0.040 A 
ENDBRANCH   9  11
ENDBRANCH   1   7
BRANCH   2  17
ATOM     17  C   LIG    1        3.532   4.814  -0.025  0.00  0.00    +0.320 C 
BRANCH  17  18
ATOM     18  C   LIG    1        5.039   4.841  -0.027  0.00  0.00    +0.510 C 
ATOM     19  N   LIG    1        5.692   6.021  -0.022  0.00  0.00    -0.670 N 
ATOM     20  H   LIG    1        5.194   6.851  -0.082  0.00  0.00    +0.420 HD
ATOM     21  O   LIG    1        5.664   3.802  -0.034  0.00  0.00    -0.510 OA
BRANCH  19  22
ATOM     22  C   LIG    1        7.088   6.047   0.071  0.00  0.00    +0.170 A 
ATOM     23  C   LIG    1        7.844   5.051  -0.532  0.00  0.00    +0.030 A 
ATOM     24  C   LIG    1        9.222   5.080  -0.439  0.00  0.00    +0.060 A 
ATOM     25  C   LIG    1        9.849   6.098   0.255  0.00  0.00    +0.010 A 
ATOM     26  C   LIG    1        9.099   7.093   0.857  0.00  0.00    +0.070 A 
ATOM     27  C   LIG    1        7.721   7.073   0.762  0.00  0.00    -0.120 A 
ATOM     28 BR   LIG    1        6.696   8.437   1.579  0.00  0.00    -0.040 Br
ENDBRANCH  19  22
ENDBRANCH  17  18
ENDBRANCH   2  17
TORSDOF 5
