REMARK  Name = ZINCrg00000BlApR.0
REMARK                            x       y       z     vdW  Elec       q    Type
REMARK                         _______ _______ _______ _____ _____    ______ ____
ROOT
ATOM      1  O   LIG    1        4.316   0.346   1.134  0.00  0.00    -0.530 OA
ATOM      2  C   LIG    1        3.557   0.983   0.434  0.00  0.00    +0.510 C 
ATOM      3  N   LIG    1        2.318   1.276   0.876  0.00  0.00    -0.600 N 
ATOM      4  C   LIG    1        1.420   2.053  -0.001  0.00  0.00    +0.250 C 
ATOM      5  C   LIG    1       -0.018   1.505   0.010  0.00  0.00    +0.020 C 
ATOM      6  C   LIG    1        0.002  -0.004   0.002  0.00  0.00    +0.030 C 
ATOM      7  C   LIG    1       -0.025  -0.518   1.438  0.00  0.00    -0.020 C 
ATOM      8  C   LIG    1        1.297  -0.595   2.079  0.00  0.00    +0.010 C 
ATOM      9  C   LIG    1        1.924   0.817   2.189  0.00  0.00    +0.290 C 
ENDROOT
BRANCH   7  10
ATOM     10  C   LIG    1       -0.648  -1.915   1.443  0.00  0.00    +0.260 C 
BRANCH  10  11
ATOM     11  N   LIG    1       -0.794  -2.381   2.824  0.00  0.00    -0.730 N 
ATOM     12  H   LIG    1       -0.509  -1.815   3.559  0.00  0.00    +0.400 HD
ATOM     13  C   LIG    1       -1.325  -3.594   3.074  0.00  0.00    +0.530 C 
ATOM     14  O   LIG    1       -1.682  -4.301   2.155  0.00  0.00    -0.520 OA
BRANCH  13  15
ATOM     15  C   LIG    1       -1.475  -4.073   4.495  0.00  0.00    +0.010 C 
ATOM     16  C   LIG    1       -1.078  -5.519   4.799  0.00  0.00    +0.060 C 
ATOM     17  C   LIG    1       -2.555  -5.118   4.778  0.00  0.00    +0.100 C 
BRANCH  15  18
ATOM     18  O   LIG    1       -1.223  -3.094   5.505  0.00  0.00    -0.520 OA
ATOM     19  H   LIG    1       -0.530  -2.460   5.274  0.00  0.00    +0.380 HD
ENDBRANCH  15  18
ENDBRANCH  13  15
ENDBRANCH  10  11
ENDBRANCH   7  10
BRANCH   2  20
ATOM     20  C   LIG    1        4.000   1.446  -0.930  0.00  0.00    +0.120 C 
BRANCH  20  21
ATOM     21  C   LIG    1        5.415   0.992  -1.180  0.00  0.00    -0.020 A 
ATOM     22  C   LIG    1        6.456   1.822  -0.924  0.00  0.00    +0.060 A 
ATOM     23  C   LIG    1        7.784   1.433  -1.139  0.00  0.00    +0.070 A 
ATOM     24  C   LIG    1        8.104   0.208  -1.625  0.00  0.00    +0.080 A 
ATOM     25  C   LIG    1        7.075  -0.708  -1.921  0.00  0.00    +0.020 A 
ATOM     26  N   LIG    1        6.949  -1.927  -2.381  0.00  0.00    -0.340 NA
ATOM     27  O   LIG    1        5.770  -2.215  -2.427  0.00  0.00    +0.380 OA
ATOM     28  N   LIG    1        4.993  -1.358  -2.057  0.00  0.00    -0.340 NA
ATOM     29  C   LIG    1        5.668  -0.298  -1.687  0.00  0.00    +0.030 A 
ENDBRANCH  20  21
ENDBRANCH   2  20
TORSDOF 6
