REMARK  Name = ZINCpe000000Zv8q.1
REMARK                            x       y       z     vdW  Elec       q    Type
REMARK                         _______ _______ _______ _____ _____    ______ ____
ROOT
ATOM      1  O   LIG    1        2.507  -0.222  -0.013  0.00  0.00    -0.530 OA
ATOM      2  C   LIG    1        3.521  -0.893  -0.036  0.00  0.00    +0.580 C 
ATOM      3  N   LIG    1        3.438  -2.234  -0.144  0.00  0.00    -0.590 N 
ATOM      4  C   LIG    1        2.133  -2.905  -0.240  0.00  0.00    +0.300 C 
ATOM      5  C   LIG    1        2.163  -3.845  -1.455  0.00  0.00    +0.170 C 
ATOM      6  N   LIG    1        3.317  -4.747  -1.341  0.00  0.00    -0.540 NA
ATOM      7  C   LIG    1        4.582  -4.001  -1.373  0.00  0.00    +0.170 C 
ATOM      8  C   LIG    1        4.651  -3.066  -0.161  0.00  0.00    +0.300 C 
ENDROOT
BRANCH   2   9
ATOM      9  C   LIG    1        4.843  -0.238   0.054  0.00  0.00    +0.000 A 
ATOM     10  C   LIG    1        4.963   1.137  -0.177  0.00  0.00    +0.130 A 
ATOM     11  C   LIG    1        6.221   1.705  -0.082  0.00  0.00    +0.030 A 
ATOM     12  C   LIG    1        7.294   0.871   0.238  0.00  0.00    +0.270 A 
ATOM     13  N   LIG    1        7.088  -0.426   0.441  0.00  0.00    -0.280 NA
ATOM     14  N   LIG    1        5.921  -0.954   0.353  0.00  0.00    -0.180 NA
BRANCH  12  15
ATOM     15  N   LIG    1        8.571   1.396   0.349  0.00  0.00    -0.460 N 
ATOM     16  C   LIG    1        8.642   2.396   1.446  0.00  0.00    +0.200 C 
ATOM     17  C   LIG    1       10.156   2.464   1.766  0.00  0.00    +0.040 C 
ATOM     18  C   LIG    1       10.610   0.995   1.604  0.00  0.00    +0.020 C 
ATOM     19  C   LIG    1        9.548   0.343   0.700  0.00  0.00    +0.210 C 
ENDBRANCH  12  15
ENDBRANCH   2   9
BRANCH   6  20
ATOM     20  C   LIG    1        3.286  -5.777  -2.388  0.00  0.00    +0.180 C 
BRANCH  20  21
ATOM     21  C   LIG    1        2.078  -6.690  -2.170  0.00  0.00    -0.030 C 
ATOM     22  C   LIG    1        1.951  -7.706  -3.327  0.00  0.00    +0.010 C 
ATOM     23  C   LIG    1        2.096  -9.081  -2.638  0.00  0.00    +0.190 C 
ATOM     24  O   LIG    1        1.707  -8.849  -1.267  0.00  0.00    -0.380 OA
ATOM     25  C   LIG    1        2.285  -7.572  -0.918  0.00  0.00    +0.210 C 
ENDBRANCH  20  21
ENDBRANCH   6  20
TORSDOF 4
