REMARK  Name = ZINCtV00000tROTN.0
REMARK                            x       y       z     vdW  Elec       q    Type
REMARK                         _______ _______ _______ _____ _____    ______ ____
ROOT
ATOM      1  C   LIG    1        3.668   6.056   0.007  0.00  0.00    +0.530 C 
ENDROOT
BRANCH   1   3
ATOM      2  C   LIG    1        2.616   3.858   0.036  0.00  0.00    +0.580 C 
ATOM      3  N   LIG    1        2.480   5.198   0.007  0.00  0.00    -0.730 N 
ATOM      4  H   LIG    1        1.595   5.596  -0.014  0.00  0.00    +0.400 HD
ATOM      5  O   LIG    1        3.724   3.360   0.063  0.00  0.00    -0.520 OA
BRANCH   2   9
ATOM      6  C   LIG    1       -0.829   1.372   0.031  0.00  0.00    -0.040 A 
ATOM      7  C   LIG    1        0.432   0.803   0.067  0.00  0.00    +0.010 A 
ATOM      8  C   LIG    1        1.554   1.604   0.067  0.00  0.00    +0.090 A 
ATOM      9  C   LIG    1        1.417   2.993   0.037  0.00  0.00    -0.150 A 
ATOM     10  C   LIG    1        0.142   3.561   0.006  0.00  0.00    +0.040 A 
ATOM     11  C   LIG    1       -0.972   2.748   0.006  0.00  0.00    +0.010 A 
BRANCH   6  13
ATOM     12  C   LIG    1       -2.066  -0.368   1.291  0.00  0.00    +0.040 C 
ATOM     13  C   LIG    1       -2.051   0.490   0.025  0.00  0.00    -0.040 C 
ATOM     14  C   LIG    1       -2.018  -0.418  -1.206  0.00  0.00    +0.040 C 
ATOM     15  C   LIG    1       -3.308   1.361  -0.017  0.00  0.00    +0.030 C 
ENDBRANCH   6  13
ENDBRANCH   2   9
ENDBRANCH   1   3
BRANCH   1  16
ATOM     16  C   LIG    1        3.470   7.202   1.001  0.00  0.00    +0.110 C 
ATOM     17 CL   LIG    1        2.028   8.172   0.520  0.00  0.00    -0.080 Cl
ATOM     18 CL   LIG    1        4.932   8.257   1.001  0.00  0.00    -0.060 Cl
ATOM     19 CL   LIG    1        3.216   6.527   2.654  0.00  0.00    -0.060 Cl
ENDBRANCH   1  16
BRANCH   1  20
ATOM     20  N   LIG    1        3.874   6.604  -1.336  0.00  0.00    -0.740 N 
ATOM     21  H   LIG    1        3.301   7.315  -1.663  0.00  0.00    +0.410 HD
BRANCH  20  22
ATOM     22  C   LIG    1        4.896   6.103  -2.145  0.00  0.00    +0.210 A 
ATOM     23  C   LIG    1        5.636   5.003  -1.732  0.00  0.00    -0.010 A 
ATOM     24  C   LIG    1        6.646   4.510  -2.535  0.00  0.00    +0.070 A 
ATOM     25  C   LIG    1        6.920   5.110  -3.750  0.00  0.00    +0.020 A 
ATOM     26  C   LIG    1        6.185   6.206  -4.165  0.00  0.00    -0.140 A 
ATOM     27  C   LIG    1        5.171   6.701  -3.369  0.00  0.00    +0.000 A 
BRANCH  26  28
ATOM     28  C   LIG    1        6.488   6.857  -5.490  0.00  0.00    +0.510 C 
ATOM     29  F   LIG    1        6.848   8.192  -5.282  0.00  0.00    -0.180 F 
ATOM     30  F   LIG    1        5.353   6.802  -6.306  0.00  0.00    -0.180 F 
ATOM     31  F   LIG    1        7.543   6.180  -6.112  0.00  0.00    -0.180 F 
ENDBRANCH  26  28
ENDBRANCH  20  22
ENDBRANCH   1  20
TORSDOF 7
