REMARK  Name = ZINCpk00000e1vzE.0
REMARK                            x       y       z     vdW  Elec       q    Type
REMARK                         _______ _______ _______ _____ _____    ______ ____
ROOT
ATOM      1  C   LIG    1        0.484   5.449  -1.033  0.00  0.00    +0.250 A 
ATOM      2  C   LIG    1       -0.202   6.144  -2.030  0.00  0.00    +0.020 A 
ATOM      3  C   LIG    1       -0.197   7.527  -1.979  0.00  0.00    +0.060 A 
ATOM      4  C   LIG    1        0.504   8.142  -0.937  0.00  0.00    +0.090 A 
ATOM      5  N   LIG    1        1.132   7.399  -0.036  0.00  0.00    -0.210 NA
ATOM      6  N   LIG    1        1.122   6.116  -0.082  0.00  0.00    -0.270 NA
ENDROOT
BRANCH   4   7
ATOM      7  C   LIG    1        0.545   9.621  -0.840  0.00  0.00    -0.060 A 
ATOM      8  C   LIG    1       -0.110  10.403  -1.790  0.00  0.00    +0.070 A 
ATOM      9  C   LIG    1       -0.074  11.778  -1.692  0.00  0.00    -0.010 A 
ATOM     10  C   LIG    1        0.621  12.384  -0.658  0.00  0.00    +0.110 A 
ATOM     11  C   LIG    1        1.279  11.611   0.285  0.00  0.00    -0.020 A 
ATOM     12  F   LIG    1        0.659  13.731  -0.570  0.00  0.00    -0.140 F 
ATOM     13  C   LIG    1        1.244  10.235   0.199  0.00  0.00    +0.100 A 
ENDBRANCH   4   7
BRANCH   1  17
ATOM     14  N   LIG    1       -0.018   1.465   0.010  0.00  0.00    -0.520 NA
ATOM     15  C   LIG    1       -0.799   1.987  -1.120  0.00  0.00    +0.200 C 
ATOM     16  C   LIG    1       -0.862   3.514  -1.031  0.00  0.00    +0.210 C 
ATOM     17  N   LIG    1        0.503   4.059  -1.041  0.00  0.00    -0.470 N 
ATOM     18  C   LIG    1        1.284   3.537   0.089  0.00  0.00    +0.240 C 
ATOM     19  C   LIG    1        1.347   2.010   0.000  0.00  0.00    +0.190 C 
BRANCH  14  20
ATOM     20  C   LIG    1        0.002  -0.004   0.002  0.00  0.00    +0.220 C 
BRANCH  20  23
ATOM     21  C   LIG    1       -2.963  -2.363   0.547  0.00  0.00    +0.290 C 
ATOM     22  N   LIG    1       -1.612  -1.855   0.297  0.00  0.00    -0.620 N 
ATOM     23  C   LIG    1       -1.388  -0.527   0.259  0.00  0.00    +0.510 C 
ATOM     24  O   LIG    1       -2.305   0.248   0.432  0.00  0.00    -0.520 OA
ATOM     25  C   LIG    1       -0.504  -2.791   0.088  0.00  0.00    +0.290 C 
ENDBRANCH  20  23
ENDBRANCH  14  20
ENDBRANCH   1  17
TORSDOF 4
