REMARK  Name = ZINCrg000000s6CN.0
REMARK                            x       y       z     vdW  Elec       q    Type
REMARK                         _______ _______ _______ _____ _____    ______ ____
ROOT
ATOM      1  N   LIG    1       -0.980   2.944   4.957  0.00  0.00    -0.650 N 
ATOM      2  H   LIG    1       -1.732   3.524   5.155  0.00  0.00    +0.410 HD
ATOM      3  C   LIG    1       -0.644   2.690   3.677  0.00  0.00    +0.480 C 
ATOM      4  O   LIG    1        0.296   1.965   3.429  0.00  0.00    -0.490 OA
ENDROOT
BRANCH   1  10
ATOM      5  N   LIG    1       -0.468   2.547   7.329  0.00  0.00    -0.340 N 
ATOM      6  N   LIG    1        0.490   1.797   8.023  0.00  0.00    -0.280 NA
ATOM      7  C   LIG    1        1.263   1.204   7.149  0.00  0.00    +0.100 A 
ATOM      8  C   LIG    1        0.827   1.546   5.867  0.00  0.00    -0.080 A 
ATOM      9  C   LIG    1        2.428   0.303   7.472  0.00  0.00    +0.170 C 
ATOM     10  C   LIG    1       -0.246   2.374   5.997  0.00  0.00    +0.300 A 
BRANCH   5  15
ATOM     11  C   LIG    1       -4.553   5.729   9.653  0.00  0.00    +0.090 C 
ATOM     12  C   LIG    1       -3.468   4.884   9.036  0.00  0.00    -0.090 A 
ATOM     13  C   LIG    1       -3.076   3.708   9.649  0.00  0.00    +0.040 A 
ATOM     14  C   LIG    1       -2.083   2.932   9.086  0.00  0.00    +0.030 A 
ATOM     15  C   LIG    1       -1.477   3.333   7.903  0.00  0.00    +0.150 A 
ATOM     16  C   LIG    1       -1.868   4.517   7.292  0.00  0.00    -0.030 A 
ATOM     17  C   LIG    1       -2.866   5.287   7.858  0.00  0.00    +0.050 A 
ENDBRANCH   5  15
ENDBRANCH   1  10
BRANCH   3  18
ATOM     18  C   LIG    1       -1.436   3.306   2.554  0.00  0.00    +0.270 C 
BRANCH  18  19
ATOM     19  N   LIG    1       -0.796   2.987   1.270  0.00  0.00    -0.500 NA
ATOM     20  C   LIG    1        0.582   3.497   1.228  0.00  0.00    +0.160 C 
ATOM     21  C   LIG    1        1.190   3.195  -0.144  0.00  0.00    +0.220 C 
ATOM     22  O   LIG    1        1.125   1.788  -0.391  0.00  0.00    -0.380 OA
ATOM     23  C   LIG    1       -0.204   1.259  -0.358  0.00  0.00    +0.230 C 
ATOM     24  C   LIG    1       -0.826   1.540   1.012  0.00  0.00    +0.140 C 
BRANCH  24  25
ATOM     25  C   LIG    1       -2.274   1.048   1.026  0.00  0.00    +0.050 C 
BRANCH  25  26
ATOM     26  C   LIG    1       -2.296  -0.453   0.899  0.00  0.00    +0.520 C 
ATOM     27  O   LIG    1       -1.257  -1.079   0.922  0.00  0.00    -0.530 OA
ATOM     28  N   LIG    1       -3.470  -1.101   0.760  0.00  0.00    -0.860 N 
ATOM     29  H   LIG    1       -3.483  -2.068   0.678  0.00  0.00    +0.400 HD
ATOM     30  H   LIG    1       -4.300  -0.601   0.742  0.00  0.00    +0.400 HD
ENDBRANCH  25  26
ENDBRANCH  24  25
ENDBRANCH  18  19
ENDBRANCH   3  18
TORSDOF 6
