REMARK  Name = ZINCb80000003Wno.0
REMARK                            x       y       z     vdW  Elec       q    Type
REMARK                         _______ _______ _______ _____ _____    ______ ____
ROOT
ATOM      1  C   LIG    1        2.126  -0.039   1.168  0.00  0.00    +0.180 C 
ATOM      2  C   LIG    1        2.169   1.490   1.211  0.00  0.00    +0.060 C 
ATOM      3  C   LIG    1        1.420   2.051  -0.001  0.00  0.00    +0.020 C 
ATOM      4  C   LIG    1       -0.019   1.526   0.010  0.00  0.00    +0.190 C 
ATOM      5  C   LIG    1        0.002  -0.004   0.002  0.00  0.00    +0.190 C 
ATOM      6  F   LIG    1       -0.694   1.990  -1.123  0.00  0.00    -0.210 F 
ATOM      7  N   LIG    1        0.729  -0.491   1.181  0.00  0.00    -0.670 NA
ATOM      8  H   LIG    1        0.675  -1.497   1.249  0.00  0.00    +0.360 HD
ENDROOT
BRANCH   1   9
ATOM      9  C   LIG    1        2.845  -0.596   2.370  0.00  0.00    +0.460 C 
ATOM     10  O   LIG    1        2.215  -0.979   3.327  0.00  0.00    -0.480 OA
BRANCH   9  12
ATOM     11  C   LIG    1        4.811  -1.212   3.567  0.00  0.00    +0.270 C 
ATOM     12  O   LIG    1        4.186  -0.665   2.377  0.00  0.00    -0.360 OA
ENDBRANCH   9  12
ENDBRANCH   1   9
TORSDOF 2
