REMARK  Name = ZINCvU0000000AhP.0
REMARK                            x       y       z     vdW  Elec       q    Type
REMARK                         _______ _______ _______ _____ _____    ______ ____
ROOT
ATOM      1  C   LIG    1        5.068   0.587  -2.484  0.00  0.00    +0.330 A 
ATOM      2  N   LIG    1        4.629   0.915  -3.681  0.00  0.00    -0.510 NA
ATOM      3  C   LIG    1        5.487   0.479  -4.611  0.00  0.00    +0.270 A 
ATOM      4  N   LIG    1        6.482  -0.142  -4.016  0.00  0.00    -0.290 NA
ATOM      5  N   LIG    1        6.233  -0.085  -2.635  0.00  0.00    -0.360 N 
ENDROOT
BRANCH   1   8
ATOM      6  C   LIG    1        4.531   1.421   1.144  0.00  0.00    +0.160 A 
ATOM      7  C   LIG    1        5.162   1.140  -0.058  0.00  0.00    +0.060 A 
ATOM      8  C   LIG    1        4.401   0.894  -1.199  0.00  0.00    -0.020 A 
ATOM      9  C   LIG    1        3.008   0.942  -1.128  0.00  0.00    +0.100 A 
ATOM     10  C   LIG    1        2.388   1.228   0.071  0.00  0.00    +0.050 A 
ATOM     11  C   LIG    1        3.143   1.468   1.205  0.00  0.00    -0.010 A 
ATOM     12 CL   LIG    1        2.354   1.826   2.710  0.00  0.00    -0.040 Cl
BRANCH   6  18
ATOM     13  O   LIG    1        5.528   3.908   2.065  0.00  0.00    -0.510 OA
ATOM     14  C   LIG    1        5.729   2.877   2.672  0.00  0.00    +0.520 C 
ATOM     15  C   LIG    1        6.513   2.769   3.962  0.00  0.00    +0.070 C 
ATOM     16  C   LIG    1        6.123   1.381   4.525  0.00  0.00    +0.060 C 
ATOM     17  C   LIG    1        5.714   0.625   3.242  0.00  0.00    +0.260 C 
ATOM     18  N   LIG    1        5.292   1.663   2.294  0.00  0.00    -0.580 N 
ENDBRANCH   6  18
ENDBRANCH   1   8
BRANCH   3  19
ATOM     19  C   LIG    1        5.336   0.661  -6.076  0.00  0.00    -0.010 A 
ATOM     20  C   LIG    1        6.302   0.159  -6.946  0.00  0.00    +0.070 A 
ATOM     21  C   LIG    1        6.154   0.326  -8.307  0.00  0.00    +0.030 A 
ATOM     22  C   LIG    1        5.055   1.001  -8.809  0.00  0.00    -0.020 A 
ATOM     23  C   LIG    1        4.096   1.508  -7.949  0.00  0.00    +0.030 A 
ATOM     24 CL   LIG    1        4.878   1.213 -10.523  0.00  0.00    -0.060 Cl
ATOM     25  C   LIG    1        4.231   1.341  -6.586  0.00  0.00    +0.090 A 
ENDBRANCH   3  19
BRANCH   5  26
ATOM     26  C   LIG    1        7.069  -0.642  -1.569  0.00  0.00    +0.240 C 
ATOM     27  C   LIG    1        7.353  -2.119  -1.861  0.00  0.00    +0.030 C 
ATOM     28  C   LIG    1        8.291  -2.670  -0.781  0.00  0.00    +0.020 C 
ATOM     29  C   LIG    1        9.568  -1.827  -0.748  0.00  0.00    +0.210 C 
ATOM     30  O   LIG    1        9.230  -0.460  -0.503  0.00  0.00    -0.370 OA
ATOM     31  C   LIG    1        8.393   0.123  -1.504  0.00  0.00    +0.220 C 
ENDBRANCH   5  26
TORSDOF 4
