REMARK  Name = ZINCpe00000VVGlq.0
REMARK                            x       y       z     vdW  Elec       q    Type
REMARK                         _______ _______ _______ _____ _____    ______ ____
ROOT
ATOM      1  C   LIG    1       -0.733   0.533  -0.622  0.00  0.00    +0.140 C 
ATOM      2  C   LIG    1       -1.943   1.494  -0.662  0.00  0.00    +0.020 C 
ATOM      3  C   LIG    1       -1.824   2.344   0.617  0.00  0.00    +0.190 C 
ATOM      4  N   LIG    1       -0.628   1.867   1.348  0.00  0.00    -0.500 NA
ATOM      5  C   LIG    1        0.258   1.262   0.321  0.00  0.00    +0.180 C 
ENDROOT
BRANCH   1   6
ATOM      6  N   LIG    1       -0.151   0.368  -1.961  0.00  0.00    -0.530 NA
ATOM      7  C   LIG    1       -1.153  -0.127  -2.913  0.00  0.00    +0.190 C 
BRANCH   6   8
ATOM      8  C   LIG    1        1.020  -0.518  -1.920  0.00  0.00    +0.320 C 
BRANCH   8  12
ATOM      9  C   LIG    1        4.096   0.723  -5.672  0.00  0.00    +0.250 C 
ATOM     10  C   LIG    1        3.038   0.065  -4.824  0.00  0.00    +0.180 A 
ATOM     11  N   LIG    1        2.719   0.377  -3.591  0.00  0.00    -0.470 NA
ATOM     12  C   LIG    1        1.732  -0.470  -3.247  0.00  0.00    +0.180 A 
ATOM     13  N   LIG    1        1.510  -1.244  -4.268  0.00  0.00    -0.380 NA
ATOM     14  O   LIG    1        2.247  -0.950  -5.186  0.00  0.00    +0.080 OA
ENDBRANCH   8  12
ENDBRANCH   6   8
ENDBRANCH   1   6
BRANCH   4  15
ATOM     15  C   LIG    1        0.047   2.974   2.039  0.00  0.00    +0.210 C 
BRANCH  15  16
ATOM     16  C   LIG    1       -0.950   3.717   2.891  0.00  0.00    +0.510 C 
ATOM     17  N   LIG    1       -0.554   4.778   3.621  0.00  0.00    -0.650 N 
ATOM     18  H   LIG    1        0.360   5.098   3.556  0.00  0.00    +0.410 HD
ATOM     19  O   LIG    1       -2.109   3.360   2.920  0.00  0.00    -0.500 OA
BRANCH  17  20
ATOM     20  C   LIG    1       -1.465   5.422   4.479  0.00  0.00    -0.010 A 
ATOM     21  C   LIG    1       -1.254   5.728   5.785  0.00  0.00    +0.080 A 
ATOM     22  N   LIG    1       -2.375   6.340   6.248  0.00  0.00    -0.470 N 
ATOM     23  H   LIG    1       -2.513   6.671   7.149  0.00  0.00    +0.440 HD
ATOM     24  N   LIG    1       -3.295   6.409   5.194  0.00  0.00    -0.290 NA
ATOM     25  C   LIG    1       -0.005   5.441   6.577  0.00  0.00    +0.160 C 
ATOM     26  C   LIG    1       -2.750   5.866   4.136  0.00  0.00    +0.100 A 
ATOM     27  C   LIG    1       -3.395   5.737   2.780  0.00  0.00    +0.170 C 
ENDBRANCH  17  20
ENDBRANCH  15  16
ENDBRANCH   4  15
TORSDOF 6
