REMARK  Name = ZINCrD0000071f01.0
REMARK                            x       y       z     vdW  Elec       q    Type
REMARK                         _______ _______ _______ _____ _____    ______ ____
ROOT
ATOM      1  C   LIG    1       -0.013   1.086   0.008  0.00  0.00    +0.360 C 
ENDROOT
BRANCH   1   6
ATOM      2  C   LIG    1       -2.084   1.743   3.020  0.00  0.00    +0.130 C 
ATOM      3  N   LIG    1       -1.194   2.912   2.915  0.00  0.00    -0.720 N 
ATOM      4  H   LIG    1       -1.168   3.676   3.512  0.00  0.00    +0.440 HD
ATOM      5  C   LIG    1       -0.420   2.710   1.834  0.00  0.00    +0.710 C 
ATOM      6  N   LIG    1       -0.698   1.558   1.213  0.00  0.00    -0.560 N 
ATOM      7  O   LIG    1        0.435   3.489   1.460  0.00  0.00    -0.540 OA
ATOM      8  C   LIG    1       -3.550   2.167   2.906  0.00  0.00    +0.080 C 
ATOM      9  C   LIG    1       -1.684   0.883   1.837  0.00  0.00    +0.540 C 
ATOM     10  O   LIG    1       -2.154  -0.188   1.518  0.00  0.00    -0.460 OA
BRANCH   2  11
ATOM     11  C   LIG    1       -1.841   0.997   4.334  0.00  0.00    +0.050 C 
BRANCH  11  12
ATOM     12  C   LIG    1       -2.253   1.887   5.509  0.00  0.00    +0.010 C 
BRANCH  12  14
ATOM     13  C   LIG    1       -2.304   2.073   8.000  0.00  0.00    +0.020 C 
ATOM     14  C   LIG    1       -2.010   1.141   6.822  0.00  0.00    -0.030 C 
ATOM     15  C   LIG    1       -2.932  -0.078   6.895  0.00  0.00    +0.020 C 
ENDBRANCH  12  14
ENDBRANCH  11  12
ENDBRANCH   2  11
ENDBRANCH   1   6
BRANCH   1  16
ATOM     16  C   LIG    1       -0.742   1.585  -1.213  0.00  0.00    +0.500 C 
ATOM     17  N   LIG    1       -0.288   1.272  -2.443  0.00  0.00    -0.730 N 
ATOM     18  H   LIG    1        0.507   0.726  -2.543  0.00  0.00    +0.400 HD
ATOM     19  O   LIG    1       -1.736   2.268  -1.088  0.00  0.00    -0.520 OA
BRANCH  17  20
ATOM     20  C   LIG    1       -0.997   1.758  -3.630  0.00  0.00    +0.270 C 
BRANCH  20  21
ATOM     21  C   LIG    1       -0.281   1.264  -4.889  0.00  0.00    +0.080 C 
BRANCH  21  22
ATOM     22  C   LIG    1       -1.010   1.763  -6.110  0.00  0.00    -0.070 A 
ATOM     23  C   LIG    1       -0.538   2.868  -6.792  0.00  0.00    +0.050 A 
ATOM     24  C   LIG    1       -1.206   3.327  -7.913  0.00  0.00    +0.040 A 
ATOM     25  C   LIG    1       -2.347   2.679  -8.351  0.00  0.00    -0.020 A 
ATOM     26  C   LIG    1       -2.820   1.573  -7.668  0.00  0.00    +0.050 A 
ATOM     27 CL   LIG    1       -3.186   3.255  -9.758  0.00  0.00    -0.050 Cl
ATOM     28  C   LIG    1       -2.148   1.112  -6.550  0.00  0.00    -0.020 A 
ATOM     29 CL   LIG    1       -2.737  -0.281  -5.697  0.00  0.00    -0.050 Cl
ENDBRANCH  21  22
ENDBRANCH  20  21
ENDBRANCH  17  20
ENDBRANCH   1  16
TORSDOF 8
