REMARK  Name = ZINCrH00000asje6.0
REMARK                            x       y       z     vdW  Elec       q    Type
REMARK                         _______ _______ _______ _____ _____    ______ ____
ROOT
ATOM      1  N   LIG    1       -0.956   2.089  -0.433  0.00  0.00    -0.360 N 
ATOM      2  N   LIG    1       -0.913   3.359   0.166  0.00  0.00    -0.270 NA
ATOM      3  C   LIG    1        0.330   3.568   0.536  0.00  0.00    +0.300 A 
ATOM      4  N   LIG    1        1.070   2.501   0.211  0.00  0.00    -0.540 NA
ATOM      5  C   LIG    1        0.310   1.595  -0.373  0.00  0.00    +0.380 A 
ENDROOT
BRANCH   5   6
ATOM      6  C   LIG    1        0.755   0.283  -0.876  0.00  0.00    -0.230 A 
ATOM      7  C   LIG    1        2.023  -0.294  -0.716  0.00  0.00    +0.110 A 
ATOM      8  N   LIG    1        3.175   0.097  -0.093  0.00  0.00    -0.480 N 
ATOM      9  H   LIG    1        3.211   0.956   0.356  0.00  0.00    +0.440 HD
ATOM     10  C   LIG    1        4.260  -0.695  -0.102  0.00  0.00    +0.320 A 
ATOM     11  C   LIG    1        4.248  -1.908  -0.722  0.00  0.00    -0.040 A 
ATOM     12  C   LIG    1        3.104  -2.361  -1.366  0.00  0.00    +0.190 A 
ATOM     13  C   LIG    1        1.964  -1.552  -1.369  0.00  0.00    +0.020 A 
ATOM     14  N   LIG    1        0.732  -1.692  -1.886  0.00  0.00    -0.500 NA
ATOM     15  C   LIG    1       -0.004  -0.636  -1.617  0.00  0.00    +0.300 A 
ENDBRANCH   5   6
BRANCH   3  16
ATOM     16  C   LIG    1        0.833   4.791   1.210  0.00  0.00    +0.320 A 
ATOM     17  N   LIG    1        0.111   5.844   1.527  0.00  0.00    -0.270 NA
ATOM     18  N   LIG    1        0.979   6.758   2.145  0.00  0.00    -0.480 N 
ATOM     19  H   LIG    1        0.747   7.632   2.496  0.00  0.00    +0.450 HD
ATOM     20  C   LIG    1        2.196   6.185   2.152  0.00  0.00    +0.500 A 
ATOM     21  N   LIG    1        2.099   5.009   1.590  0.00  0.00    -0.510 NA
ENDBRANCH   3  16
BRANCH   1  23
ATOM     22  C   LIG    1       -2.244   1.782  -2.489  0.00  0.00    +0.060 C 
ATOM     23  C   LIG    1       -2.131   1.427  -1.005  0.00  0.00    +0.270 C 
BRANCH  23  24
ATOM     24  C   LIG    1       -3.389   1.896  -0.271  0.00  0.00    +0.000 C 
ATOM     25  C   LIG    1       -3.275   1.541   1.213  0.00  0.00    +0.010 C 
ATOM     26  C   LIG    1       -4.533   2.010   1.947  0.00  0.00    +0.000 C 
ATOM     27  C   LIG    1       -5.760   1.319   1.350  0.00  0.00    +0.000 C 
ATOM     28  C   LIG    1       -5.874   1.674  -0.134  0.00  0.00    +0.000 C 
ATOM     29  C   LIG    1       -4.616   1.205  -0.868  0.00  0.00    +0.020 C 
ENDBRANCH  23  24
ENDBRANCH   1  23
TORSDOF 4
