REMARK  Name = ZINCpe00000VVGsg.0
REMARK                            x       y       z     vdW  Elec       q    Type
REMARK                         _______ _______ _______ _____ _____    ______ ____
ROOT
ATOM      1  O   LIG    1       -3.393   3.718   0.038  0.00  0.00    -0.530 OA
ATOM      2  C   LIG    1       -2.351   4.339   0.037  0.00  0.00    +0.520 C 
ATOM      3  N   LIG    1       -2.370   5.686   0.044  0.00  0.00    -0.730 N 
ATOM      4  H   LIG    1       -1.536   6.183   0.043  0.00  0.00    +0.410 HD
ENDROOT
BRANCH   3   5
ATOM      5  C   LIG    1       -3.648   6.401   0.054  0.00  0.00    +0.270 C 
BRANCH   5   6
ATOM      6  C   LIG    1       -3.389   7.909   0.061  0.00  0.00    +0.270 C 
BRANCH   6   7
ATOM      7  N   LIG    1       -4.668   8.624   0.071  0.00  0.00    -0.730 N 
ATOM      8  H   LIG    1       -5.501   8.128   0.072  0.00  0.00    +0.400 HD
ATOM      9  C   LIG    1       -4.686   9.972   0.079  0.00  0.00    +0.520 C 
ATOM     10  O   LIG    1       -3.644  10.593   0.077  0.00  0.00    -0.520 OA
BRANCH   9  11
ATOM     11  C   LIG    1       -6.001  10.708   0.089  0.00  0.00    +0.120 C 
BRANCH  11  12
ATOM     12  C   LIG    1       -5.746  12.193   0.096  0.00  0.00    -0.080 A 
ATOM     13  C   LIG    1       -5.629  12.868   1.296  0.00  0.00    +0.050 A 
ATOM     14  C   LIG    1       -5.389  14.229   1.304  0.00  0.00    -0.010 A 
ATOM     15  C   LIG    1       -5.278  14.918   0.108  0.00  0.00    +0.100 A 
ATOM     16  C   LIG    1       -5.401  14.242  -1.094  0.00  0.00    -0.010 A 
ATOM     17  F   LIG    1       -5.050  16.250   0.114  0.00  0.00    -0.140 F 
ATOM     18  C   LIG    1       -5.634  12.880  -1.099  0.00  0.00    +0.050 A 
ENDBRANCH  11  12
ENDBRANCH   9  11
ENDBRANCH   6   7
ENDBRANCH   5   6
ENDBRANCH   3   5
BRANCH   2  19
ATOM     19  C   LIG    1       -1.036   3.603   0.026  0.00  0.00    +0.040 C 
BRANCH  19  20
ATOM     20  C   LIG    1       -1.295   2.095   0.020  0.00  0.00    +0.310 C 
BRANCH  20  21
ATOM     21  N   LIG    1       -0.017   1.380   0.010  0.00  0.00    -0.700 N 
ATOM     22  H   LIG    1        0.817   1.876   0.004  0.00  0.00    +0.410 HD
BRANCH  21  23
ATOM     23  C   LIG    1        0.002  -0.004   0.002  0.00  0.00    +0.560 A 
ATOM     24  N   LIG    1       -1.145  -0.666   0.015  0.00  0.00    -0.570 NA
ATOM     25  C   LIG    1       -1.163  -1.989   0.003  0.00  0.00    +0.360 A 
ATOM     26  C   LIG    1        0.038  -2.681  -0.013  0.00  0.00    -0.140 A 
ATOM     27  C   LIG    1        1.220  -1.957  -0.020  0.00  0.00    +0.360 A 
ATOM     28  N   LIG    1        1.167  -0.635  -0.013  0.00  0.00    -0.570 NA
ENDBRANCH  21  23
ENDBRANCH  20  21
ENDBRANCH  19  20
ENDBRANCH   2  19
TORSDOF 9
