REMARK  Name = ZINCqH0000007k0j.0
REMARK                            x       y       z     vdW  Elec       q    Type
REMARK                         _______ _______ _______ _____ _____    ______ ____
ROOT
ATOM      1  N   LIG    1       -2.463   3.819   0.046  0.00  0.00    -0.720 N 
ATOM      2  H   LIG    1       -2.478   4.789   0.051  0.00  0.00    +0.410 HD
ENDROOT
BRANCH   1   6
ATOM      3  C   LIG    1        1.178   1.784   0.000  0.00  0.00    +0.060 A 
ATOM      4  C   LIG    1       -0.013   1.076   0.008  0.00  0.00    +0.010 A 
ATOM      5  C   LIG    1       -1.220   1.750   0.017  0.00  0.00    -0.060 A 
ATOM      6  C   LIG    1       -1.241   3.138   0.031  0.00  0.00    +0.230 A 
ATOM      7  C   LIG    1       -0.049   3.851   0.023  0.00  0.00    -0.080 A 
ATOM      8  C   LIG    1        1.160   3.175   0.008  0.00  0.00    +0.120 A 
BRANCH   3  10
ATOM      9  C   LIG    1        2.309  -0.309  -0.021  0.00  0.00    +0.230 C 
ATOM     10  O   LIG    1        2.365   1.119  -0.014  0.00  0.00    -0.310 OA
ENDBRANCH   3  10
BRANCH   8  11
ATOM     11  O   LIG    1        2.328   3.871   0.001  0.00  0.00    -0.310 OA
BRANCH  11  12
ATOM     12  C   LIG    1        2.234   5.297   0.010  0.00  0.00    +0.590 C 
ATOM     13  F   LIG    1        1.556   5.713   1.160  0.00  0.00    -0.200 F 
ATOM     14  F   LIG    1        1.535   5.725  -1.124  0.00  0.00    -0.200 F 
ENDBRANCH  11  12
ENDBRANCH   8  11
ENDBRANCH   1   6
BRANCH   1  15
ATOM     15  C   LIG    1       -3.720   3.067   0.054  0.00  0.00    +0.290 C 
BRANCH  15  16
ATOM     16  C   LIG    1       -4.807   3.911   0.668  0.00  0.00    -0.100 A 
ATOM     17  C   LIG    1       -4.874   5.263   0.388  0.00  0.00    +0.020 A 
ATOM     18  C   LIG    1       -5.873   6.036   0.948  0.00  0.00    +0.020 A 
ATOM     19  C   LIG    1       -6.800   5.460   1.797  0.00  0.00    +0.020 A 
ATOM     20  C   LIG    1       -6.729   4.109   2.082  0.00  0.00    +0.020 A 
ATOM     21  C   LIG    1       -5.733   3.335   1.518  0.00  0.00    +0.020 A 
ENDBRANCH  15  16
BRANCH  15  22
ATOM     22  C   LIG    1       -4.101   2.710  -1.360  0.00  0.00    +0.500 C 
ATOM     23  N   LIG    1       -5.230   2.013  -1.598  0.00  0.00    -0.700 N 
ATOM     24  H   LIG    1       -5.797   1.740  -0.860  0.00  0.00    +0.400 HD
ATOM     25  O   LIG    1       -3.392   3.050  -2.283  0.00  0.00    -0.510 OA
BRANCH  23  26
ATOM     26  C   LIG    1       -5.600   1.665  -2.973  0.00  0.00    +0.220 C 
ATOM     27  C   LIG    1       -7.064   1.846  -3.377  0.00  0.00    +0.010 C 
ATOM     28  C   LIG    1       -6.494   0.441  -3.176  0.00  0.00    +0.010 C 
ENDBRANCH  23  26
ENDBRANCH  15  22
ENDBRANCH   1  15
TORSDOF 8
