REMARK  Name = ZINCrD000000fQlx.0
REMARK                            x       y       z     vdW  Elec       q    Type
REMARK                         _______ _______ _______ _____ _____    ______ ____
ROOT
ATOM      1  C   LIG    1        0.054   1.352  -0.564  0.00  0.00    +0.510 C 
ATOM      2  N   LIG    1        1.153   1.891   0.001  0.00  0.00    -0.650 N 
ATOM      3  H   LIG    1        1.122   2.791   0.360  0.00  0.00    +0.420 HD
ATOM      4  O   LIG    1        0.118   0.267  -1.102  0.00  0.00    -0.490 OA
ENDROOT
BRANCH   2   5
ATOM      5  C   LIG    1        2.340   1.149   0.069  0.00  0.00    +0.190 A 
ATOM      6  C   LIG    1        2.297  -0.236   0.054  0.00  0.00    +0.040 A 
ATOM      7  C   LIG    1        3.471  -0.966   0.117  0.00  0.00    -0.010 A 
ATOM      8  C   LIG    1        4.689  -0.317   0.205  0.00  0.00    +0.020 A 
ATOM      9  C   LIG    1        4.741   1.065   0.225  0.00  0.00    +0.020 A 
ATOM     10 CL   LIG    1        3.414  -2.701   0.091  0.00  0.00    -0.060 Cl
ATOM     11  C   LIG    1        3.569   1.804   0.158  0.00  0.00    +0.060 A 
BRANCH  11  12
ATOM     12  N   LIG    1        3.619   3.202   0.179  0.00  0.00    -0.500 N 
ATOM     13  C   LIG    1        4.327   3.722  -1.001  0.00  0.00    +0.160 C 
ATOM     14  C   LIG    1        4.306   5.252  -0.968  0.00  0.00    +0.220 C 
ATOM     15  O   LIG    1        4.890   5.706   0.256  0.00  0.00    -0.380 OA
ATOM     16  C   LIG    1        4.225   5.220   1.425  0.00  0.00    +0.220 C 
ATOM     17  C   LIG    1        4.245   3.689   1.417  0.00  0.00    +0.160 C 
ENDBRANCH  11  12
ENDBRANCH   2   5
BRANCH   1  18
ATOM     18  C   LIG    1       -1.254   2.101  -0.532  0.00  0.00    +0.240 C 
BRANCH  18  19
ATOM     19  O   LIG    1       -2.259   1.333  -1.196  0.00  0.00    -0.280 OA
BRANCH  19  23
ATOM     20  C   LIG    1       -6.043   2.961  -1.378  0.00  0.00    -0.210 A 
ATOM     21  C   LIG    1       -5.788   1.709  -1.951  0.00  0.00    +0.120 A 
ATOM     22  C   LIG    1       -4.528   1.172  -1.888  0.00  0.00    -0.020 A 
ATOM     23  C   LIG    1       -3.504   1.869  -1.256  0.00  0.00    +0.160 A 
ATOM     24  C   LIG    1       -3.753   3.110  -0.680  0.00  0.00    -0.090 A 
ATOM     25  C   LIG    1       -5.008   3.658  -0.743  0.00  0.00    +0.110 A 
BRANCH  20  27
ATOM     26  C   LIG    1       -7.637   4.935  -0.927  0.00  0.00    +0.070 C 
ATOM     27  C   LIG    1       -7.391   3.540  -1.443  0.00  0.00    +0.400 C 
ATOM     28  O   LIG    1       -8.306   2.897  -1.911  0.00  0.00    -0.460 OA
ENDBRANCH  20  27
ENDBRANCH  19  23
ENDBRANCH  18  19
ENDBRANCH   1  18
TORSDOF 6
