REMARK  Name = ZINCpk00000xIaEc.0
REMARK                            x       y       z     vdW  Elec       q    Type
REMARK                         _______ _______ _______ _____ _____    ______ ____
ROOT
ATOM      1  S   LIG    1       -0.020   1.652   0.011  0.00  0.00    +2.730 S 
ATOM      2  O   LIG    1       -0.558   2.039   1.268  0.00  0.00    -0.960 OA
ATOM      3  O   LIG    1       -0.582   2.052  -1.231  0.00  0.00    -0.950 OA
ENDROOT
BRANCH   1   8
ATOM      4  C   LIG    1       -0.004  -0.855  -1.197  0.00  0.00    +0.320 C 
ATOM      5  C   LIG    1        0.053  -2.321  -0.719  0.00  0.00    +0.040 C 
ATOM      6  C   LIG    1        0.650  -2.201   0.708  0.00  0.00    +0.020 C 
ATOM      7  C   LIG    1        0.025  -0.870   1.195  0.00  0.00    +0.270 C 
ATOM      8  N   LIG    1        0.002  -0.004   0.002  0.00  0.00    -1.000 NA
BRANCH   4  12
ATOM      9  C   LIG    1       -3.203  -0.182  -4.997  0.00  0.00    +0.350 C 
ATOM     10  N   LIG    1       -2.653  -0.326  -3.646  0.00  0.00    -0.370 N 
ATOM     11  C   LIG    1       -1.359  -0.547  -3.335  0.00  0.00    +0.240 A 
ATOM     12  C   LIG    1       -1.265  -0.618  -1.987  0.00  0.00    -0.250 A 
ATOM     13  C   LIG    1       -2.547  -0.440  -1.456  0.00  0.00    +0.240 A 
ATOM     14  N   LIG    1       -3.379  -0.258  -2.450  0.00  0.00    -0.290 NA
ENDBRANCH   4  12
ENDBRANCH   1   8
BRANCH   1  15
ATOM     15  C   LIG    1        1.655   2.196  -0.002  0.00  0.00    -0.820 A 
ATOM     16  C   LIG    1        2.402   2.448  -1.102  0.00  0.00    +0.370 A 
ATOM     17  N   LIG    1        3.625   2.842  -0.688  0.00  0.00    -0.350 N 
ATOM     18  N   LIG    1        3.630   2.831   0.713  0.00  0.00    -0.290 NA
ATOM     19  C   LIG    1        2.447   2.450   1.123  0.00  0.00    +0.330 A 
BRANCH  17  20
ATOM     20  C   LIG    1        4.748   3.214  -1.551  0.00  0.00    +0.260 C 
ATOM     21  C   LIG    1        4.220   3.913  -2.807  0.00  0.00    +0.010 C 
ATOM     22  C   LIG    1        5.394   4.227  -3.739  0.00  0.00    +0.240 C 
ATOM     23  O   LIG    1        6.082   3.017  -4.060  0.00  0.00    -0.380 OA
ATOM     24  C   LIG    1        6.639   2.344  -2.929  0.00  0.00    +0.230 C 
ATOM     25  C   LIG    1        5.515   1.954  -1.966  0.00  0.00    -0.000 C 
ENDBRANCH  17  20
ENDBRANCH   1  15
TORSDOF 4
