REMARK  Name = ZINC9u0000000C7O.0
REMARK                            x       y       z     vdW  Elec       q    Type
REMARK                         _______ _______ _______ _____ _____    ______ ____
ROOT
ATOM      1  C   LIG    1       -1.306   1.937   0.019  0.00  0.00    -0.170 A 
ATOM      2  C   LIG    1       -2.509   1.361   0.021  0.00  0.00    +0.150 A 
ATOM      3  C   LIG    1       -3.578   2.241   0.031  0.00  0.00    +0.060 A 
ATOM      4  C   LIG    1       -3.241   3.533   0.037  0.00  0.00    -0.180 A 
ATOM      5 BR   LIG    1       -4.462   4.977   0.051  0.00  0.00    +0.050 Br
ATOM      6  S   LIG    1       -1.489   3.686   0.037  0.00  0.00    +0.310 S 
ENDROOT
BRANCH   1   8
ATOM      7  O   LIG    1        0.002  -0.004   0.002  0.00  0.00    -0.130 OA
ATOM      8  N   LIG    1       -0.014   1.214   0.009  0.00  0.00    +0.060 N 
ATOM      9  O   LIG    1        1.032   1.837   0.002  0.00  0.00    -0.150 OA
ENDBRANCH   1   8
TORSDOF 1
