REMARK  Name = ZINCrg00000BazzA.1
REMARK                            x       y       z     vdW  Elec       q    Type
REMARK                         _______ _______ _______ _____ _____    ______ ____
ROOT
ATOM      1  C   LIG    1       -1.542   7.108   3.148  0.00  0.00    -0.030 A 
ATOM      2  N   LIG    1       -2.025   5.888   3.293  0.00  0.00    -0.250 NA
ATOM      3  N   LIG    1       -1.337   5.057   2.604  0.00  0.00    -0.270 N 
ATOM      4  C   LIG    1       -1.540   3.605   2.487  0.00  0.00    +0.310 C 
ATOM      5  C   LIG    1       -0.765   3.110   1.261  0.00  0.00    +0.110 C 
ATOM      6  O   LIG    1        0.571   3.618   1.290  0.00  0.00    -0.360 OA
ATOM      7  C   LIG    1        0.660   5.030   1.055  0.00  0.00    +0.330 C 
ATOM      8  C   LIG    1       -0.729   1.579   1.268  0.00  0.00    +0.080 C 
ATOM      9  C   LIG    1       -0.013   1.086   0.008  0.00  0.00    +0.190 C 
ATOM     10  N   LIG    1       -0.723   1.572  -1.182  0.00  0.00    -0.530 NA
ATOM     11  C   LIG    1       -0.730   3.040  -1.234  0.00  0.00    +0.180 C 
ATOM     12  C   LIG    1       -1.466   3.592  -0.012  0.00  0.00    +0.020 C 
ATOM     13  C   LIG    1       -0.339   5.711   1.955  0.00  0.00    -0.030 A 
ATOM     14  C   LIG    1       -0.432   7.014   2.271  0.00  0.00    +0.010 A 
ENDROOT
BRANCH   1  18
ATOM     15  N   LIG    1       -3.130   8.278   4.596  0.00  0.00    -0.840 N 
ATOM     16  H   LIG    1       -3.471   9.086   5.011  0.00  0.00    +0.410 HD
ATOM     17  H   LIG    1       -3.560   7.426   4.770  0.00  0.00    +0.410 HD
ATOM     18  C   LIG    1       -2.060   8.339   3.779  0.00  0.00    +0.610 C 
ATOM     19  O   LIG    1       -1.522   9.407   3.562  0.00  0.00    -0.530 OA
ENDBRANCH   1  18
BRANCH  10  20
ATOM     20  C   LIG    1       -0.146   1.004  -2.408  0.00  0.00    +0.290 C 
BRANCH  20  21
ATOM     21  C   LIG    1       -1.040   1.323  -3.578  0.00  0.00    +0.080 A 
ATOM     22  N   LIG    1       -2.089   0.634  -3.954  0.00  0.00    -0.270 NA
ATOM     23  N   LIG    1       -2.641   1.258  -5.074  0.00  0.00    -0.370 N 
ATOM     24  C   LIG    1       -3.824   0.844  -5.835  0.00  0.00    +0.300 C 
ATOM     25  C   LIG    1       -4.303   2.026  -6.684  0.00  0.00    +0.030 C 
ATOM     26  C   LIG    1       -3.124   2.601  -7.475  0.00  0.00    +0.020 C 
ATOM     27  C   LIG    1       -2.153   3.288  -6.506  0.00  0.00    +0.120 C 
ATOM     28  C   LIG    1       -1.887   2.344  -5.359  0.00  0.00    +0.090 A 
ATOM     29  C   LIG    1       -0.896   2.412  -4.448  0.00  0.00    -0.130 A 
ENDBRANCH  20  21
ENDBRANCH  10  20
TORSDOF 3
