REMARK  Name = ZINCqH0000051F5G.0
REMARK                            x       y       z     vdW  Elec       q    Type
REMARK                         _______ _______ _______ _____ _____    ______ ____
ROOT
ATOM      1  O   LIG    1       -4.288  -8.944  -1.393  0.00  0.00    -0.520 OA
ATOM      2  C   LIG    1       -3.588  -7.993  -1.116  0.00  0.00    +0.510 C 
ATOM      3  C   LIG    1       -2.920  -7.944   0.231  0.00  0.00    +0.240 C 
ATOM      4  N   LIG    1       -1.470  -7.970   0.041  0.00  0.00    -0.490 NA
ATOM      5  C   LIG    1       -0.848  -7.024  -0.569  0.00  0.00    +0.270 C 
ATOM      6  C   LIG    1       -1.485  -5.824  -1.134  0.00  0.00    -0.120 A 
ATOM      7  C   LIG    1       -0.818  -4.602  -0.977  0.00  0.00    +0.080 A 
ATOM      8  C   LIG    1       -1.364  -3.433  -1.484  0.00  0.00    -0.010 A 
ATOM      9  C   LIG    1       -2.590  -3.472  -2.149  0.00  0.00    +0.060 A 
ATOM     10  C   LIG    1       -3.246  -4.670  -2.310  0.00  0.00    +0.010 A 
ATOM     11  C   LIG    1       -2.707  -5.856  -1.806  0.00  0.00    +0.170 A 
ATOM     12  N   LIG    1       -3.432  -7.020  -2.011  0.00  0.00    -0.660 N 
ATOM     13  H   LIG    1       -3.858  -7.135  -2.874  0.00  0.00    +0.410 HD
ENDROOT
BRANCH   5  14
ATOM     14  C   LIG    1        0.620  -7.153  -0.716  0.00  0.00    -0.070 A 
ATOM     15  C   LIG    1        1.283  -6.482  -1.743  0.00  0.00    +0.040 A 
ATOM     16  C   LIG    1        2.652  -6.602  -1.871  0.00  0.00    +0.000 A 
ATOM     17  C   LIG    1        3.365  -7.396  -0.991  0.00  0.00    +0.030 A 
ATOM     18  C   LIG    1        2.712  -8.068   0.027  0.00  0.00    +0.000 A 
ATOM     19  C   LIG    1        1.345  -7.952   0.169  0.00  0.00    +0.060 A 
ENDBRANCH   5  14
BRANCH   8  20
ATOM     20  C   LIG    1       -0.649  -2.142  -1.314  0.00  0.00    -0.190 A 
ATOM     21  C   LIG    1       -1.073  -0.922  -1.755  0.00  0.00    +0.280 A 
ATOM     22  N   LIG    1       -0.139  -0.015  -1.404  0.00  0.00    -0.440 N 
ATOM     23  N   LIG    1        0.885  -0.683  -0.721  0.00  0.00    -0.270 NA
ATOM     24  C   LIG    1        0.586  -1.954  -0.664  0.00  0.00    +0.280 A 
BRANCH  22  25
ATOM     25  C   LIG    1       -0.190   1.423  -1.683  0.00  0.00    +0.670 C 
ATOM     26  F   LIG    1       -0.894   1.642  -2.872  0.00  0.00    -0.180 F 
ATOM     27  F   LIG    1        1.111   1.919  -1.813  0.00  0.00    -0.170 F 
ENDBRANCH  22  25
ENDBRANCH   8  20
TORSDOF 3
