REMARK  Name = ZINCpe000000SFLp.0
REMARK                            x       y       z     vdW  Elec       q    Type
REMARK                         _______ _______ _______ _____ _____    ______ ____
ROOT
ATOM      1  C   LIG    1        3.147   4.269  -1.855  0.00  0.00    +0.210 C 
ENDROOT
BRANCH   1   2
ATOM      2  O   LIG    1        2.840   5.564  -2.374  0.00  0.00    -0.540 OA
ATOM      3  H   LIG    1        3.284   6.288  -1.913  0.00  0.00    +0.380 HD
ENDBRANCH   1   2
BRANCH   1   4
ATOM      4  C   LIG    1        4.655   4.025  -1.952  0.00  0.00    +0.180 C 
BRANCH   4   5
ATOM      5  O   LIG    1        5.042   3.982  -3.327  0.00  0.00    -0.300 OA
BRANCH   5  10
ATOM      6  C   LIG    1        8.157   3.503  -5.168  0.00  0.00    -0.130 A 
ATOM      7  C   LIG    1        9.054   3.342  -4.108  0.00  0.00    +0.030 A 
ATOM      8  C   LIG    1        8.600   3.396  -2.806  0.00  0.00    +0.040 A 
ATOM      9  C   LIG    1        7.259   3.616  -2.546  0.00  0.00    -0.050 A 
ATOM     10  C   LIG    1        6.359   3.772  -3.591  0.00  0.00    +0.120 A 
ATOM     11  C   LIG    1        6.801   3.719  -4.901  0.00  0.00    +0.050 A 
BRANCH   6  13
ATOM     12  C   LIG    1       10.098   3.212  -6.841  0.00  0.00    +0.090 C 
ATOM     13  C   LIG    1        8.636   3.445  -6.558  0.00  0.00    +0.390 C 
ATOM     14  O   LIG    1        7.856   3.585  -7.475  0.00  0.00    -0.450 OA
ENDBRANCH   6  13
ENDBRANCH   5  10
ENDBRANCH   4   5
ENDBRANCH   1   4
BRANCH   1  15
ATOM     15  C   LIG    1        2.712   4.190  -0.390  0.00  0.00    +0.320 C 
BRANCH  15  16
ATOM     16  N   LIG    1        1.253   4.295  -0.308  0.00  0.00    -0.470 N 
ATOM     17  C   LIG    1        0.485   3.172  -0.409  0.00  0.00    +0.210 A 
ATOM     18  C   LIG    1       -0.862   3.265  -0.334  0.00  0.00    -0.110 A 
ATOM     19  C   LIG    1       -1.464   4.528  -0.151  0.00  0.00    +0.560 A 
ATOM     20  N   LIG    1       -0.692   5.625  -0.053  0.00  0.00    -0.380 N 
ATOM     21  N   LIG    1       -0.978   6.985   0.132  0.00  0.00    -0.290 NA
ATOM     22  C   LIG    1        0.167   7.615   0.150  0.00  0.00    +0.490 A 
ATOM     23  N   LIG    1        1.158   6.738  -0.004  0.00  0.00    -0.540 NA
ATOM     24  O   LIG    1       -2.676   4.624  -0.081  0.00  0.00    -0.480 OA
ATOM     25  C   LIG    1        1.138   1.828  -0.605  0.00  0.00    +0.170 C 
ATOM     26  C   LIG    1        0.662   5.524  -0.129  0.00  0.00    +0.510 A 
ENDBRANCH  15  16
ENDBRANCH   1  15
TORSDOF 7
