REMARK  Name = ZINCkj00000GeSog.1
REMARK                            x       y       z     vdW  Elec       q    Type
REMARK                         _______ _______ _______ _____ _____    ______ ____
ROOT
ATOM      1  N   LIG    1       -0.012   1.005   0.008  0.00  0.00    -0.380 N 
ATOM      2  C   LIG    1       -0.699   1.478   1.216  0.00  0.00    +0.270 C 
ATOM      3  C   LIG    1       -0.703   3.008   1.235  0.00  0.00    +0.210 C 
ATOM      4  N   LIG    1       -1.388   3.508   0.034  0.00  0.00    -0.520 NA
ATOM      5  C   LIG    1       -0.726   3.021  -1.185  0.00  0.00    +0.220 C 
ATOM      6  C   LIG    1       -0.722   1.491  -1.183  0.00  0.00    +0.180 C 
ATOM      7  H   LIG    1        0.002  -0.004   0.002  0.00  0.00    +0.430 HD
ENDROOT
BRANCH   6   8
ATOM      8  C   LIG    1       -0.015   0.982  -2.441  0.00  0.00    +0.050 C 
ATOM      9  C   LIG    1       -0.120  -0.543  -2.502  0.00  0.00    +0.030 C 
ENDBRANCH   6   8
BRANCH   1  10
ATOM     10  C   LIG    1        1.367   1.513  -0.003  0.00  0.00    +0.250 C 
BRANCH  10  11
ATOM     11  C   LIG    1        2.143   0.907   1.168  0.00  0.00    +0.200 C 
BRANCH  11  12
ATOM     12  O   LIG    1        2.259  -0.505   0.982  0.00  0.00    -0.400 OA
BRANCH  12  14
ATOM     13  C   LIG    1        3.034  -2.671   1.725  0.00  0.00    +0.050 C 
ATOM     14  C   LIG    1        2.971  -1.172   2.027  0.00  0.00    +0.180 C 
ENDBRANCH  12  14
ENDBRANCH  11  12
ENDBRANCH  10  11
ENDBRANCH   1  10
BRANCH   4  15
ATOM     15  C   LIG    1       -1.463   4.975   0.043  0.00  0.00    +0.390 C 
BRANCH  15  16
ATOM     16  C   LIG    1       -0.074   5.550  -0.071  0.00  0.00    +0.120 A 
ATOM     17  N   LIG    1        0.718   5.846   0.914  0.00  0.00    -0.370 NA
ATOM     18  O   LIG    1        1.767   6.287   0.492  0.00  0.00    +0.080 OA
ATOM     19  C   LIG    1        1.738   6.322  -0.843  0.00  0.00    +0.190 A 
ATOM     20  C   LIG    1        2.838   6.808  -1.752  0.00  0.00    +0.250 C 
ATOM     21  N   LIG    1        0.570   5.855  -1.212  0.00  0.00    -0.480 NA
ENDBRANCH  15  16
ENDBRANCH   4  15
TORSDOF 7
