REMARK  Name = ZINCkj00000GeSog.0
REMARK                            x       y       z     vdW  Elec       q    Type
REMARK                         _______ _______ _______ _____ _____    ______ ____
ROOT
ATOM      1  N   LIG    1       -3.696  -1.331  -3.246  0.00  0.00    -0.380 N 
ATOM      2  C   LIG    1       -2.565  -0.395  -3.304  0.00  0.00    +0.280 C 
ATOM      3  C   LIG    1       -2.011  -0.178  -1.894  0.00  0.00    +0.200 C 
ATOM      4  N   LIG    1       -1.575  -1.466  -1.338  0.00  0.00    -0.530 NA
ATOM      5  C   LIG    1       -2.691  -2.422  -1.298  0.00  0.00    +0.220 C 
ATOM      6  C   LIG    1       -3.240  -2.621  -2.712  0.00  0.00    +0.180 C 
ATOM      7  H   LIG    1       -4.414  -0.954  -2.646  0.00  0.00    +0.420 HD
ENDROOT
BRANCH   6   8
ATOM      8  C   LIG    1       -4.415  -3.600  -2.670  0.00  0.00    +0.030 C 
ATOM      9  C   LIG    1       -3.932  -4.954  -2.148  0.00  0.00    +0.060 C 
ENDBRANCH   6   8
BRANCH   1  10
ATOM     10  C   LIG    1       -4.240  -1.525  -4.597  0.00  0.00    +0.280 C 
BRANCH  10  11
ATOM     11  C   LIG    1       -4.872  -0.220  -5.085  0.00  0.00    +0.200 C 
BRANCH  11  12
ATOM     12  O   LIG    1       -3.847   0.749  -5.315  0.00  0.00    -0.400 OA
BRANCH  12  14
ATOM     13  C   LIG    1       -3.157   2.965  -5.987  0.00  0.00    +0.050 C 
ATOM     14  C   LIG    1       -4.334   2.011  -5.776  0.00  0.00    +0.180 C 
ENDBRANCH  12  14
ENDBRANCH  11  12
ENDBRANCH  10  11
ENDBRANCH   1  10
BRANCH   4  15
ATOM     15  C   LIG    1       -0.983  -1.291  -0.005  0.00  0.00    +0.350 C 
BRANCH  15  16
ATOM     16  C   LIG    1        0.298  -0.506  -0.123  0.00  0.00    +0.170 A 
ATOM     17  N   LIG    1        0.416   0.786  -0.063  0.00  0.00    -0.380 NA
ATOM     18  O   LIG    1        1.578   1.108  -0.193  0.00  0.00    +0.080 OA
ATOM     19  C   LIG    1        2.335   0.019  -0.354  0.00  0.00    +0.200 A 
ATOM     20  C   LIG    1        3.829  -0.016  -0.547  0.00  0.00    +0.250 C 
ATOM     21  N   LIG    1        1.529  -1.015  -0.311  0.00  0.00    -0.470 NA
ENDBRANCH  15  16
ENDBRANCH   4  15
TORSDOF 7
