REMARK  Name = ZINCtV00000QhGem.0
REMARK                            x       y       z     vdW  Elec       q    Type
REMARK                         _______ _______ _______ _____ _____    ______ ____
ROOT
ATOM      1  C   LIG    1       -2.200   5.562  -2.251  0.00  0.00    +0.150 C 
ATOM      2  C   LIG    1       -2.926   5.281  -0.961  0.00  0.00    +0.020 A 
ATOM      3  C   LIG    1       -4.126   5.779  -0.619  0.00  0.00    +0.010 A 
ATOM      4  C   LIG    1       -4.435   5.239   0.712  0.00  0.00    -0.260 A 
ATOM      5  C   LIG    1       -3.360   4.440   1.056  0.00  0.00    +0.130 A 
ATOM      6  C   LIG    1       -3.212   3.660   2.337  0.00  0.00    +0.150 C 
ATOM      7  N   LIG    1       -2.468   4.481   0.048  0.00  0.00    -0.390 N 
ENDROOT
BRANCH   7   8
ATOM      8  C   LIG    1       -1.245   3.794   0.033  0.00  0.00    +0.110 A 
ATOM      9  C   LIG    1       -0.051   4.502   0.026  0.00  0.00    +0.080 A 
ATOM     10  C   LIG    1        1.153   3.825   0.012  0.00  0.00    +0.030 A 
ATOM     11  C   LIG    1        1.169   2.441   0.004  0.00  0.00    +0.130 A 
ATOM     12  C   LIG    1       -0.021   1.732   0.012  0.00  0.00    -0.060 A 
ATOM     13 CL   LIG    1        0.002  -0.004   0.002  0.00  0.00    -0.030 Cl
ATOM     14  F   LIG    1        2.348   1.780  -0.010  0.00  0.00    -0.120 F 
ATOM     15  C   LIG    1       -1.228   2.406   0.021  0.00  0.00    +0.080 A 
ENDBRANCH   7   8
BRANCH   4  16
ATOM     16  C   LIG    1       -5.636   5.493   1.510  0.00  0.00    +0.430 C 
ATOM     17  O   LIG    1       -5.760   4.977   2.601  0.00  0.00    -0.440 OA
BRANCH  16  18
ATOM     18  C   LIG    1       -6.719   6.394   0.975  0.00  0.00    +0.250 C 
BRANCH  18  19
ATOM     19  O   LIG    1       -7.796   6.485   1.945  0.00  0.00    -0.330 OA
BRANCH  19  20
ATOM     20  C   LIG    1       -8.850   7.258   1.619  0.00  0.00    +0.510 C 
ATOM     21  O   LIG    1       -8.868   7.841   0.553  0.00  0.00    -0.480 OA
BRANCH  20  22
ATOM     22  C   LIG    1       -9.982   7.397   2.556  0.00  0.00    -0.110 A 
ATOM     23  C   LIG    1       -9.966   6.724   3.779  0.00  0.00    +0.140 A 
ATOM     24  C   LIG    1      -11.026   6.863   4.653  0.00  0.00    -0.110 A 
ATOM     25  C   LIG    1      -12.107   7.659   4.314  0.00  0.00    +0.110 A 
ATOM     26  C   LIG    1      -12.132   8.324   3.102  0.00  0.00    +0.040 A 
ATOM     27 BR   LIG    1      -11.004   5.958   6.313  0.00  0.00    -0.030 Br
ATOM     28  C   LIG    1      -11.077   8.199   2.220  0.00  0.00    +0.030 A 
ATOM     29 CL   LIG    1      -11.110   9.034   0.699  0.00  0.00    -0.020 Cl
ENDBRANCH  20  22
ENDBRANCH  19  20
ENDBRANCH  18  19
ENDBRANCH  16  18
ENDBRANCH   4  16
TORSDOF 6
