REMARK  Name = ZINCrD00000F5Lj6.0
REMARK                            x       y       z     vdW  Elec       q    Type
REMARK                         _______ _______ _______ _____ _____    ______ ____
ROOT
ATOM      1  C   LIG    1        2.281   4.365   0.553  0.00  0.00    -0.140 C 
ATOM      2  C   LIG    1        1.151   3.594   0.717  0.00  0.00    +0.200 C 
ATOM      3  S   LIG    1       -0.525   4.170   0.682  0.00  0.00    +0.050 S 
ATOM      4  C   LIG    1       -1.248   2.520   0.967  0.00  0.00    +0.110 C 
ATOM      5  C   LIG    1       -0.040   1.620   1.075  0.00  0.00    +0.530 C 
ATOM      6  O   LIG    1       -0.122   0.426   1.270  0.00  0.00    -0.470 OA
ATOM      7  N   LIG    1        1.117   2.246   0.934  0.00  0.00    -0.530 N 
ENDROOT
BRANCH   1   8
ATOM      8  C   LIG    1        2.163   5.744   0.336  0.00  0.00    +0.430 C 
ATOM      9  O   LIG    1        1.060   6.262   0.292  0.00  0.00    -0.460 OA
BRANCH   8  16
ATOM     10  C   LIG    1        1.903   8.524  -0.427  0.00  0.00    +0.110 C 
ATOM     11  C   LIG    1        3.264   7.914  -0.207  0.00  0.00    -0.030 A 
ATOM     12  C   LIG    1        4.399   8.682  -0.364  0.00  0.00    +0.000 A 
ATOM     13  C   LIG    1        5.649   8.122  -0.167  0.00  0.00    +0.040 A 
ATOM     14  C   LIG    1        5.769   6.792   0.192  0.00  0.00    -0.010 A 
ATOM     15  C   LIG    1        4.641   6.014   0.357  0.00  0.00    +0.060 A 
ATOM     16  C   LIG    1        3.378   6.573   0.161  0.00  0.00    -0.150 A 
ENDBRANCH   8  16
ENDBRANCH   1   8
BRANCH   7  17
ATOM     17  C   LIG    1        2.369   1.489   1.012  0.00  0.00    +0.350 C 
BRANCH  17  18
ATOM     18  C   LIG    1        2.749   1.005  -0.363  0.00  0.00    +0.500 C 
ATOM     19  N   LIG    1        3.873   0.281  -0.535  0.00  0.00    -0.660 N 
ATOM     20  H   LIG    1        4.400   0.013   0.234  0.00  0.00    +0.420 HD
ATOM     21  O   LIG    1        2.044   1.266  -1.315  0.00  0.00    -0.500 OA
BRANCH  19  22
ATOM     22  C   LIG    1        4.280  -0.084  -1.825  0.00  0.00    +0.120 A 
ATOM     23  C   LIG    1        3.796   0.605  -2.928  0.00  0.00    +0.050 A 
ATOM     24  C   LIG    1        4.199   0.243  -4.199  0.00  0.00    +0.020 A 
ATOM     25  C   LIG    1        5.086  -0.803  -4.374  0.00  0.00    +0.030 A 
ATOM     26  C   LIG    1        5.572  -1.493  -3.277  0.00  0.00    +0.010 A 
ATOM     27  C   LIG    1        5.176  -1.133  -2.002  0.00  0.00    +0.070 A 
ATOM     28  F   LIG    1        5.654  -1.803  -0.931  0.00  0.00    -0.140 F 
ENDBRANCH  19  22
ENDBRANCH  17  18
ENDBRANCH   7  17
TORSDOF 5
