REMARK  Name = ZINCkj00000Zl2SR.0
REMARK                            x       y       z     vdW  Elec       q    Type
REMARK                         _______ _______ _______ _____ _____    ______ ____
ROOT
ATOM      1  N   LIG    1        2.406   1.090  -0.015  0.00  0.00    -0.660 N 
ATOM      2  H   LIG    1        3.241   1.578  -0.088  0.00  0.00    +0.400 HD
ATOM      3  C   LIG    1        2.418  -0.255   0.080  0.00  0.00    +0.480 C 
ATOM      4  O   LIG    1        1.373  -0.871   0.087  0.00  0.00    -0.490 OA
ENDROOT
BRANCH   1  10
ATOM      5  C   LIG    1       -4.709   2.821  -1.155  0.00  0.00    +0.140 C 
ATOM      6  C   LIG    1       -3.248   2.688  -0.807  0.00  0.00    +0.090 A 
ATOM      7  C   LIG    1       -2.474   1.638  -1.123  0.00  0.00    -0.060 A 
ATOM      8  C   LIG    1       -1.135   1.919  -0.598  0.00  0.00    -0.090 A 
ATOM      9  C   LIG    1        0.075   1.224  -0.609  0.00  0.00    +0.080 A 
ATOM     10  C   LIG    1        1.188   1.782  -0.008  0.00  0.00    +0.090 A 
ATOM     11  C   LIG    1        1.103   3.031   0.605  0.00  0.00    +0.010 A 
ATOM     12  C   LIG    1       -0.088   3.722   0.625  0.00  0.00    +0.020 A 
ATOM     13  C   LIG    1       -1.217   3.179   0.022  0.00  0.00    +0.090 A 
ATOM     14  N   LIG    1       -2.516   3.619  -0.123  0.00  0.00    -0.590 N 
ATOM     15  H   LIG    1       -2.860   4.463   0.210  0.00  0.00    +0.420 HD
ENDBRANCH   1  10
BRANCH   3  16
ATOM     16  C   LIG    1        3.729  -0.992   0.178  0.00  0.00    +0.250 C 
BRANCH  16  17
ATOM     17  C   LIG    1        4.427  -0.620   1.488  0.00  0.00    -0.140 C 
ATOM     18  C   LIG    1        5.229   0.692   1.411  0.00  0.00    +0.320 C 
ATOM     19  N   LIG    1        6.272  -0.017   2.185  0.00  0.00    -0.530 N 
ATOM     20  H   LIG    1        7.207   0.198   1.871  0.00  0.00    +0.430 HD
ATOM     21  H   LIG    1        6.164   0.091   3.182  0.00  0.00    +0.440 HD
ATOM     22  C   LIG    1        3.502  -0.709   2.703  0.00  0.00    +0.090 C 
ATOM     23  C   LIG    1        5.782  -1.322   1.688  0.00  0.00    +0.340 C 
ENDBRANCH  16  17
BRANCH  16  24
ATOM     24  O   LIG    1        3.486  -2.400   0.150  0.00  0.00    -0.520 OA
ATOM     25  H   LIG    1        2.926  -2.717   0.872  0.00  0.00    +0.390 HD
ENDBRANCH  16  24
ENDBRANCH   3  16
TORSDOF 4
