REMARK  Name = ZINCpe000000XEJa.1
REMARK                            x       y       z     vdW  Elec       q    Type
REMARK                         _______ _______ _______ _____ _____    ______ ____
ROOT
ATOM      1  N   LIG    1        0.002  -0.004   0.002  0.00  0.00    -0.730 N 
ATOM      2  H   LIG    1       -0.831  -0.500   0.007  0.00  0.00    +0.400 HD
ATOM      3  C   LIG    1       -0.016   1.344   0.009  0.00  0.00    +0.510 C 
ATOM      4  O   LIG    1        1.026   1.964   0.003  0.00  0.00    -0.520 OA
ENDROOT
BRANCH   1   5
ATOM      5  C   LIG    1        1.281  -0.719  -0.014  0.00  0.00    +0.260 C 
BRANCH   5   6
ATOM      6  C   LIG    1        1.021  -2.227  -0.020  0.00  0.00    +0.010 C 
BRANCH   6   7
ATOM      7  C   LIG    1        2.357  -2.974  -0.036  0.00  0.00    +0.340 C 
BRANCH   7  14
ATOM      8  C   LIG    1        2.089  -4.761   2.482  0.00  0.00    +0.150 C 
ATOM      9  C   LIG    1        1.990  -5.207   1.046  0.00  0.00    +0.090 A 
ATOM     10  C   LIG    1        1.762  -6.470   0.617  0.00  0.00    -0.120 A 
ATOM     11  C   LIG    1        1.751  -6.454  -0.781  0.00  0.00    +0.070 A 
ATOM     12  N   LIG    1        1.959  -5.224  -1.177  0.00  0.00    -0.300 NA
ATOM     13  C   LIG    1        1.538  -7.646  -1.677  0.00  0.00    +0.160 C 
ATOM     14  N   LIG    1        2.108  -4.418  -0.042  0.00  0.00    -0.370 N 
ENDBRANCH   7  14
ENDBRANCH   6   7
ENDBRANCH   5   6
ENDBRANCH   1   5
BRANCH   3  15
ATOM     15  C   LIG    1       -1.331   2.079   0.020  0.00  0.00    +0.250 C 
BRANCH  15  16
ATOM     16  N   LIG    1       -1.083   3.527   0.026  0.00  0.00    -0.440 N 
ATOM     17  C   LIG    1       -0.451   3.958  -1.228  0.00  0.00    +0.260 C 
BRANCH  16  18
ATOM     18  C   LIG    1       -2.252   4.230   0.260  0.00  0.00    +0.430 A 
ATOM     19  C   LIG    1       -2.247   5.634   0.315  0.00  0.00    -0.060 A 
ATOM     20  N   LIG    1       -1.298   6.590   0.173  0.00  0.00    -0.460 NA
ATOM     21  C   LIG    1       -1.842   7.764   0.311  0.00  0.00    +0.500 A 
ATOM     22  N   LIG    1       -3.179   7.634   0.545  0.00  0.00    -0.580 N 
ATOM     23  H   LIG    1       -3.810   8.357   0.683  0.00  0.00    +0.430 HD
ATOM     24  C   LIG    1       -3.466   6.293   0.549  0.00  0.00    +0.290 A 
ATOM     25  N   LIG    1       -4.568   5.570   0.721  0.00  0.00    -0.540 NA
ATOM     26  C   LIG    1       -4.523   4.255   0.667  0.00  0.00    +0.560 A 
ATOM     27  N   LIG    1       -3.403   3.593   0.443  0.00  0.00    -0.570 NA
ENDBRANCH  16  18
ENDBRANCH  15  16
ENDBRANCH   3  15
TORSDOF 7
