REMARK  Name = ZINCpe000000XEJa.0
REMARK                            x       y       z     vdW  Elec       q    Type
REMARK                         _______ _______ _______ _____ _____    ______ ____
ROOT
ATOM      1  N   LIG    1       -0.288   1.272  -2.443  0.00  0.00    -0.730 N 
ATOM      2  H   LIG    1        0.507   0.726  -2.543  0.00  0.00    +0.400 HD
ATOM      3  C   LIG    1       -0.742   1.585  -1.213  0.00  0.00    +0.520 C 
ATOM      4  O   LIG    1       -1.736   2.268  -1.088  0.00  0.00    -0.520 OA
ENDROOT
BRANCH   1   5
ATOM      5  C   LIG    1       -0.997   1.758  -3.630  0.00  0.00    +0.260 C 
BRANCH   5   6
ATOM      6  C   LIG    1       -0.281   1.264  -4.889  0.00  0.00    +0.010 C 
BRANCH   6   7
ATOM      7  C   LIG    1       -1.021   1.771  -6.128  0.00  0.00    +0.340 C 
BRANCH   7  14
ATOM      8  C   LIG    1        1.242   3.279  -7.617  0.00  0.00    +0.150 C 
ATOM      9  C   LIG    1        0.651   1.944  -7.991  0.00  0.00    +0.080 A 
ATOM     10  C   LIG    1        1.015   1.177  -9.044  0.00  0.00    -0.120 A 
ATOM     11  C   LIG    1        0.219   0.028  -9.036  0.00  0.00    +0.080 A 
ATOM     12  N   LIG    1       -0.591   0.099  -8.011  0.00  0.00    -0.300 NA
ATOM     13  C   LIG    1        0.282  -1.099 -10.035  0.00  0.00    +0.160 C 
ATOM     14  N   LIG    1       -0.335   1.299  -7.334  0.00  0.00    -0.370 N 
ENDBRANCH   7  14
ENDBRANCH   6   7
ENDBRANCH   5   6
ENDBRANCH   1   5
BRANCH   3  15
ATOM     15  C   LIG    1       -0.013   1.086   0.008  0.00  0.00    +0.260 C 
BRANCH  15  16
ATOM     16  N   LIG    1       -0.700   1.560   1.217  0.00  0.00    -0.460 N 
ATOM     17  C   LIG    1       -0.615   3.022   1.332  0.00  0.00    +0.250 C 
BRANCH  16  18
ATOM     18  C   LIG    1       -0.196   0.942   2.349  0.00  0.00    +0.400 A 
ATOM     19  C   LIG    1       -0.705   1.243   3.614  0.00  0.00    -0.080 A 
ATOM     20  N   LIG    1       -1.684   2.083   4.101  0.00  0.00    -0.570 N 
ATOM     21  H   LIG    1       -2.248   2.675   3.578  0.00  0.00    +0.430 HD
ATOM     22  C   LIG    1       -1.711   1.929   5.444  0.00  0.00    +0.540 A 
ATOM     23  N   LIG    1       -0.818   1.053   5.812  0.00  0.00    -0.490 NA
ATOM     24  C   LIG    1       -0.161   0.590   4.732  0.00  0.00    +0.310 A 
ATOM     25  N   LIG    1        0.823  -0.295   4.542  0.00  0.00    -0.500 NA
ATOM     26  C   LIG    1        1.270  -0.547   3.332  0.00  0.00    +0.540 A 
ATOM     27  N   LIG    1        0.782   0.043   2.256  0.00  0.00    -0.560 NA
ENDBRANCH  16  18
ENDBRANCH  15  16
ENDBRANCH   3  15
TORSDOF 7
