REMARK  Name = ZINCpe000000XEJa.2
REMARK                            x       y       z     vdW  Elec       q    Type
REMARK                         _______ _______ _______ _____ _____    ______ ____
ROOT
ATOM      1  N   LIG    1       -1.846   4.919   1.712  0.00  0.00    -0.730 N 
ATOM      2  H   LIG    1       -2.411   5.216   0.981  0.00  0.00    +0.400 HD
ATOM      3  C   LIG    1       -0.675   4.305   1.451  0.00  0.00    +0.500 C 
ATOM      4  O   LIG    1        0.031   3.934   2.365  0.00  0.00    -0.520 OA
ENDROOT
BRANCH   1   5
ATOM      5  C   LIG    1       -2.266   5.139   3.098  0.00  0.00    +0.260 C 
BRANCH   5   6
ATOM      6  C   LIG    1       -3.621   5.850   3.114  0.00  0.00    +0.010 C 
BRANCH   6   7
ATOM      7  C   LIG    1       -4.059   6.080   4.562  0.00  0.00    +0.340 C 
BRANCH   7  14
ATOM      8  C   LIG    1       -4.476   9.152   4.594  0.00  0.00    +0.150 C 
ATOM      9  C   LIG    1       -5.552   8.096   4.592  0.00  0.00    +0.080 A 
ATOM     10  C   LIG    1       -6.887   8.317   4.600  0.00  0.00    -0.120 A 
ATOM     11  C   LIG    1       -7.529   7.074   4.600  0.00  0.00    +0.070 A 
ATOM     12  N   LIG    1       -6.612   6.141   4.587  0.00  0.00    -0.300 NA
ATOM     13  C   LIG    1       -9.019   6.849   4.614  0.00  0.00    +0.160 C 
ATOM     14  N   LIG    1       -5.356   6.761   4.578  0.00  0.00    -0.370 N 
ENDBRANCH   7  14
ENDBRANCH   6   7
ENDBRANCH   5   6
ENDBRANCH   1   5
BRANCH   3  15
ATOM     15  C   LIG    1       -0.244   4.079   0.025  0.00  0.00    +0.340 C 
BRANCH  15  16
ATOM     16  N   LIG    1        1.053   3.398   0.010  0.00  0.00    -0.540 N 
ATOM     17  C   LIG    1        2.291   4.181   0.002  0.00  0.00    +0.340 C 
BRANCH  16  18
ATOM     18  C   LIG    1        1.108   2.026   0.002  0.00  0.00    +0.540 A 
ATOM     19  C   LIG    1        2.348   1.364  -0.013  0.00  0.00    -0.110 A 
ATOM     20  N   LIG    1        3.635   1.749  -0.024  0.00  0.00    -0.500 NA
ATOM     21  C   LIG    1        4.386   0.669  -0.036  0.00  0.00    +0.400 A 
ATOM     22  N   LIG    1        3.625  -0.419  -0.034  0.00  0.00    -0.540 NA
ATOM     23  C   LIG    1        2.354  -0.049  -0.020  0.00  0.00    +0.220 A 
ATOM     24  N   LIG    1        1.146  -0.708  -0.012  0.00  0.00    -0.540 N 
ATOM     25  H   LIG    1        1.121  -1.677  -0.017  0.00  0.00    +0.430 HD
ATOM     26  C   LIG    1        0.002  -0.004   0.002  0.00  0.00    +0.650 A 
ATOM     27  N   LIG    1       -0.016   1.304   0.009  0.00  0.00    -0.580 NA
ENDBRANCH  16  18
ENDBRANCH  15  16
ENDBRANCH   3  15
TORSDOF 7
