REMARK  Name = ZINCrg000000rvwB.0
REMARK                            x       y       z     vdW  Elec       q    Type
REMARK                         _______ _______ _______ _____ _____    ______ ____
ROOT
ATOM      1  C   LIG    1       -3.456   2.451   0.478  0.00  0.00    -0.230 A 
ATOM      2  C   LIG    1       -2.471   1.828  -0.295  0.00  0.00    +0.420 A 
ATOM      3  N   LIG    1       -1.277   2.362  -0.442  0.00  0.00    -0.500 NA
ATOM      4  C   LIG    1       -0.951   3.510   0.133  0.00  0.00    +0.430 A 
ATOM      5  C   LIG    1       -1.888   4.195   0.933  0.00  0.00    -0.250 A 
ATOM      6  C   LIG    1       -1.485   5.472   1.548  0.00  0.00    +0.570 A 
ATOM      7  N   LIG    1       -0.230   5.919   1.325  0.00  0.00    -0.660 N 
ATOM      8  H   LIG    1        0.057   6.755   1.724  0.00  0.00    +0.440 HD
ATOM      9  C   LIG    1        0.627   5.225   0.559  0.00  0.00    +0.710 A 
ATOM     10  O   LIG    1        1.745   5.670   0.389  0.00  0.00    -0.510 OA
ATOM     11  O   LIG    1       -2.259   6.103   2.242  0.00  0.00    -0.480 OA
ATOM     12  N   LIG    1        0.305   4.061  -0.028  0.00  0.00    -0.500 N 
ATOM     13  C   LIG    1       -3.162   3.667   1.107  0.00  0.00    +0.220 A 
ENDROOT
BRANCH   1  20
ATOM     14  C   LIG    1       -7.772   1.832  -1.526  0.00  0.00    +0.030 C 
ATOM     15  C   LIG    1       -8.179   2.482  -0.203  0.00  0.00    +0.140 C 
ATOM     16  C   LIG    1       -7.220   2.033   0.905  0.00  0.00    +0.280 C 
ATOM     17  N   LIG    1       -5.893   2.607   0.631  0.00  0.00    -0.610 N 
ATOM     18  C   LIG    1       -5.806   4.052   0.366  0.00  0.00    +0.250 C 
ATOM     19  C   LIG    1       -6.835   4.402  -0.721  0.00  0.00    +0.210 C 
ATOM     20  C   LIG    1       -4.789   1.834   0.629  0.00  0.00    +0.570 C 
ATOM     21  O   LIG    1       -4.891   0.629   0.751  0.00  0.00    -0.520 OA
ATOM     22  O   LIG    1       -8.117   3.905  -0.330  0.00  0.00    -0.360 OA
BRANCH  15  23
ATOM     23  C   LIG    1       -9.606   2.063   0.156  0.00  0.00    -0.040 C 
ATOM     24  C   LIG    1      -10.214   0.892  -0.618  0.00  0.00    +0.030 C 
ATOM     25  C   LIG    1      -10.700   2.318  -0.883  0.00  0.00    +0.040 C 
ENDBRANCH  15  23
ENDBRANCH   1  20
BRANCH  12  26
ATOM     26  C   LIG    1        1.299   3.366  -0.849  0.00  0.00    +0.210 C 
ATOM     27  C   LIG    1        1.491   1.867  -0.609  0.00  0.00    +0.070 C 
ATOM     28  C   LIG    1        2.563   2.859  -0.151  0.00  0.00    +0.050 C 
ENDBRANCH  12  26
TORSDOF 3
