REMARK  Name = ZINCvU0000000GdR.0
REMARK                            x       y       z     vdW  Elec       q    Type
REMARK                         _______ _______ _______ _____ _____    ______ ____
ROOT
ATOM      1  C   LIG    1       -3.414   3.536   0.938  0.00  0.00    +0.520 C 
ATOM      2  N   LIG    1       -2.481   3.786  -0.002  0.00  0.00    -0.520 N 
ATOM      3  C   LIG    1       -1.232   3.148   0.030  0.00  0.00    +0.150 A 
ATOM      4  C   LIG    1       -1.211   1.758   0.017  0.00  0.00    +0.020 A 
ATOM      5  C   LIG    1       -0.013   1.076   0.008  0.00  0.00    +0.020 A 
ATOM      6  C   LIG    1        1.170   1.792   0.001  0.00  0.00    +0.020 A 
ATOM      7  C   LIG    1        1.149   3.168   0.022  0.00  0.00    +0.010 A 
ATOM      8  C   LIG    1       -0.053   3.878   0.052  0.00  0.00    -0.080 A 
ATOM      9  C   LIG    1        0.100   5.378   0.150  0.00  0.00    +0.100 C 
ATOM     10  C   LIG    1       -1.225   6.113   0.254  0.00  0.00    +0.070 C 
ATOM     11  C   LIG    1       -2.073   5.892  -0.973  0.00  0.00    -0.080 A 
ATOM     12  C   LIG    1       -2.211   6.835  -1.964  0.00  0.00    +0.030 A 
ATOM     13  C   LIG    1       -3.053   6.560  -3.033  0.00  0.00    +0.020 A 
ATOM     14  C   LIG    1       -3.735   5.359  -3.096  0.00  0.00    +0.020 A 
ATOM     15  C   LIG    1       -3.578   4.410  -2.099  0.00  0.00    +0.020 A 
ATOM     16  C   LIG    1       -2.729   4.691  -1.043  0.00  0.00    +0.110 A 
ATOM     17  O   LIG    1       -3.179   2.749   1.831  0.00  0.00    -0.490 OA
ENDROOT
BRANCH   1  18
ATOM     18  C   LIG    1       -4.748   4.234   0.880  0.00  0.00    +0.250 C 
BRANCH  18  19
ATOM     19  O   LIG    1       -5.571   3.800   1.995  0.00  0.00    -0.330 OA
BRANCH  19  21
ATOM     20  O   LIG    1       -7.175   5.134   1.268  0.00  0.00    -0.490 OA
ATOM     21  C   LIG    1       -6.799   4.332   2.090  0.00  0.00    +0.470 C 
BRANCH  21  22
ATOM     22  C   LIG    1       -7.710   3.928   3.220  0.00  0.00    +0.040 C 
ATOM     23  C   LIG    1       -7.964   2.420   3.158  0.00  0.00    +0.050 C 
ATOM     24  C   LIG    1       -8.623   2.069   1.822  0.00  0.00    +0.010 C 
ATOM     25  C   LIG    1       -9.952   2.816   1.697  0.00  0.00    +0.000 C 
ATOM     26  C   LIG    1       -9.698   4.323   1.760  0.00  0.00    +0.000 C 
ATOM     27  C   LIG    1      -11.028   5.070   1.635  0.00  0.00    +0.010 C 
ATOM     28  C   LIG    1      -10.774   6.577   1.698  0.00  0.00    +0.000 C 
ATOM     29  C   LIG    1      -10.116   6.929   3.033  0.00  0.00    +0.000 C 
ATOM     30  C   LIG    1       -8.786   6.182   3.158  0.00  0.00    +0.020 C 
ATOM     31  C   LIG    1       -9.040   4.675   3.096  0.00  0.00    +0.020 C 
ENDBRANCH  21  22
ENDBRANCH  19  21
ENDBRANCH  18  19
ENDBRANCH   1  18
TORSDOF 4
