REMARK  Name = ZINCvU0000000BwW.0
REMARK                            x       y       z     vdW  Elec       q    Type
REMARK                         _______ _______ _______ _____ _____    ______ ____
ROOT
ATOM      1  C   LIG    1        0.379  -4.190   0.616  0.00  0.00    +0.210 A 
ATOM      2  N   LIG    1        1.329  -4.828  -0.059  0.00  0.00    -0.290 NA
ATOM      3  N   LIG    1        2.236  -4.191  -0.712  0.00  0.00    -0.160 NA
ATOM      4  C   LIG    1        2.243  -2.862  -0.734  0.00  0.00    +0.070 A 
ATOM      5  C   LIG    1        1.248  -2.163  -0.021  0.00  0.00    +0.230 A 
ATOM      6  N   LIG    1        0.330  -2.864   0.641  0.00  0.00    -0.440 NA
ENDROOT
BRANCH   5   7
ATOM      7  C   LIG    1        1.221  -0.682  -0.013  0.00  0.00    -0.080 A 
ATOM      8  C   LIG    1        0.002  -0.004   0.002  0.00  0.00    +0.070 A 
ATOM      9  C   LIG    1       -0.017   1.376   0.010  0.00  0.00    +0.000 A 
ATOM     10  C   LIG    1        1.170   2.086   0.002  0.00  0.00    +0.040 A 
ATOM     11  C   LIG    1        2.382   1.419  -0.013  0.00  0.00    +0.000 A 
ATOM     12  C   LIG    1        2.414   0.040  -0.021  0.00  0.00    +0.070 A 
ENDBRANCH   5   7
BRANCH   4  13
ATOM     13  C   LIG    1        3.283  -2.127  -1.491  0.00  0.00    -0.060 A 
ATOM     14  C   LIG    1        2.966  -0.930  -2.132  0.00  0.00    +0.050 A 
ATOM     15  C   LIG    1        3.940  -0.247  -2.832  0.00  0.00    +0.010 A 
ATOM     16  C   LIG    1        5.226  -0.754  -2.907  0.00  0.00    +0.040 A 
ATOM     17  C   LIG    1        5.544  -1.944  -2.277  0.00  0.00    +0.010 A 
ATOM     18  C   LIG    1        4.580  -2.633  -1.570  0.00  0.00    +0.060 A 
ENDBRANCH   4  13
BRANCH   1  19
ATOM     19  S   LIG    1       -0.836  -5.119   1.491  0.00  0.00    +0.130 S 
BRANCH  19  21
ATOM     20  C   LIG    1        1.093  -7.038   1.734  0.00  0.00    +0.100 C 
ATOM     21  C   LIG    1       -0.282  -6.799   1.109  0.00  0.00    +0.010 C 
BRANCH  21  22
ATOM     22  C   LIG    1       -1.268  -7.792   1.669  0.00  0.00    +0.530 C 
ATOM     23  N   LIG    1       -1.304  -9.050   1.187  0.00  0.00    -0.620 N 
ATOM     24  H   LIG    1       -0.696  -9.317   0.479  0.00  0.00    +0.420 HD
ATOM     25  O   LIG    1       -2.029  -7.460   2.553  0.00  0.00    -0.480 OA
BRANCH  23  26
ATOM     26  C   LIG    1       -2.212  -9.965   1.702  0.00  0.00    +0.050 A 
ATOM     27  C   LIG    1       -2.334 -11.263   1.281  0.00  0.00    -0.110 A 
ATOM     28  C   LIG    1       -3.360 -11.991   1.995  0.00  0.00    +0.080 A 
ATOM     29  C   LIG    1       -3.981 -11.256   2.908  0.00  0.00    -0.100 A 
ATOM     30  S   LIG    1       -3.332  -9.626   2.942  0.00  0.00    +0.320 S 
BRANCH  27  31
ATOM     31  C   LIG    1       -1.530 -11.839   0.245  0.00  0.00    +0.270 C 
ATOM     32  N   LIG    1       -0.892 -12.295  -0.577  0.00  0.00    -0.420 NA
ENDBRANCH  27  31
ENDBRANCH  23  26
ENDBRANCH  21  22
ENDBRANCH  19  21
ENDBRANCH   1  19
TORSDOF 7
