REMARK  Name = ZINCrH000004pZka.0
REMARK                            x       y       z     vdW  Elec       q    Type
REMARK                         _______ _______ _______ _____ _____    ______ ____
ROOT
ATOM      1  C   LIG    1        0.058  -0.002   0.008  0.00  0.00    +0.530 C 
ATOM      2  N   LIG    1       -0.016   1.344   0.009  0.00  0.00    -0.670 N 
ATOM      3  H   LIG    1       -0.882   1.782   0.018  0.00  0.00    +0.410 HD
ATOM      4  O   LIG    1        1.135  -0.550  -0.093  0.00  0.00    -0.510 OA
ENDROOT
BRANCH   1   6
ATOM      5  C   LIG    1       -2.136  -0.493  -1.030  0.00  0.00    +0.070 C 
ATOM      6  C   LIG    1       -1.198  -0.826   0.132  0.00  0.00    -0.030 C 
ATOM      7  C   LIG    1       -0.835  -2.309   0.075  0.00  0.00    +0.060 C 
ATOM      8  C   LIG    1       -0.079  -2.671   1.359  0.00  0.00    +0.030 C 
ATOM      9  C   LIG    1       -1.062  -2.626   2.526  0.00  0.00    +0.070 C 
ATOM     10  C   LIG    1       -1.816  -1.322   2.534  0.00  0.00    -0.060 A 
ATOM     11  C   LIG    1       -2.464  -0.956   3.707  0.00  0.00    +0.000 A 
ATOM     12  C   LIG    1       -3.175   0.224   3.776  0.00  0.00    +0.010 A 
ATOM     13  C   LIG    1       -3.245   1.049   2.669  0.00  0.00    +0.010 A 
ATOM     14  C   LIG    1       -2.600   0.689   1.504  0.00  0.00    +0.000 A 
ATOM     15  C   LIG    1       -1.882  -0.497   1.433  0.00  0.00    -0.080 A 
ENDBRANCH   1   6
BRANCH   2  16
ATOM     16  C   LIG    1        1.155   2.109  -0.007  0.00  0.00    +0.140 A 
ATOM     17  C   LIG    1        1.208   3.315   0.679  0.00  0.00    -0.020 A 
ATOM     18  C   LIG    1        2.367   4.066   0.664  0.00  0.00    +0.030 A 
ATOM     19  C   LIG    1        3.471   3.623  -0.040  0.00  0.00    +0.010 A 
ATOM     20  C   LIG    1        3.420   2.424  -0.728  0.00  0.00    -0.060 A 
ATOM     21  C   LIG    1        2.266   1.666  -0.714  0.00  0.00    +0.030 A 
BRANCH  20  22
ATOM     22  C   LIG    1        4.626   1.944  -1.495  0.00  0.00    +0.230 C 
BRANCH  22  23
ATOM     23  N   LIG    1        4.566   2.455  -2.871  0.00  0.00    -0.530 NA
ATOM     24  C   LIG    1        3.436   1.864  -3.603  0.00  0.00    +0.140 C 
ATOM     25  C   LIG    1        3.376   2.467  -5.009  0.00  0.00    +0.220 C 
ATOM     26  O   LIG    1        4.625   2.247  -5.671  0.00  0.00    -0.390 OA
ATOM     27  C   LIG    1        5.746   2.810  -4.985  0.00  0.00    +0.220 C 
ATOM     28  C   LIG    1        5.831   2.211  -3.579  0.00  0.00    +0.150 C 
ENDBRANCH  22  23
ENDBRANCH  20  22
ENDBRANCH   2  16
TORSDOF 4
