REMARK  Name = ZINCpk00000KfKG2.0
REMARK                            x       y       z     vdW  Elec       q    Type
REMARK                         _______ _______ _______ _____ _____    ______ ____
ROOT
ATOM      1  C   LIG    1       -1.356   7.437   0.203  0.00  0.00    +0.160 A 
ATOM      2  C   LIG    1       -0.237   8.149  -0.202  0.00  0.00    +0.110 A 
ATOM      3  C   LIG    1       -0.222   9.528  -0.105  0.00  0.00    -0.160 A 
ATOM      4  C   LIG    1       -1.321  10.201   0.395  0.00  0.00    +0.090 A 
ATOM      5  C   LIG    1       -2.441   9.500   0.801  0.00  0.00    +0.040 A 
ATOM      6  C   LIG    1       -2.467   8.117   0.702  0.00  0.00    +0.150 A 
ENDROOT
BRANCH   6   7
ATOM      7  N   LIG    1       -3.605   7.404   1.107  0.00  0.00    -0.340 N 
ATOM      8  C   LIG    1       -4.777   7.922   1.523  0.00  0.00    +0.510 A 
ATOM      9  N   LIG    1       -5.580   6.929   1.807  0.00  0.00    -0.530 NA
ATOM     10  C   LIG    1       -4.959   5.770   1.595  0.00  0.00    +0.460 A 
ATOM     11  N   LIG    1       -3.747   6.008   1.165  0.00  0.00    -0.330 NA
ENDBRANCH   6   7
BRANCH   1  13
ATOM     12  C   LIG    1       -0.590   5.420  -0.798  0.00  0.00    +0.580 C 
ATOM     13  N   LIG    1       -1.374   6.042   0.105  0.00  0.00    -0.640 N 
ATOM     14  H   LIG    1       -1.949   5.522   0.688  0.00  0.00    +0.440 HD
ATOM     15  O   LIG    1        0.056   6.073  -1.595  0.00  0.00    -0.500 OA
BRANCH  12  20
ATOM     16  O   LIG    1       -0.104   0.005  -0.528  0.00  0.00    -0.510 OA
ATOM     17  C   LIG    1       -0.142   1.217  -0.544  0.00  0.00    +0.500 C 
ATOM     18  C   LIG    1        0.954   1.999  -1.223  0.00  0.00    +0.100 C 
ATOM     19  C   LIG    1        0.361   3.271  -1.833  0.00  0.00    +0.120 C 
ATOM     20  C   LIG    1       -0.517   3.955  -0.820  0.00  0.00    +0.080 C 
ATOM     21  N   LIG    1       -1.210   3.267   0.034  0.00  0.00    -0.190 NA
ATOM     22  N   LIG    1       -1.166   1.869   0.040  0.00  0.00    -0.560 N 
ATOM     23  H   LIG    1       -1.875   1.367   0.470  0.00  0.00    +0.440 HD
ENDBRANCH  12  20
ENDBRANCH   1  13
BRANCH   3  24
ATOM     24  C   LIG    1        0.995  10.299  -0.545  0.00  0.00    +0.510 C 
ATOM     25  F   LIG    1        2.138   9.514  -0.357  0.00  0.00    -0.170 F 
ATOM     26  F   LIG    1        1.104  11.470   0.212  0.00  0.00    -0.170 F 
ATOM     27  F   LIG    1        0.874  10.629  -1.899  0.00  0.00    -0.170 F 
ENDBRANCH   3  24
TORSDOF 4
