REMARK  Name = ZINCqH0000006sM5.0
REMARK                            x       y       z     vdW  Elec       q    Type
REMARK                         _______ _______ _______ _____ _____    ______ ____
ROOT
ATOM      1  N   LIG    1        0.621  -1.845   3.119  0.00  0.00    -0.740 N 
ATOM      2  H   LIG    1        1.562  -1.664   3.271  0.00  0.00    +0.400 HD
ATOM      3  C   LIG    1       -0.016  -1.273   2.078  0.00  0.00    +0.710 C 
ATOM      4  N   LIG    1        0.676  -0.534   1.188  0.00  0.00    -0.620 N 
ATOM      5  C   LIG    1        2.100  -0.265   1.415  0.00  0.00    +0.340 C 
ATOM      6  C   LIG    1        2.246   1.127   1.998  0.00  0.00    -0.150 A 
ATOM      7  C   LIG    1        2.721   1.308   3.278  0.00  0.00    +0.030 A 
ATOM      8  C   LIG    1        2.879   2.590   3.776  0.00  0.00    +0.000 A 
ATOM      9  C   LIG    1        2.564   3.681   2.987  0.00  0.00    +0.030 A 
ATOM     10  C   LIG    1        2.074   3.499   1.708  0.00  0.00    +0.000 A 
ATOM     11  C   LIG    1        1.896   2.215   1.213  0.00  0.00    +0.120 A 
ATOM     12  O   LIG    1        1.325   2.026  -0.002  0.00  0.00    -0.320 OA
ATOM     13  C   LIG    1       -0.014   1.518   0.011  0.00  0.00    +0.100 C 
ATOM     14  C   LIG    1       -0.731   2.010   1.269  0.00  0.00    +0.020 C 
ATOM     15  C   LIG    1       -0.760   2.024  -1.225  0.00  0.00    +0.080 C 
ATOM     16  C   LIG    1        0.002  -0.004   0.002  0.00  0.00    +0.300 C 
ATOM     17  O   LIG    1       -1.214  -1.424   1.941  0.00  0.00    -0.580 OA
ENDROOT
BRANCH   1  18
ATOM     18  C   LIG    1       -0.108  -2.739   4.022  0.00  0.00    +0.400 C 
BRANCH  18  21
ATOM     19  C   LIG    1        2.364  -4.623   5.915  0.00  0.00    +0.040 A 
ATOM     20  N   LIG    1        1.604  -4.291   4.927  0.00  0.00    -0.460 NA
ATOM     21  C   LIG    1        0.826  -3.241   5.094  0.00  0.00    +0.050 A 
ATOM     22  C   LIG    1        0.928  -2.660   6.293  0.00  0.00    -0.060 A 
ATOM     23  S   LIG    1        2.121  -3.557   7.229  0.00  0.00    +0.180 S 
BRANCH  19  24
ATOM     24  C   LIG    1        3.323  -5.786   5.913  0.00  0.00    +0.250 C 
ATOM     25  C   LIG    1        2.742  -6.927   6.751  0.00  0.00    +0.040 C 
BRANCH  24  27
ATOM     26  C   LIG    1        5.702  -6.074   5.946  0.00  0.00    +0.220 C 
ATOM     27  O   LIG    1        4.572  -5.374   6.471  0.00  0.00    -0.380 OA
ENDBRANCH  24  27
ENDBRANCH  19  24
ENDBRANCH  18  21
ENDBRANCH   1  18
TORSDOF 4
