REMARK  Name = ZINCkj00000dDzTk.1
REMARK                            x       y       z     vdW  Elec       q    Type
REMARK                         _______ _______ _______ _____ _____    ______ ____
ROOT
ATOM      1  C   LIG    1        3.710  -0.717  -0.039  0.00  0.00    +0.250 C 
ENDROOT
BRANCH   1   7
ATOM      2  C   LIG    1        2.595   1.514  -0.299  0.00  0.00    +0.160 A 
ATOM      3  C   LIG    1        1.493   2.292  -0.624  0.00  0.00    -0.050 A 
ATOM      4  C   LIG    1        0.320   1.690  -1.036  0.00  0.00    +0.090 A 
ATOM      5  C   LIG    1        0.243   0.313  -1.125  0.00  0.00    +0.000 A 
ATOM      6  C   LIG    1        1.340  -0.466  -0.802  0.00  0.00    +0.030 A 
ATOM      7  C   LIG    1        2.515   0.132  -0.390  0.00  0.00    -0.180 A 
BRANCH   2   9
ATOM      8  C   LIG    1        3.759   3.531   0.176  0.00  0.00    +0.260 C 
ATOM      9  O   LIG    1        3.749   2.104   0.106  0.00  0.00    -0.310 OA
ENDBRANCH   2   9
ENDBRANCH   1   7
BRANCH   1  10
ATOM     10  N   LIG    1        3.494  -2.089  -0.518  0.00  0.00    -0.390 N 
ATOM     11  C   LIG    1        2.396  -2.732   0.249  0.00  0.00    +0.260 C 
ATOM     12  C   LIG    1        1.924  -3.868  -0.693  0.00  0.00    +0.070 C 
ATOM     13  C   LIG    1        2.038  -3.225  -2.094  0.00  0.00    +0.070 C 
ATOM     14  C   LIG    1        3.045  -2.072  -1.927  0.00  0.00    +0.250 C 
ATOM     15  H   LIG    1        4.343  -2.627  -0.429  0.00  0.00    +0.430 HD
ENDBRANCH   1  10
BRANCH   1  16
ATOM     16  C   LIG    1        3.897  -0.731   1.480  0.00  0.00    +0.320 C 
BRANCH  16  17
ATOM     17  N   LIG    1        4.983  -1.649   1.830  0.00  0.00    -1.140 NA
ATOM     18  H   LIG    1        5.307  -2.289   1.176  0.00  0.00    +0.410 HD
BRANCH  17  19
ATOM     19  S   LIG    1        5.658  -1.596   3.341  0.00  0.00    +2.610 S 
ATOM     20  O   LIG    1        5.981  -0.226   3.533  0.00  0.00    -0.940 OA
ATOM     21  O   LIG    1        6.672  -2.590   3.307  0.00  0.00    -0.940 OA
ATOM     22  C   LIG    1        4.315  -2.095   4.454  0.00  0.00    -0.270 C 
ENDBRANCH  17  19
ENDBRANCH  16  17
ENDBRANCH   1  16
TORSDOF 6
