REMARK  Name = ZINCtV00000L6jnV.0
REMARK                            x       y       z     vdW  Elec       q    Type
REMARK                         _______ _______ _______ _____ _____    ______ ____
ROOT
ATOM      1  C   LIG    1        1.225  -2.202  -0.017  0.00  0.00    +0.070 C 
ENDROOT
BRANCH   1   2
ATOM      2  C   LIG    1        1.199  -0.695  -0.000  0.00  0.00    -0.090 A 
ATOM      3  C   LIG    1       -0.010  -0.025   0.018  0.00  0.00    +0.070 A 
ATOM      4  C   LIG    1       -0.034   1.358   0.035  0.00  0.00    +0.000 A 
ATOM      5  C   LIG    1        1.152   2.069   0.033  0.00  0.00    +0.010 A 
ATOM      6  C   LIG    1        2.360   1.399   0.013  0.00  0.00    +0.000 A 
ATOM      7  C   LIG    1        2.384   0.017  -0.002  0.00  0.00    +0.030 A 
ENDBRANCH   1   2
BRANCH   1   8
ATOM      8  C   LIG    1        1.933  -2.678  -1.259  0.00  0.00    +0.550 C 
ATOM      9  N   LIG    1        1.278  -2.709  -2.438  0.00  0.00    -0.670 N 
ATOM     10  H   LIG    1        0.335  -2.488  -2.474  0.00  0.00    +0.420 HD
ATOM     11  O   LIG    1        3.091  -3.033  -1.199  0.00  0.00    -0.490 OA
BRANCH   9  12
ATOM     12  C   LIG    1        1.961  -3.061  -3.608  0.00  0.00    +0.200 A 
ATOM     13  C   LIG    1        2.973  -4.010  -3.564  0.00  0.00    +0.050 A 
ATOM     14  C   LIG    1        3.642  -4.360  -4.721  0.00  0.00    +0.090 A 
ATOM     15  C   LIG    1        3.311  -3.757  -5.921  0.00  0.00    -0.050 A 
ATOM     16  C   LIG    1        2.306  -2.806  -5.967  0.00  0.00    +0.120 A 
ATOM     17 CL   LIG    1        4.157  -4.194  -7.373  0.00  0.00    -0.050 Cl
ATOM     18  C   LIG    1        1.631  -2.457  -4.814  0.00  0.00    -0.200 A 
BRANCH  18  19
ATOM     19  C   LIG    1        0.537  -1.422  -4.864  0.00  0.00    +0.510 C 
ATOM     20  F   LIG    1        0.872  -0.349  -4.030  0.00  0.00    -0.170 F 
ATOM     21  F   LIG    1       -0.665  -1.992  -4.432  0.00  0.00    -0.180 F 
ATOM     22  F   LIG    1        0.390  -0.963  -6.178  0.00  0.00    -0.170 F 
ENDBRANCH  18  19
ENDBRANCH   9  12
ENDBRANCH   1   8
BRANCH   1  23
ATOM     23  S   LIG    1        2.101  -2.807   1.446  0.00  0.00    +0.060 S 
BRANCH  23  28
ATOM     24  N   LIG    1        1.177  -2.435   4.048  0.00  0.00    -0.440 N 
ATOM     25  C   LIG    1        0.101  -1.848   4.675  0.00  0.00    +0.140 A 
ATOM     26  C   LIG    1       -0.680  -1.331   3.711  0.00  0.00    +0.150 A 
ATOM     27  N   LIG    1       -0.107  -1.582   2.522  0.00  0.00    -0.480 NA
ATOM     28  C   LIG    1        1.007  -2.250   2.710  0.00  0.00    +0.170 A 
BRANCH  24  30
ATOM     29  C   LIG    1        3.455  -2.150   4.891  0.00  0.00    +0.040 C 
ATOM     30  C   LIG    1        2.293  -3.126   4.698  0.00  0.00    +0.290 C 
ENDBRANCH  24  30
ENDBRANCH  23  28
ENDBRANCH   1  23
TORSDOF 7
