REMARK  Name = ZINCkj00000vSakW.0
REMARK                            x       y       z     vdW  Elec       q    Type
REMARK                         _______ _______ _______ _____ _____    ______ ____
ROOT
ATOM      1  C   LIG    1       -6.697   1.153   0.036  0.00  0.00    +0.390 A 
ATOM      2  C   LIG    1       -7.558   2.236   0.045  0.00  0.00    -0.080 A 
ATOM      3  C   LIG    1       -7.013   3.520   0.050  0.00  0.00    +0.360 A 
ATOM      4  N   LIG    1       -5.693   3.660   0.050  0.00  0.00    -0.580 NA
ATOM      5  C   LIG    1       -4.901   2.597   0.035  0.00  0.00    +0.430 A 
ATOM      6  N   LIG    1       -5.391   1.365   0.031  0.00  0.00    -0.520 NA
ENDROOT
BRANCH   5   7
ATOM      7  C   LIG    1       -3.431   2.791   0.030  0.00  0.00    -0.150 A 
ATOM      8  C   LIG    1       -2.886   4.078   0.035  0.00  0.00    +0.350 A 
ATOM      9  N   LIG    1       -1.587   4.272   0.040  0.00  0.00    -0.500 NA
ATOM     10  C   LIG    1       -0.728   3.260   0.026  0.00  0.00    +0.300 A 
ATOM     11  N   LIG    1        0.644   3.197   0.013  0.00  0.00    -0.580 N 
ATOM     12  H   LIG    1        1.236   3.965   0.011  0.00  0.00    +0.420 HD
ATOM     13  C   LIG    1        1.054   1.890   0.002  0.00  0.00    +0.260 A 
ATOM     14  C   LIG    1       -0.013   1.076   0.008  0.00  0.00    -0.020 A 
ATOM     15  C   LIG    1       -1.200   1.933   0.018  0.00  0.00    -0.160 A 
ATOM     16  C   LIG    1       -2.573   1.691   0.021  0.00  0.00    +0.190 A 
ENDBRANCH   5   7
BRANCH   3  17
ATOM     17  O   LIG    1       -7.819   4.609   0.059  0.00  0.00    -0.270 OA
BRANCH  17  18
ATOM     18  C   LIG    1       -7.182   5.888   0.063  0.00  0.00    +0.190 C 
ATOM     19  C   LIG    1       -7.399   6.684   1.363  0.00  0.00    +0.300 C 
ATOM     20  N   LIG    1       -7.595   7.863   0.491  0.00  0.00    -0.530 N 
ATOM     21  H   LIG    1       -8.338   8.467   0.809  0.00  0.00    +0.440 HD
ATOM     22  H   LIG    1       -6.739   8.365   0.309  0.00  0.00    +0.450 HD
ATOM     23  C   LIG    1       -8.002   6.990  -0.632  0.00  0.00    +0.320 C 
ENDBRANCH  17  18
ENDBRANCH   3  17
TORSDOF 3
