REMARK  Name = ZINCrg000000oju1.0
REMARK                            x       y       z     vdW  Elec       q    Type
REMARK                         _______ _______ _______ _____ _____    ______ ____
ROOT
ATOM      1  N   LIG    1        4.527   6.110   2.760  0.00  0.00    -0.610 N 
ATOM      2  C   LIG    1        3.990   5.427   1.730  0.00  0.00    +0.520 C 
ATOM      3  O   LIG    1        4.674   4.652   1.095  0.00  0.00    -0.530 OA
ATOM      4  C   LIG    1        3.701   7.046   3.528  0.00  0.00    +0.290 C 
ENDROOT
BRANCH   2   5
ATOM      5  C   LIG    1        2.541   5.624   1.369  0.00  0.00    +0.000 C 
ATOM      6  C   LIG    1        1.613   5.075   2.477  0.00  0.00    +0.080 C 
ATOM      7  C   LIG    1        1.303   3.661   2.037  0.00  0.00    +0.520 C 
ATOM      8  N   LIG    1        1.622   3.500   0.741  0.00  0.00    -0.610 N 
ATOM      9  O   LIG    1        0.838   2.798   2.751  0.00  0.00    -0.520 OA
ATOM     10  C   LIG    1        2.147   4.742   0.163  0.00  0.00    +0.310 C 
BRANCH   8  11
ATOM     11  C   LIG    1        1.460   2.246   0.000  0.00  0.00    +0.280 C 
ATOM     12  C   LIG    1        2.293   1.139   0.668  0.00  0.00    +0.060 C 
ATOM     13  C   LIG    1        1.823  -0.204   0.051  0.00  0.00    -0.300 C 
ATOM     14  S   LIG    1        0.002  -0.004   0.002  0.00  0.00    +2.390 S 
ATOM     15  O   LIG    1       -0.490  -0.475  -1.245  0.00  0.00    -0.940 OA
ATOM     16  O   LIG    1       -0.558  -0.489   1.215  0.00  0.00    -0.920 OA
ATOM     17  C   LIG    1       -0.023   1.825   0.012  0.00  0.00    -0.330 C 
ENDBRANCH   8  11
ENDBRANCH   2   5
BRANCH   1  18
ATOM     18  C   LIG    1        5.936   5.919   3.112  0.00  0.00    +0.340 C 
BRANCH  18  22
ATOM     19  C   LIG    1        8.338   8.707   0.940  0.00  0.00    +0.140 A 
ATOM     20  C   LIG    1        7.833   9.048   2.187  0.00  0.00    -0.030 A 
ATOM     21  C   LIG    1        7.057   8.145   2.887  0.00  0.00    +0.060 A 
ATOM     22  C   LIG    1        6.783   6.902   2.346  0.00  0.00    -0.150 A 
ATOM     23  C   LIG    1        7.290   6.558   1.107  0.00  0.00    +0.080 A 
ATOM     24  C   LIG    1        8.063   7.459   0.400  0.00  0.00    -0.080 A 
BRANCH  19  25
ATOM     25  O   LIG    1        9.102   9.594   0.250  0.00  0.00    -0.320 OA
BRANCH  25  27
ATOM     26  C   LIG    1       10.422  10.297  -1.649  0.00  0.00    +0.070 C 
ATOM     27  C   LIG    1        9.589   9.175  -1.027  0.00  0.00    +0.170 C 
ENDBRANCH  25  27
ENDBRANCH  19  25
ENDBRANCH  18  22
ENDBRANCH   1  18
TORSDOF 6
