REMARK  Name = ZINCvU000000040g.0
REMARK                            x       y       z     vdW  Elec       q    Type
REMARK                         _______ _______ _______ _____ _____    ______ ____
ROOT
ATOM      1  O   LIG    1        5.221   3.420   0.196  0.00  0.00    -0.500 OA
ATOM      2  C   LIG    1        4.025   3.626   0.109  0.00  0.00    +0.660 C 
ATOM      3  N   LIG    1        3.326   3.922   1.217  0.00  0.00    -0.520 NA
ATOM      4  C   LIG    1        2.022   3.880   1.234  0.00  0.00    +0.320 C 
ATOM      5  C   LIG    1        1.254   3.455   0.008  0.00  0.00    +0.100 C 
ATOM      6  C   LIG    1        2.015   3.899  -1.244  0.00  0.00    +0.320 C 
ATOM      7  N   LIG    1        3.431   3.553  -1.095  0.00  0.00    -0.740 N 
ATOM      8  H   LIG    1        3.942   3.269  -1.869  0.00  0.00    +0.420 HD
ENDROOT
BRANCH   5   9
ATOM      9  C   LIG    1        1.107   1.955   0.002  0.00  0.00    +0.070 A 
ATOM     10  N   LIG    1       -0.016   1.342   0.009  0.00  0.00    -0.440 NA
ATOM     11  C   LIG    1        0.002  -0.004   0.002  0.00  0.00    +0.080 A 
ATOM     12  C   LIG    1       -1.070  -0.919   0.008  0.00  0.00    +0.080 A 
ATOM     13  C   LIG    1       -0.832  -2.260  -0.002  0.00  0.00    +0.030 A 
ATOM     14  C   LIG    1        0.465  -2.751  -0.016  0.00  0.00    +0.050 A 
ATOM     15  C   LIG    1        1.532  -1.881  -0.022  0.00  0.00    +0.060 A 
ATOM     16  C   LIG    1        1.308  -0.506  -0.013  0.00  0.00    -0.180 A 
ATOM     17  S   LIG    1        2.417   0.862  -0.016  0.00  0.00    +0.130 S 
ENDBRANCH   5   9
BRANCH   6  18
ATOM     18  C   LIG    1        1.877   5.390  -1.414  0.00  0.00    -0.110 A 
ATOM     19  C   LIG    1        2.664   6.247  -0.668  0.00  0.00    +0.090 A 
ATOM     20  C   LIG    1        2.542   7.615  -0.829  0.00  0.00    +0.040 A 
ATOM     21  C   LIG    1        1.624   8.125  -1.727  0.00  0.00    +0.120 A 
ATOM     22  C   LIG    1        0.833   7.269  -2.470  0.00  0.00    -0.040 A 
ATOM     23  C   LIG    1        0.959   5.901  -2.313  0.00  0.00    +0.120 A 
BRANCH  22  24
ATOM     24  N   LIG    1       -0.150   7.816  -3.431  0.00  0.00    +0.030 N 
ATOM     25  O   LIG    1       -0.262   9.021  -3.569  0.00  0.00    -0.150 OA
ATOM     26  O   LIG    1       -0.848   7.061  -4.085  0.00  0.00    -0.150 OA
ENDBRANCH  22  24
ENDBRANCH   6  18
BRANCH   4  27
ATOM     27  C   LIG    1        1.296   4.252   2.457  0.00  0.00    -0.100 A 
ATOM     28  C   LIG    1       -0.103   4.217   2.483  0.00  0.00    +0.060 A 
ATOM     29  C   LIG    1       -0.776   4.561   3.635  0.00  0.00    +0.000 A 
ATOM     30  C   LIG    1       -0.072   4.952   4.761  0.00  0.00    +0.050 A 
ATOM     31  C   LIG    1        1.312   4.995   4.742  0.00  0.00    +0.000 A 
ATOM     32  C   LIG    1        2.000   4.648   3.599  0.00  0.00    +0.090 A 
ENDBRANCH   4  27
TORSDOF 4
