REMARK  Name = ZINCpe000027pGTX.0
REMARK                            x       y       z     vdW  Elec       q    Type
REMARK                         _______ _______ _______ _____ _____    ______ ____
ROOT
ATOM      1  C   LIG    1       -2.062  -2.512  -2.906  0.00  0.00    +0.500 C 
ATOM      2  O   LIG    1       -3.218  -2.800  -2.664  0.00  0.00    -0.550 OA
ENDROOT
BRANCH   1   3
ATOM      3  N   LIG    1       -1.376  -1.750  -2.060  0.00  0.00    -0.680 NA
ATOM      4  C   LIG    1       -1.955  -1.302  -0.947  0.00  0.00    +0.490 A 
ATOM      5  C   LIG    1       -3.279  -1.554  -0.534  0.00  0.00    -0.110 A 
ATOM      6  C   LIG    1       -3.484  -0.919   0.642  0.00  0.00    +0.350 A 
ATOM      7  N   LIG    1       -2.338  -0.274   1.000  0.00  0.00    -0.480 N 
ATOM      8  H   LIG    1       -2.212   0.258   1.802  0.00  0.00    +0.450 HD
ATOM      9  N   LIG    1       -1.372  -0.511   0.012  0.00  0.00    -0.370 N 
BRANCH   9  10
ATOM     10  C   LIG    1        0.002  -0.004   0.002  0.00  0.00    +0.320 C 
ATOM     11  C   LIG    1        0.742  -0.511   1.242  0.00  0.00    +0.040 C 
BRANCH  10  12
ATOM     12  C   LIG    1       -0.019   1.526   0.010  0.00  0.00    -0.080 C 
ATOM     13  C   LIG    1        0.454   2.246  -1.254  0.00  0.00    +0.030 C 
ATOM     14  C   LIG    1        1.329   2.251   0.002  0.00  0.00    +0.040 C 
ENDBRANCH  10  12
ENDBRANCH   9  10
ENDBRANCH   1   3
BRANCH   1  15
ATOM     15  C   LIG    1       -1.407  -3.019  -4.165  0.00  0.00    +0.250 C 
BRANCH  15  21
ATOM     16  C   LIG    1       -4.968  -5.537  -7.533  0.00  0.00    +0.180 A 
ATOM     17  N   LIG    1       -5.931  -4.653  -7.457  0.00  0.00    -0.300 NA
ATOM     18  N   LIG    1       -5.556  -3.662  -6.723  0.00  0.00    -0.290 NA
ATOM     19  C   LIG    1       -4.348  -3.869  -6.301  0.00  0.00    +0.190 A 
ATOM     20  C   LIG    1       -3.484  -3.005  -5.418  0.00  0.00    +0.330 C 
ATOM     21  N   LIG    1       -2.367  -3.831  -4.924  0.00  0.00    -0.530 NA
ATOM     22  C   LIG    1       -1.702  -4.541  -6.025  0.00  0.00    +0.200 C 
ATOM     23  C   LIG    1       -2.622  -5.647  -6.560  0.00  0.00    +0.310 C 
ATOM     24  N   LIG    1       -3.941  -5.064  -6.806  0.00  0.00    -0.470 N 
BRANCH  16  26
ATOM     25  C   LIG    1       -4.498  -6.613  -9.717  0.00  0.00    +0.030 C 
ATOM     26  C   LIG    1       -5.005  -6.839  -8.291  0.00  0.00    +0.140 C 
ENDBRANCH  16  26
ENDBRANCH  15  21
ENDBRANCH   1  15
TORSDOF 6
