REMARK  Name = ZINCpk00000KfLEB.0
REMARK                            x       y       z     vdW  Elec       q    Type
REMARK                         _______ _______ _______ _____ _____    ______ ____
ROOT
ATOM      1  C   LIG    1       -3.422  -0.612   0.630  0.00  0.00    +0.150 C 
ATOM      2  C   LIG    1       -4.410  -0.411  -0.522  0.00  0.00    +0.180 C 
ATOM      3  N   LIG    1       -5.181  -1.647  -0.721  0.00  0.00    -0.510 NA
ATOM      4  C   LIG    1       -5.904  -2.014   0.505  0.00  0.00    +0.160 C 
ATOM      5  C   LIG    1       -4.901  -2.200   1.647  0.00  0.00    +0.230 C 
ATOM      6  O   LIG    1       -4.140  -0.999   1.806  0.00  0.00    -0.370 OA
ENDROOT
BRANCH   3   7
ATOM      7  C   LIG    1       -6.104  -1.515  -1.856  0.00  0.00    +0.170 C 
ATOM      8  C   LIG    1       -6.920  -0.230  -1.703  0.00  0.00    +0.030 C 
BRANCH   7   9
ATOM      9  C   LIG    1       -5.316  -1.460  -3.140  0.00  0.00    +0.520 C 
ATOM     10  N   LIG    1       -5.951  -1.558  -4.325  0.00  0.00    -0.730 N 
ATOM     11  H   LIG    1       -6.915  -1.664  -4.351  0.00  0.00    +0.400 HD
ATOM     12  O   LIG    1       -4.111  -1.327  -3.107  0.00  0.00    -0.520 OA
BRANCH  10  13
ATOM     13  C   LIG    1       -5.185  -1.505  -5.573  0.00  0.00    +0.240 C 
ATOM     14  C   LIG    1       -4.968  -0.045  -5.976  0.00  0.00    +0.000 C 
ATOM     15  C   LIG    1       -4.169   0.011  -7.279  0.00  0.00    +0.010 C 
ATOM     16  C   LIG    1       -4.942  -0.714  -8.383  0.00  0.00    +0.000 C 
ATOM     17  C   LIG    1       -5.158  -2.174  -7.980  0.00  0.00    +0.020 C 
ATOM     18  C   LIG    1       -5.958  -2.229  -6.677  0.00  0.00    +0.010 C 
ENDBRANCH  10  13
ENDBRANCH   7   9
ENDBRANCH   3   7
BRANCH   1  19
ATOM     19  C   LIG    1       -2.674   0.696   0.896  0.00  0.00    +0.360 C 
BRANCH  19  23
ATOM     20  C   LIG    1       -0.336   0.333   5.319  0.00  0.00    +0.180 C 
ATOM     21  C   LIG    1       -0.644   0.318   3.844  0.00  0.00    +0.220 A 
ATOM     22  N   LIG    1       -1.802   0.603   3.307  0.00  0.00    -0.300 NA
ATOM     23  N   LIG    1       -1.648   0.472   1.917  0.00  0.00    -0.370 N 
ATOM     24  C   LIG    1       -0.373   0.099   1.711  0.00  0.00    +0.280 A 
ATOM     25  C   LIG    1        0.265  -0.168   0.372  0.00  0.00    +0.190 C 
ATOM     26  N   LIG    1        0.218   0.014   2.875  0.00  0.00    -0.540 NA
ENDBRANCH  19  23
ENDBRANCH   1  19
TORSDOF 5
