REMARK  Name = ZINCqH0000031FsV.1
REMARK                            x       y       z     vdW  Elec       q    Type
REMARK                         _______ _______ _______ _____ _____    ______ ____
ROOT
ATOM      1  C   LIG    1       -1.002   3.756   2.410  0.00  0.00    +0.500 C 
ATOM      2  N   LIG    1       -0.424   4.055   3.590  0.00  0.00    -0.630 N 
ATOM      3  H   LIG    1        0.455   4.464   3.610  0.00  0.00    +0.430 HD
ATOM      4  O   LIG    1       -2.101   3.245   2.385  0.00  0.00    -0.450 OA
ENDROOT
BRANCH   2   5
ATOM      5  C   LIG    1       -1.089   3.778   4.780  0.00  0.00    +0.220 A 
ATOM      6  N   LIG    1       -2.267   3.240   4.881  0.00  0.00    -0.270 NA
ATOM      7  N   LIG    1       -2.727   3.051   6.041  0.00  0.00    -0.220 NA
ATOM      8  C   LIG    1       -1.978   3.425   7.030  0.00  0.00    +0.020 A 
ATOM      9  S   LIG    1       -0.493   4.096   6.354  0.00  0.00    +0.100 S 
BRANCH   8  10
ATOM     10  C   LIG    1       -2.315   3.308   8.494  0.00  0.00    +0.090 C 
ATOM     11  C   LIG    1       -2.537   1.836   8.850  0.00  0.00    +0.030 C 
ATOM     12  C   LIG    1       -2.879   1.717  10.337  0.00  0.00    +0.010 C 
ATOM     13  C   LIG    1       -4.153   2.511  10.632  0.00  0.00    +0.010 C 
ATOM     14  C   LIG    1       -3.930   3.983  10.276  0.00  0.00    +0.010 C 
ATOM     15  C   LIG    1       -3.589   4.102   8.790  0.00  0.00    +0.030 C 
ENDBRANCH   8  10
ENDBRANCH   2   5
BRANCH   1  16
ATOM     16  C   LIG    1       -0.281   4.057   1.121  0.00  0.00    +0.090 C 
BRANCH  16  17
ATOM     17  C   LIG    1       -1.149   3.623  -0.062  0.00  0.00    +0.310 C 
BRANCH  17  18
ATOM     18  C   LIG    1       -0.485   4.034  -1.351  0.00  0.00    -0.100 A 
ATOM     19  C   LIG    1        0.555   3.281  -1.863  0.00  0.00    +0.020 A 
ATOM     20  C   LIG    1        1.162   3.655  -3.047  0.00  0.00    +0.000 A 
ATOM     21  C   LIG    1        0.735   4.788  -3.714  0.00  0.00    +0.000 A 
ATOM     22  C   LIG    1       -0.302   5.544  -3.199  0.00  0.00    +0.000 A 
ATOM     23  C   LIG    1       -0.911   5.167  -2.017  0.00  0.00    +0.020 A 
ENDBRANCH  17  18
BRANCH  17  26
ATOM     24  C   LIG    1       -2.510   0.101  -0.685  0.00  0.00    +0.100 C 
ATOM     25  C   LIG    1       -2.397   1.602  -0.608  0.00  0.00    +0.520 C 
ATOM     26  N   LIG    1       -1.313   2.167  -0.040  0.00  0.00    -0.720 N 
ATOM     27  H   LIG    1       -0.641   1.610   0.384  0.00  0.00    +0.400 HD
ATOM     28  O   LIG    1       -3.282   2.301  -1.052  0.00  0.00    -0.540 OA
ENDBRANCH  17  26
ENDBRANCH  16  17
ENDBRANCH   1  16
TORSDOF 6
