REMARK  Name = ZINCrH000004jMMd.0
REMARK                            x       y       z     vdW  Elec       q    Type
REMARK                         _______ _______ _______ _____ _____    ______ ____
ROOT
ATOM      1  C   LIG    1        2.620   4.680  -1.491  0.00  0.00    +0.490 C 
ATOM      2  N   LIG    1        2.615   3.718  -0.547  0.00  0.00    -0.570 N 
ATOM      3  C   LIG    1        1.687   2.679  -0.655  0.00  0.00    +0.170 A 
ATOM      4  C   LIG    1        1.083   2.470  -1.893  0.00  0.00    -0.030 A 
ATOM      5  C   LIG    1        0.149   1.467  -2.055  0.00  0.00    +0.050 A 
ATOM      6  C   LIG    1       -0.189   0.653  -0.989  0.00  0.00    +0.000 A 
ATOM      7  C   LIG    1        0.402   0.851   0.243  0.00  0.00    +0.070 A 
ATOM      8  C   LIG    1        1.343   1.860   0.415  0.00  0.00    -0.120 A 
ATOM      9  S   LIG    1        2.086   2.070   2.001  0.00  0.00    -0.100 S 
ATOM     10  C   LIG    1        2.822   3.726   1.878  0.00  0.00    +0.110 C 
ATOM     11  C   LIG    1        3.581   3.805   0.545  0.00  0.00    +0.290 C 
ATOM     12  O   LIG    1        3.639   5.294  -1.726  0.00  0.00    -0.460 OA
ENDROOT
BRANCH  11  13
ATOM     13  C   LIG    1        4.326   5.112   0.463  0.00  0.00    -0.080 A 
ATOM     14  C   LIG    1        3.809   6.241   1.071  0.00  0.00    +0.000 A 
ATOM     15  C   LIG    1        4.495   7.439   1.000  0.00  0.00    +0.000 A 
ATOM     16  C   LIG    1        5.692   7.511   0.313  0.00  0.00    +0.010 A 
ATOM     17  C   LIG    1        6.207   6.383  -0.299  0.00  0.00    +0.000 A 
ATOM     18  C   LIG    1        5.523   5.184  -0.224  0.00  0.00    +0.060 A 
ENDBRANCH  11  13
BRANCH   1  19
ATOM     19  C   LIG    1        1.359   4.993  -2.254  0.00  0.00    +0.330 C 
BRANCH  19  20
ATOM     20  N   LIG    1        1.424   6.366  -2.762  0.00  0.00    -0.610 N 
ATOM     21  C   LIG    1        1.997   6.631  -4.084  0.00  0.00    +0.270 C 
BRANCH  20  25
ATOM     22  C   LIG    1        0.174  10.887  -1.250  0.00  0.00    +0.360 C 
ATOM     23  N   LIG    1        0.375   9.437  -1.301  0.00  0.00    -0.370 N 
ATOM     24  C   LIG    1        0.933   8.742  -2.328  0.00  0.00    +0.150 A 
ATOM     25  C   LIG    1        0.934   7.430  -1.981  0.00  0.00    +0.060 A 
ATOM     26  C   LIG    1        0.357   7.321  -0.708  0.00  0.00    +0.180 A 
ATOM     27  N   LIG    1        0.028   8.521  -0.300  0.00  0.00    -0.270 NA
ENDBRANCH  20  25
ENDBRANCH  19  20
ENDBRANCH   1  19
TORSDOF 4
