REMARK  Name = ZINCqH0000051a87.0
REMARK                            x       y       z     vdW  Elec       q    Type
REMARK                         _______ _______ _______ _____ _____    ______ ____
ROOT
ATOM      1  C   LIG    1        1.120   3.657   0.011  0.00  0.00    +0.250 C 
ENDROOT
BRANCH   1   3
ATOM      2  O   LIG    1        2.199   1.558  -0.011  0.00  0.00    -0.510 OA
ATOM      3  C   LIG    1        1.140   2.151   0.003  0.00  0.00    +0.520 C 
ATOM      4  N   LIG    1       -0.018   1.461   0.010  0.00  0.00    -0.730 N 
ATOM      5  H   LIG    1       -0.864   1.934   0.017  0.00  0.00    +0.400 HD
BRANCH   4   6
ATOM      6  C   LIG    1        0.002  -0.004   0.002  0.00  0.00    +0.270 C 
BRANCH   6   7
ATOM      7  C   LIG    1       -1.433  -0.534   0.013  0.00  0.00    +0.070 C 
BRANCH   7   8
ATOM      8  C   LIG    1       -1.413  -2.041   0.005  0.00  0.00    -0.080 A 
ATOM      9  C   LIG    1       -1.421  -2.725  -1.196  0.00  0.00    +0.030 A 
ATOM     10  C   LIG    1       -1.397  -4.107  -1.205  0.00  0.00    +0.030 A 
ATOM     11  C   LIG    1       -1.377  -4.805  -0.011  0.00  0.00    -0.030 A 
ATOM     12  C   LIG    1       -1.374  -4.120   1.191  0.00  0.00    +0.030 A 
ATOM     13 CL   LIG    1       -1.355  -6.541  -0.020  0.00  0.00    -0.070 Cl
ATOM     14  C   LIG    1       -1.392  -2.738   1.198  0.00  0.00    +0.030 A 
ENDBRANCH   7   8
ENDBRANCH   6   7
ENDBRANCH   4   6
ENDBRANCH   1   3
BRANCH   1  15
ATOM     15  O   LIG    1        2.482   4.160   0.001  0.00  0.00    -0.330 OA
BRANCH  15  16
ATOM     16  C   LIG    1        2.640   5.493   0.006  0.00  0.00    +0.470 C 
ATOM     17  O   LIG    1        1.672   6.216   0.019  0.00  0.00    -0.500 OA
BRANCH  16  18
ATOM     18  C   LIG    1        4.024   6.088  -0.004  0.00  0.00    -0.040 C 
ATOM     19  C   LIG    1        4.766   5.633  -1.262  0.00  0.00    +0.050 C 
ATOM     20  C   LIG    1        6.171   6.237  -1.273  0.00  0.00    +0.000 C 
ATOM     21  C   LIG    1        6.936   5.769  -0.033  0.00  0.00    +0.030 C 
ATOM     22  C   LIG    1        6.195   6.224   1.226  0.00  0.00    +0.000 C 
ATOM     23  C   LIG    1        6.094   7.750   1.235  0.00  0.00    +0.020 C 
ATOM     24  C   LIG    1        5.329   8.218  -0.005  0.00  0.00    +0.000 C 
ATOM     25  C   LIG    1        6.071   7.764  -1.264  0.00  0.00    +0.020 C 
ATOM     26  C   LIG    1        4.789   5.620   1.236  0.00  0.00    +0.050 C 
ATOM     27  C   LIG    1        3.924   7.614   0.005  0.00  0.00    +0.050 C 
ENDBRANCH  16  18
ENDBRANCH  15  16
ENDBRANCH   1  15
TORSDOF 7
