REMARK  Name = ZINCb70000006lxB.0
REMARK                            x       y       z     vdW  Elec       q    Type
REMARK                         _______ _______ _______ _____ _____    ______ ____
ROOT
ATOM      1  C   LIG    1       -0.013   1.086   0.008  0.00  0.00    -0.040 C 
ATOM      2  C   LIG    1        1.388   1.721  -0.002  0.00  0.00    +0.090 C 
ATOM      3  C   LIG    1        1.341   1.659   1.534  0.00  0.00    +0.260 C 
ATOM      4  C   LIG    1       -0.192   1.692   1.410  0.00  0.00    +0.070 C 
ENDROOT
BRANCH   3   5
ATOM      5  N   LIG    1        1.858   0.405   2.087  0.00  0.00    -0.280 N 
ATOM      6  C   LIG    1        1.153  -0.738   2.254  0.00  0.00    +0.120 A 
ATOM      7  C   LIG    1        2.013  -1.637   2.788  0.00  0.00    +0.150 A 
ATOM      8  N   LIG    1        3.185  -1.006   2.926  0.00  0.00    -0.260 NA
ATOM      9  N   LIG    1        3.060   0.202   2.501  0.00  0.00    -0.070 NA
ENDBRANCH   3   5
BRANCH   1  10
ATOM     10  C   LIG    1       -0.959   1.673  -1.041  0.00  0.00    +0.280 C 
BRANCH  10  11
ATOM     11  N   LIG    1       -2.237   0.948  -1.008  0.00  0.00    -0.640 N 
ATOM     12  H   LIG    1       -2.861   1.335  -1.699  0.00  0.00    +0.440 HD
ATOM     13  H   LIG    1       -2.651   1.039  -0.092  0.00  0.00    +0.440 HD
ATOM     14  H   LIG    1       -2.075  -0.027  -1.209  0.00  0.00    +0.440 HD
ENDBRANCH  10  11
ENDBRANCH   1  10
TORSDOF 3
