REMARK  Name = ZINCpe000000U6jl.0
REMARK                            x       y       z     vdW  Elec       q    Type
REMARK                         _______ _______ _______ _____ _____    ______ ____
ROOT
ATOM      1  C   LIG    1       -1.235   2.107   0.018  0.00  0.00    +0.170 C 
ATOM      2  N   LIG    1       -0.664   3.465   0.026  0.00  0.00    -0.710 N 
ATOM      3  H   LIG    1       -1.157   4.301   0.034  0.00  0.00    +0.440 HD
ATOM      4  C   LIG    1        0.673   3.321   0.013  0.00  0.00    +0.710 C 
ATOM      5  N   LIG    1        1.048   2.037   0.003  0.00  0.00    -0.560 N 
ATOM      6  O   LIG    1        1.453   4.253   0.010  0.00  0.00    -0.530 OA
ATOM      7  C   LIG    1       -0.014   1.208   0.009  0.00  0.00    +0.540 C 
ATOM      8  O   LIG    1        0.002  -0.004   0.002  0.00  0.00    -0.450 OA
ENDROOT
BRANCH   1   9
ATOM      9  C   LIG    1       -2.067   1.885  -1.218  0.00  0.00    -0.110 A 
ATOM     10  C   LIG    1       -3.075   0.940  -1.212  0.00  0.00    +0.080 A 
ATOM     11  C   LIG    1       -3.842   0.739  -2.344  0.00  0.00    -0.010 A 
ATOM     12  C   LIG    1       -3.593   1.478  -3.488  0.00  0.00    +0.110 A 
ATOM     13  C   LIG    1       -2.579   2.421  -3.495  0.00  0.00    -0.010 A 
ATOM     14  F   LIG    1       -4.338   1.279  -4.597  0.00  0.00    -0.130 F 
ATOM     15  C   LIG    1       -1.817   2.623  -2.360  0.00  0.00    +0.070 A 
ENDBRANCH   1   9
BRANCH   1  17
ATOM     16  C   LIG    1       -1.256   2.274   2.511  0.00  0.00    +0.020 C 
ATOM     17  C   LIG    1       -2.068   1.870   1.279  0.00  0.00    +0.060 C 
ENDBRANCH   1  17
BRANCH   5  18
ATOM     18  C   LIG    1        2.443   1.587  -0.011  0.00  0.00    +0.360 C 
BRANCH  18  19
ATOM     19  C   LIG    1        2.908   1.439  -1.437  0.00  0.00    +0.510 C 
ATOM     20  N   LIG    1        4.167   1.033  -1.696  0.00  0.00    -0.610 N 
ATOM     21  C   LIG    1        5.107   0.734  -0.604  0.00  0.00    +0.250 C 
ATOM     22  C   LIG    1        5.722  -0.649  -0.866  0.00  0.00    +0.220 C 
ATOM     23  O   LIG    1        6.259  -0.681  -2.190  0.00  0.00    -0.380 OA
ATOM     24  C   LIG    1        5.284  -0.505  -3.221  0.00  0.00    +0.220 C 
ATOM     25  C   LIG    1        4.644   0.881  -3.080  0.00  0.00    +0.260 C 
ATOM     26  O   LIG    1        2.150   1.685  -2.351  0.00  0.00    -0.520 OA
ENDBRANCH  18  19
ENDBRANCH   5  18
TORSDOF 4
