REMARK  Name = ZINCAx0000000hA9.0
REMARK                            x       y       z     vdW  Elec       q    Type
REMARK                         _______ _______ _______ _____ _____    ______ ____
ROOT
ATOM      1  C   LIG    1       -2.615   5.035   0.043  0.00  0.00    +0.510 C 
ATOM      2  N   LIG    1       -2.663   3.689   0.112  0.00  0.00    -0.530 N 
ATOM      3  O   LIG    1       -1.544   5.606   0.072  0.00  0.00    -0.500 OA
ENDROOT
BRANCH   2   4
ATOM      4  C   LIG    1       -1.480   2.949   0.320  0.00  0.00    -0.130 A 
ATOM      5  C   LIG    1       -1.038   2.050  -0.628  0.00  0.00    +0.480 A 
ATOM      6  N   LIG    1        0.120   1.344  -0.396  0.00  0.00    -0.540 N 
ATOM      7  C   LIG    1        0.813   1.528   0.742  0.00  0.00    +0.710 A 
ATOM      8  N   LIG    1        0.397   2.400   1.678  0.00  0.00    -0.660 N 
ATOM      9  H   LIG    1        0.915   2.515   2.490  0.00  0.00    +0.430 HD
ATOM     10  O   LIG    1        1.834   0.895   0.928  0.00  0.00    -0.530 OA
ATOM     11  C   LIG    1       -0.733   3.112   1.502  0.00  0.00    +0.560 A 
ATOM     12  O   LIG    1       -1.104   3.897   2.359  0.00  0.00    -0.500 OA
BRANCH   5  13
ATOM     13  N   LIG    1       -1.746   1.862  -1.791  0.00  0.00    -0.840 N 
ATOM     14  H   LIG    1       -2.597   2.309  -1.918  0.00  0.00    +0.420 HD
ATOM     15  H   LIG    1       -1.393   1.283  -2.485  0.00  0.00    +0.410 HD
ENDBRANCH   5  13
BRANCH   6  16
ATOM     16  C   LIG    1        0.601   0.386  -1.395  0.00  0.00    +0.310 C 
BRANCH  16  17
ATOM     17  C   LIG    1        0.004  -0.993  -1.108  0.00  0.00    -0.040 C 
ATOM     18  C   LIG    1        0.602  -2.018  -2.073  0.00  0.00    +0.030 C 
ATOM     19  C   LIG    1       -1.514  -0.941  -1.295  0.00  0.00    +0.030 C 
ENDBRANCH  16  17
ENDBRANCH   6  16
ENDBRANCH   2   4
BRANCH   1  20
ATOM     20  C   LIG    1       -3.889   5.831  -0.070  0.00  0.00    +0.330 C 
BRANCH  20  22
ATOM     21  C   LIG    1       -3.488   7.978   1.010  0.00  0.00    +0.570 C 
ATOM     22  N   LIG    1       -3.570   7.260  -0.128  0.00  0.00    -0.600 N 
ATOM     23  C   LIG    1       -3.340   7.907  -1.421  0.00  0.00    +0.290 C 
ATOM     24  O   LIG    1       -3.587   7.424   2.087  0.00  0.00    -0.520 OA
BRANCH  21  28
ATOM     25  C   LIG    1       -2.881  12.178   0.829  0.00  0.00    +0.160 A 
ATOM     26  C   LIG    1       -2.522  11.474   1.972  0.00  0.00    -0.020 A 
ATOM     27  C   LIG    1       -2.717  10.112   2.035  0.00  0.00    +0.120 A 
ATOM     28  C   LIG    1       -3.277   9.438   0.947  0.00  0.00    -0.170 A 
ATOM     29  C   LIG    1       -3.631  10.148  -0.203  0.00  0.00    +0.090 A 
ATOM     30  C   LIG    1       -3.437  11.510  -0.256  0.00  0.00    -0.090 A 
BRANCH  25  31
ATOM     31  O   LIG    1       -2.687  13.519   0.770  0.00  0.00    -0.310 OA
BRANCH  31  32
ATOM     32  C   LIG    1       -3.078  14.180  -0.435  0.00  0.00    +0.180 C 
BRANCH  32  33
ATOM     33  C   LIG    1       -2.784  15.677  -0.314  0.00  0.00    +0.040 C 
BRANCH  33  35
ATOM     34  C   LIG    1       -2.910  17.881  -1.484  0.00  0.00    +0.030 C 
ATOM     35  C   LIG    1       -3.203  16.384  -1.605  0.00  0.00    +0.020 C 
ENDBRANCH  33  35
ENDBRANCH  32  33
ENDBRANCH  31  32
ENDBRANCH  25  31
ENDBRANCH  21  28
ENDBRANCH  20  22
ENDBRANCH   1  20
BRANCH   2  36
ATOM     36  C   LIG    1       -3.946   2.994  -0.031  0.00  0.00    +0.270 C 
BRANCH  36  37
ATOM     37  C   LIG    1       -4.570   2.788   1.351  0.00  0.00    -0.030 C 
ATOM     38  C   LIG    1       -3.708   1.819   2.161  0.00  0.00    +0.010 C 
ATOM     39  C   LIG    1       -5.978   2.209   1.193  0.00  0.00    +0.030 C 
ENDBRANCH  36  37
ENDBRANCH   2  36
TORSDOF 13
