REMARK  Name = ZINCpk000000nQvL.0
REMARK                            x       y       z     vdW  Elec       q    Type
REMARK                         _______ _______ _______ _____ _____    ______ ____
ROOT
ATOM      1  N   LIG    1        0.917  -2.713  -0.333  0.00  0.00    -0.730 N 
ATOM      2  H   LIG    1        0.039  -2.531   0.036  0.00  0.00    +0.400 HD
ATOM      3  C   LIG    1        1.720  -1.692  -0.695  0.00  0.00    +0.730 C 
ATOM      4  N   LIG    1        1.303  -0.420  -0.543  0.00  0.00    -0.630 N 
ATOM      5  C   LIG    1        0.002  -0.004   0.002  0.00  0.00    +0.260 C 
ATOM      6  C   LIG    1       -0.019   1.539   0.011  0.00  0.00    +0.100 C 
ATOM      7  C   LIG    1        1.488   1.907  -0.002  0.00  0.00    +0.080 C 
ATOM      8  C   LIG    1        2.075   0.785  -0.895  0.00  0.00    +0.300 C 
ATOM      9  O   LIG    1        2.821  -1.920  -1.158  0.00  0.00    -0.580 OA
ENDROOT
BRANCH   1  14
ATOM     10  C   LIG    1        3.249  -7.944   0.971  0.00  0.00    +0.230 A 
ATOM     11  N   LIG    1        3.402  -6.700   1.350  0.00  0.00    -0.310 NA
ATOM     12  N   LIG    1        2.446  -5.951   0.657  0.00  0.00    -0.370 N 
ATOM     13  C   LIG    1        2.201  -4.510   0.722  0.00  0.00    +0.310 C 
ATOM     14  C   LIG    1        1.371  -4.096  -0.498  0.00  0.00    +0.260 C 
ATOM     15  C   LIG    1        0.156  -5.020  -0.627  0.00  0.00    +0.040 C 
ATOM     16  C   LIG    1        0.628  -6.423  -1.028  0.00  0.00    +0.180 C 
ATOM     17  C   LIG    1        1.762  -6.818  -0.113  0.00  0.00    +0.270 A 
ATOM     18  N   LIG    1        2.253  -8.009   0.084  0.00  0.00    -0.530 NA
BRANCH  10  20
ATOM     19  C   LIG    1        3.144 -10.134   2.128  0.00  0.00    +0.050 C 
ATOM     20  C   LIG    1        4.065  -9.114   1.457  0.00  0.00    +0.090 C 
ATOM     21  C   LIG    1        4.775  -9.769   0.271  0.00  0.00    +0.050 C 
ENDBRANCH  10  20
ENDBRANCH   1  14
BRANCH   7  22
ATOM     22  C   LIG    1        1.712   3.283  -0.632  0.00  0.00    +0.440 C 
ATOM     23  F   LIG    1        1.241   3.274  -1.950  0.00  0.00    -0.170 F 
ATOM     24  F   LIG    1        3.078   3.582  -0.627  0.00  0.00    -0.180 F 
ATOM     25  F   LIG    1        1.020   4.251   0.104  0.00  0.00    -0.170 F 
ENDBRANCH   7  22
BRANCH   7  26
ATOM     26  O   LIG    1        2.039   1.854   1.315  0.00  0.00    -0.510 OA
ATOM     27  H   LIG    1        2.980   2.076   1.358  0.00  0.00    +0.390 HD
ENDBRANCH   7  26
TORSDOF 4
