REMARK  Name = ZINCc70000001nWY.0
REMARK                            x       y       z     vdW  Elec       q    Type
REMARK                         _______ _______ _______ _____ _____    ______ ____
ROOT
ATOM      1  O   LIG    1        2.042  -2.792  -0.663  0.00  0.00    -0.520 OA
ATOM      2  C   LIG    1        1.055  -2.154  -0.346  0.00  0.00    +0.580 C 
ATOM      3  N   LIG    1       -0.077  -2.795   0.007  0.00  0.00    -0.700 N 
ATOM      4  H   LIG    1       -0.864  -2.286   0.259  0.00  0.00    +0.400 HD
ENDROOT
BRANCH   2   5
ATOM      5  C   LIG    1        1.097  -0.691  -0.349  0.00  0.00    -0.070 C 
ATOM      6  C   LIG    1        0.002  -0.004   0.002  0.00  0.00    +0.190 C 
ATOM      7  O   LIG    1       -0.016   1.346   0.009  0.00  0.00    -0.300 OA
ATOM      8  C   LIG    1        1.254   2.008   0.001  0.00  0.00    +0.220 C 
ATOM      9  C   LIG    1        2.140   1.327  -1.052  0.00  0.00    +0.230 C 
ATOM     10  O   LIG    1        2.250  -0.060  -0.709  0.00  0.00    -0.290 OA
ENDBRANCH   2   5
BRANCH   3  11
ATOM     11  C   LIG    1       -0.120  -4.259   0.009  0.00  0.00    +0.220 C 
ATOM     12  C   LIG    1       -1.359  -4.931  -0.586  0.00  0.00    +0.020 C 
ATOM     13  C   LIG    1       -1.140  -4.935   0.928  0.00  0.00    +0.020 C 
ENDBRANCH   3  11
TORSDOF 2
