REMARK  Name = ZINCrD00000l3Of0.0
REMARK                            x       y       z     vdW  Elec       q    Type
REMARK                         _______ _______ _______ _____ _____    ______ ____
ROOT
ATOM      1  O   LIG    1        3.555   2.129   0.081  0.00  0.00    -0.560 OA
ATOM      2  C   LIG    1        3.483   3.342   0.088  0.00  0.00    +0.720 C 
ATOM      3  N   LIG    1        2.282   3.947   0.001  0.00  0.00    -0.660 N 
ATOM      4  H   LIG    1        2.229   4.914  -0.059  0.00  0.00    +0.410 HD
ATOM      5  N   LIG    1        4.606   4.083   0.182  0.00  0.00    -0.520 N 
ATOM      6  H   LIG    1        5.470   3.648   0.244  0.00  0.00    +0.440 HD
ENDROOT
BRANCH   3   7
ATOM      7  C   LIG    1        1.111   3.180  -0.003  0.00  0.00    +0.130 A 
ATOM      8  C   LIG    1        1.088   1.930  -0.611  0.00  0.00    +0.100 A 
ATOM      9  C   LIG    1       -0.096   1.207  -0.589  0.00  0.00    +0.000 A 
ATOM     10  C   LIG    1       -1.209   1.748   0.024  0.00  0.00    +0.280 A 
ATOM     11  N   LIG    1       -1.158   2.935   0.599  0.00  0.00    -0.480 NA
ATOM     12  C   LIG    1       -0.052   3.659   0.603  0.00  0.00    +0.340 A 
BRANCH  12  13
ATOM     13  N   LIG    1       -0.047   4.915   1.218  0.00  0.00    -0.330 N 
ATOM     14  C   LIG    1       -1.127   5.715   1.412  0.00  0.00    +0.270 A 
ATOM     15  C   LIG    1       -0.699   6.834   2.042  0.00  0.00    -0.100 A 
ATOM     16  C   LIG    1        0.682   6.721   2.232  0.00  0.00    +0.260 A 
ATOM     17  N   LIG    1        1.074   5.574   1.739  0.00  0.00    -0.300 NA
ENDBRANCH  12  13
ENDBRANCH   3   7
BRANCH   5  18
ATOM     18  N   LIG    1        4.523   5.482   0.190  0.00  0.00    -0.550 N 
ATOM     19  H   LIG    1        3.658   5.917   0.128  0.00  0.00    +0.420 HD
BRANCH  18  20
ATOM     20  C   LIG    1        5.688   6.251   0.288  0.00  0.00    +0.200 A 
ATOM     21  C   LIG    1        6.926   5.628   0.383  0.00  0.00    -0.020 A 
ATOM     22  C   LIG    1        8.075   6.388   0.475  0.00  0.00    +0.010 A 
ATOM     23  C   LIG    1        7.993   7.772   0.483  0.00  0.00    +0.050 A 
ATOM     24  C   LIG    1        6.757   8.395   0.393  0.00  0.00    +0.080 A 
ATOM     25  C   LIG    1        5.607   7.637   0.296  0.00  0.00    -0.010 A 
BRANCH  23  26
ATOM     26  O   LIG    1        9.125   8.520   0.579  0.00  0.00    -0.310 OA
BRANCH  26  27
ATOM     27  C   LIG    1       10.364   7.813   0.667  0.00  0.00    +0.600 C 
ATOM     28  F   LIG    1       10.355   6.997   1.804  0.00  0.00    -0.170 F 
ATOM     29  F   LIG    1       11.418   8.728   0.759  0.00  0.00    -0.130 F 
ATOM     30  F   LIG    1       10.532   7.021  -0.474  0.00  0.00    -0.170 F 
ENDBRANCH  26  27
ENDBRANCH  23  26
ENDBRANCH  18  20
ENDBRANCH   5  18
TORSDOF 6
