REMARK  Name = ZINCrD00000lbtCH.0
REMARK                            x       y       z     vdW  Elec       q    Type
REMARK                         _______ _______ _______ _____ _____    ______ ____
ROOT
ATOM      1  C   LIG    1       -4.022   1.213  -4.659  0.00  0.00    +0.080 A 
ATOM      2  C   LIG    1       -3.419   0.666  -3.544  0.00  0.00    +0.040 A 
ATOM      3  C   LIG    1       -2.389   1.359  -2.911  0.00  0.00    -0.160 A 
ATOM      4  C   LIG    1       -1.965   2.611  -3.409  0.00  0.00    +0.150 A 
ATOM      5  N   LIG    1       -0.958   3.265  -2.775  0.00  0.00    -0.510 NA
ATOM      6  C   LIG    1       -0.378   2.767  -1.726  0.00  0.00    +0.580 A 
ATOM      7  N   LIG    1       -0.721   1.571  -1.179  0.00  0.00    -0.540 N 
ATOM      8  C   LIG    1       -2.587   3.147  -4.538  0.00  0.00    +0.050 A 
ATOM      9  C   LIG    1       -1.707   0.822  -1.724  0.00  0.00    +0.550 A 
ATOM     10  O   LIG    1       -2.021  -0.254  -1.248  0.00  0.00    -0.510 OA
ATOM     11  C   LIG    1       -3.605   2.450  -5.153  0.00  0.00    +0.130 A 
ATOM     12  F   LIG    1       -4.206   2.971  -6.245  0.00  0.00    -0.120 F 
ENDROOT
BRANCH   1  14
ATOM     13  C   LIG    1       -5.408  -0.719  -4.725  0.00  0.00    +0.250 C 
ATOM     14  O   LIG    1       -5.028   0.542  -5.281  0.00  0.00    -0.300 OA
ENDBRANCH   1  14
BRANCH   7  15
ATOM     15  C   LIG    1       -0.013   1.086   0.008  0.00  0.00    +0.310 C 
BRANCH  15  16
ATOM     16  C   LIG    1       -0.718   1.572   1.248  0.00  0.00    +0.350 C 
ATOM     17  O   LIG    1       -1.710   2.253   1.150  0.00  0.00    -0.430 OA
BRANCH  16  18
ATOM     18  C   LIG    1       -0.185   1.208   2.610  0.00  0.00    -0.090 C 
ATOM     19  C   LIG    1        1.239   1.745   2.760  0.00  0.00    +0.040 C 
ATOM     20  C   LIG    1        1.780   1.375   4.143  0.00  0.00    +0.000 C 
ATOM     21  C   LIG    1        1.790  -0.148   4.296  0.00  0.00    +0.020 C 
ATOM     22  C   LIG    1        0.366  -0.685   4.145  0.00  0.00    +0.000 C 
ATOM     23  C   LIG    1       -0.528  -0.070   5.224  0.00  0.00    +0.020 C 
ATOM     24  C   LIG    1       -0.538   1.453   5.071  0.00  0.00    -0.020 C 
ATOM     25  C   LIG    1        0.886   1.990   5.222  0.00  0.00    +0.020 C 
ATOM     26  C   LIG    1       -0.175  -0.315   2.763  0.00  0.00    +0.040 C 
ATOM     27  C   LIG    1       -1.079   1.823   3.688  0.00  0.00    +0.050 C 
ENDBRANCH  16  18
ENDBRANCH  15  16
ENDBRANCH   7  15
TORSDOF 4
