REMARK  Name = ZINCnE000005uiaY.0
REMARK                            x       y       z     vdW  Elec       q    Type
REMARK                         _______ _______ _______ _____ _____    ______ ____
ROOT
ATOM      1  C   LIG    1        0.328   6.210  -2.624  0.00  0.00    +0.560 C 
ATOM      2  N   LIG    1        1.615   6.410  -2.278  0.00  0.00    -0.600 N 
ATOM      3  O   LIG    1       -0.384   5.512  -1.934  0.00  0.00    -0.530 OA
ENDROOT
BRANCH   2   4
ATOM      4  C   LIG    1        2.475   7.253  -3.112  0.00  0.00    +0.240 C 
ATOM      5  C   LIG    1        3.578   6.396  -3.737  0.00  0.00    -0.010 C 
ATOM      6  C   LIG    1        4.476   7.276  -4.608  0.00  0.00    +0.000 C 
ATOM      7  C   LIG    1        5.108   8.370  -3.745  0.00  0.00    +0.000 C 
ATOM      8  C   LIG    1        4.006   9.228  -3.120  0.00  0.00    +0.020 C 
ATOM      9  C   LIG    1        3.107   8.347  -2.249  0.00  0.00    +0.010 C 
ENDBRANCH   2   4
BRANCH   1  13
ATOM     10  C   LIG    1       -0.976   8.169  -3.601  0.00  0.00    -0.090 C 
ATOM     11  C   LIG    1       -2.242   7.318  -3.413  0.00  0.00    +0.030 C 
ATOM     12  C   LIG    1       -1.576   6.267  -4.317  0.00  0.00    +0.030 C 
ATOM     13  C   LIG    1       -0.226   6.853  -3.869  0.00  0.00    -0.040 C 
BRANCH  10  15
ATOM     14  O   LIG    1        0.093   9.920  -2.424  0.00  0.00    -0.700 OA
ATOM     15  C   LIG    1       -0.528   8.874  -2.347  0.00  0.00    +0.500 C 
ATOM     16  O   LIG    1       -0.786   8.398  -1.255  0.00  0.00    -0.680 OA
ENDBRANCH  10  15
ENDBRANCH   1  13
BRANCH   2  17
ATOM     17  C   LIG    1        2.154   5.784  -1.068  0.00  0.00    +0.330 C 
BRANCH  17  18
ATOM     18  C   LIG    1        2.591   4.377  -1.382  0.00  0.00    -0.090 A 
ATOM     19  C   LIG    1        3.919   4.112  -1.663  0.00  0.00    +0.010 A 
ATOM     20  C   LIG    1        4.321   2.821  -1.950  0.00  0.00    -0.010 A 
ATOM     21  C   LIG    1        3.395   1.795  -1.958  0.00  0.00    -0.010 A 
ATOM     22  C   LIG    1        2.067   2.060  -1.683  0.00  0.00    -0.010 A 
ATOM     23  C   LIG    1        1.666   3.350  -1.390  0.00  0.00    +0.030 A 
ENDBRANCH  17  18
ENDBRANCH   2  17
TORSDOF 5
