REMARK  Name = ZINCrD000000CVTe.0
REMARK                            x       y       z     vdW  Elec       q    Type
REMARK                         _______ _______ _______ _____ _____    ______ ____
ROOT
ATOM      1  C   LIG    1       -6.426  -1.371   1.915  0.00  0.00    -0.160 A 
ATOM      2  C   LIG    1       -5.698  -0.945   3.011  0.00  0.00    +0.090 A 
ATOM      3  C   LIG    1       -4.522  -0.242   2.830  0.00  0.00    -0.020 A 
ATOM      4  C   LIG    1       -4.072   0.036   1.548  0.00  0.00    +0.140 A 
ATOM      5  C   LIG    1       -4.807  -0.387   0.450  0.00  0.00    -0.080 A 
ATOM      6  C   LIG    1       -5.979  -1.093   0.636  0.00  0.00    +0.080 A 
ENDROOT
BRANCH   1   7
ATOM      7  C   LIG    1       -7.708  -2.137   2.115  0.00  0.00    +0.370 C 
BRANCH   7  19
ATOM      8  O   LIG    1       -8.803  -0.880   4.419  0.00  0.00    -0.530 OA
ATOM      9  C   LIG    1       -9.281  -0.654   3.325  0.00  0.00    +0.700 C 
ATOM     10  N   LIG    1      -10.319   0.177   3.120  0.00  0.00    -0.720 N 
ATOM     11  H   LIG    1      -10.800   0.682   3.794  0.00  0.00    +0.440 HD
ATOM     12  C   LIG    1      -10.586   0.165   1.673  0.00  0.00    +0.120 C 
ATOM     13  C   LIG    1       -9.542  -0.783   1.122  0.00  0.00    +0.530 C 
ATOM     14  O   LIG    1       -9.380  -1.103  -0.036  0.00  0.00    -0.440 OA
ATOM     15  C   LIG    1      -11.986  -0.362   1.391  0.00  0.00    +0.070 C 
ATOM     16  C   LIG    1      -12.845   0.640   0.592  0.00  0.00    +0.150 C 
ATOM     17  S   LIG    1      -11.577   1.652  -0.276  0.00  0.00    -0.250 S 
ATOM     18  C   LIG    1      -10.353   1.575   1.095  0.00  0.00    +0.150 C 
ATOM     19  N   LIG    1       -8.831  -1.199   2.189  0.00  0.00    -0.570 N 
ENDBRANCH   7  19
ENDBRANCH   1   7
BRANCH   4  20
ATOM     20  O   LIG    1       -2.916   0.728   1.368  0.00  0.00    -0.310 OA
BRANCH  20  21
ATOM     21  C   LIG    1       -2.513   0.978   0.020  0.00  0.00    +0.250 C 
BRANCH  21  22
ATOM     22  C   LIG    1       -1.219   1.750   0.017  0.00  0.00    -0.110 A 
ATOM     23  C   LIG    1       -0.013   1.076   0.008  0.00  0.00    +0.080 A 
ATOM     24  C   LIG    1        1.175   1.783   0.000  0.00  0.00    -0.020 A 
ATOM     25  C   LIG    1        1.156   3.167   0.008  0.00  0.00    +0.110 A 
ATOM     26  C   LIG    1       -0.053   3.842   0.022  0.00  0.00    -0.020 A 
ATOM     27  F   LIG    1        2.316   3.859  -0.000  0.00  0.00    -0.140 F 
ATOM     28  C   LIG    1       -1.240   3.133   0.030  0.00  0.00    +0.080 A 
ENDBRANCH  21  22
ENDBRANCH  20  21
ENDBRANCH   4  20
TORSDOF 5
