REMARK  Name = ZINCrD000000C0yE.0
REMARK                            x       y       z     vdW  Elec       q    Type
REMARK                         _______ _______ _______ _____ _____    ______ ____
ROOT
ATOM      1  O   LIG    1        1.286   5.828  -0.082  0.00  0.00    -0.510 OA
ATOM      2  C   LIG    1        2.342   5.232  -0.095  0.00  0.00    +0.520 C 
ATOM      3  N   LIG    1        2.359   3.888  -0.001  0.00  0.00    -0.670 N 
ATOM      4  H   LIG    1        3.204   3.417   0.066  0.00  0.00    +0.410 HD
ENDROOT
BRANCH   2   5
ATOM      5  C   LIG    1        3.636   5.995  -0.218  0.00  0.00    +0.010 C 
ATOM      6  C   LIG    1        3.338   7.494  -0.309  0.00  0.00    +0.050 C 
ATOM      7  C   LIG    1        4.653   8.257  -0.493  0.00  0.00    +0.040 C 
ATOM      8  C   LIG    1        5.363   7.745  -1.749  0.00  0.00    +0.190 C 
ATOM      9  N   LIG    1        5.625   6.307  -1.612  0.00  0.00    -0.490 N 
ATOM     10  C   LIG    1        4.375   5.549  -1.481  0.00  0.00    +0.210 C 
BRANCH   9  11
ATOM     11  C   LIG    1        6.385   5.836  -2.677  0.00  0.00    +0.260 A 
ATOM     12  C   LIG    1        5.938   6.012  -3.985  0.00  0.00    +0.190 A 
ATOM     13  N   LIG    1        6.664   5.567  -4.993  0.00  0.00    -0.430 NA
ATOM     14  C   LIG    1        7.809   4.947  -4.763  0.00  0.00    +0.210 A 
ATOM     15  C   LIG    1        8.253   4.766  -3.466  0.00  0.00    +0.250 A 
ATOM     16  N   LIG    1        7.534   5.213  -2.451  0.00  0.00    -0.420 NA
ENDBRANCH   9  11
ENDBRANCH   2   5
BRANCH   3  17
ATOM     17  C   LIG    1        1.155   3.170   0.002  0.00  0.00    +0.120 A 
ATOM     18  C   LIG    1        0.072   3.629  -0.736  0.00  0.00    +0.040 A 
ATOM     19  C   LIG    1       -1.114   2.923  -0.734  0.00  0.00    +0.010 A 
ATOM     20  C   LIG    1       -1.226   1.756   0.011  0.00  0.00    +0.100 A 
ATOM     21  C   LIG    1       -0.141   1.294   0.745  0.00  0.00    -0.020 A 
ATOM     22  C   LIG    1        1.045   2.001   0.742  0.00  0.00    +0.010 A 
BRANCH  20  23
ATOM     23  N   LIG    1       -2.430   1.043   0.018  0.00  0.00    -0.490 N 
ATOM     24  C   LIG    1       -3.546   1.899   0.439  0.00  0.00    +0.180 C 
ATOM     25  C   LIG    1       -4.862   1.132   0.296  0.00  0.00    +0.020 C 
ATOM     26  C   LIG    1       -4.808  -0.130   1.161  0.00  0.00    +0.010 C 
ATOM     27  C   LIG    1       -3.608  -0.981   0.735  0.00  0.00    +0.020 C 
ATOM     28  C   LIG    1       -2.329  -0.152   0.866  0.00  0.00    +0.180 C 
ENDBRANCH  20  23
ENDBRANCH   3  17
TORSDOF 4
