REMARK  Name = ZINCrH000004qCne.1
REMARK                            x       y       z     vdW  Elec       q    Type
REMARK                         _______ _______ _______ _____ _____    ______ ____
ROOT
ATOM      1  C   LIG    1       -0.009   1.095   0.014  0.00  0.00    +0.080 C 
ATOM      2  C   LIG    1       -0.721   1.568   1.255  0.00  0.00    -0.110 A 
ATOM      3  C   LIG    1       -0.009   1.793   2.417  0.00  0.00    +0.020 A 
ATOM      4  C   LIG    1       -0.662   2.227   3.556  0.00  0.00    -0.090 A 
ATOM      5  C   LIG    1       -2.028   2.438   3.536  0.00  0.00    +0.050 A 
ATOM      6  C   LIG    1       -2.746   2.215   2.378  0.00  0.00    +0.030 A 
ATOM      7  C   LIG    1       -2.093   1.784   1.230  0.00  0.00    +0.150 A 
ENDROOT
BRANCH   7   8
ATOM      8  N   LIG    1       -2.816   1.563   0.054  0.00  0.00    -0.640 N 
ATOM      9  H   LIG    1       -2.477   0.948  -0.615  0.00  0.00    +0.420 HD
ATOM     10  C   LIG    1       -3.983   2.205  -0.150  0.00  0.00    +0.580 C 
ATOM     11  O   LIG    1       -4.358   3.050   0.638  0.00  0.00    -0.500 OA
BRANCH  10  12
ATOM     12  C   LIG    1       -4.809   1.881  -1.335  0.00  0.00    +0.130 A 
ATOM     13  N   LIG    1       -4.460   0.889  -2.136  0.00  0.00    -0.450 NA
ATOM     14  C   LIG    1       -5.162   0.558  -3.205  0.00  0.00    +0.260 A 
ATOM     15  C   LIG    1       -6.302   1.222  -3.559  0.00  0.00    +0.050 A 
ATOM     16  C   LIG    1       -6.743   2.292  -2.759  0.00  0.00    +0.150 A 
ATOM     17  N   LIG    1       -7.847   2.982  -3.047  0.00  0.00    -0.480 NA
ATOM     18  C   LIG    1       -8.251   3.967  -2.279  0.00  0.00    +0.330 A 
ATOM     19  C   LIG    1       -7.542   4.349  -1.142  0.00  0.00    -0.020 A 
ATOM     20  C   LIG    1       -6.399   3.686  -0.794  0.00  0.00    +0.140 A 
ATOM     21  C   LIG    1       -5.976   2.626  -1.612  0.00  0.00    -0.120 A 
ENDBRANCH  10  12
ENDBRANCH   7   8
BRANCH   4  22
ATOM     22  C   LIG    1        0.118   2.471   4.822  0.00  0.00    +0.240 C 
BRANCH  22  23
ATOM     23  N   LIG    1        0.580   3.865   4.852  0.00  0.00    -0.550 NA
ATOM     24  C   LIG    1        1.518   4.131   3.759  0.00  0.00    +0.190 C 
ATOM     25  C   LIG    1        1.641   5.642   3.534  0.00  0.00    +0.130 C 
ATOM     26  S   LIG    1        2.308   6.398   5.048  0.00  0.00    -0.270 S 
ATOM     27  C   LIG    1        1.197   5.729   6.323  0.00  0.00    +0.120 C 
ATOM     28  C   LIG    1        1.135   4.207   6.164  0.00  0.00    +0.200 C 
ENDBRANCH  22  23
ENDBRANCH   4  22
TORSDOF 4
