REMARK  Name = ZINCkj000005f92u.0
REMARK                            x       y       z     vdW  Elec       q    Type
REMARK                         _______ _______ _______ _____ _____    ______ ____
ROOT
ATOM      1  C   LIG    1        8.511  -1.470  -0.622  0.00  0.00    +0.160 C 
ATOM      2  C   LIG    1        7.596  -2.379  -1.447  0.00  0.00    +0.060 C 
ATOM      3  C   LIG    1        6.154  -1.881  -1.336  0.00  0.00    +0.220 C 
ATOM      4  N   LIG    1        5.739  -1.888   0.072  0.00  0.00    -0.490 N 
ATOM      5  C   LIG    1        6.573  -0.985   0.876  0.00  0.00    +0.230 C 
ATOM      6  C   LIG    1        8.028  -1.457   0.831  0.00  0.00    +0.060 C 
ENDROOT
BRANCH   4   7
ATOM      7  C   LIG    1        4.386  -1.564   0.198  0.00  0.00    +0.160 A 
ATOM      8  C   LIG    1        3.795  -1.516   1.454  0.00  0.00    -0.020 A 
ATOM      9  C   LIG    1        2.457  -1.195   1.574  0.00  0.00    +0.160 A 
ATOM     10  C   LIG    1        1.706  -0.923   0.445  0.00  0.00    -0.690 A 
ATOM     11  C   LIG    1        2.290  -0.975  -0.807  0.00  0.00    +0.160 A 
ATOM     12  C   LIG    1        3.628  -1.289  -0.934  0.00  0.00    -0.050 A 
BRANCH  10  13
ATOM     13  S   LIG    1       -0.001  -0.515   0.603  0.00  0.00    +2.700 S 
ATOM     14  O   LIG    1       -0.606  -0.831  -0.643  0.00  0.00    -0.960 OA
ATOM     15  O   LIG    1       -0.433  -1.066   1.839  0.00  0.00    -0.960 OA
BRANCH  13  16
ATOM     16  N   LIG    1       -0.099   1.131   0.766  0.00  0.00    -1.250 NA
ATOM     17  H   LIG    1       -0.964   1.558   0.863  0.00  0.00    +0.420 HD
ATOM     18  H   LIG    1        0.709   1.667   0.760  0.00  0.00    +0.420 HD
ENDBRANCH  13  16
ENDBRANCH  10  13
ENDBRANCH   4   7
BRANCH   1  19
ATOM     19  N   LIG    1        9.888  -1.978  -0.677  0.00  0.00    -0.500 N 
ATOM     20  H   LIG    1       10.169  -2.082  -1.641  0.00  0.00    +0.430 HD
ATOM     21  H   LIG    1        9.935  -2.873  -0.214  0.00  0.00    +0.430 HD
BRANCH  19  23
ATOM     22  C   LIG    1       12.193  -1.627   0.071  0.00  0.00    +0.090 C 
ATOM     23  C   LIG    1       10.787  -1.030  -0.004  0.00  0.00    +0.160 C 
ATOM     24  C   LIG    1       10.830   0.280  -0.793  0.00  0.00    +0.090 C 
ENDBRANCH  19  23
ENDBRANCH   1  19
TORSDOF 5
