REMARK  Name = ZINCpe000000ZE6I.0
REMARK                            x       y       z     vdW  Elec       q    Type
REMARK                         _______ _______ _______ _____ _____    ______ ____
ROOT
ATOM      1  C   LIG    1       -1.386  -2.743  -3.083  0.00  0.00    +0.520 C 
ATOM      2  N   LIG    1       -1.041  -1.799  -2.186  0.00  0.00    -0.720 N 
ATOM      3  H   LIG    1       -0.752  -0.924  -2.489  0.00  0.00    +0.410 HD
ATOM      4  O   LIG    1       -1.747  -3.837  -2.704  0.00  0.00    -0.480 OA
ENDROOT
BRANCH   2   5
ATOM      5  C   LIG    1       -1.102  -2.094  -0.752  0.00  0.00    +0.280 C 
ATOM      6  C   LIG    1       -1.282  -0.790   0.027  0.00  0.00    +0.140 C 
ATOM      7  C   LIG    1        0.002  -0.004   0.002  0.00  0.00    -0.190 A 
ATOM      8  C   LIG    1       -0.017   1.374   0.010  0.00  0.00    +0.300 A 
ATOM      9  N   LIG    1        1.112   2.061   0.003  0.00  0.00    -0.500 NA
ATOM     10  C   LIG    1        2.291   1.468  -0.007  0.00  0.00    +0.300 A 
ATOM     11  C   LIG    1        2.393   0.091  -0.017  0.00  0.00    -0.070 A 
ATOM     12  C   LIG    1        1.225  -0.667  -0.017  0.00  0.00    +0.210 A 
ATOM     13  N   LIG    1        1.275  -2.056  -0.048  0.00  0.00    -0.660 N 
ATOM     14  H   LIG    1        2.112  -2.511   0.134  0.00  0.00    +0.420 HD
ATOM     15  C   LIG    1        0.172  -2.774  -0.327  0.00  0.00    +0.510 C 
ATOM     16  O   LIG    1        0.205  -3.983  -0.236  0.00  0.00    -0.480 OA
ENDBRANCH   2   5
BRANCH   1  20
ATOM     17  O   LIG    1       -2.850  -3.742  -7.314  0.00  0.00    -0.430 OA
ATOM     18  C   LIG    1       -1.896  -3.382  -6.653  0.00  0.00    +0.530 C 
ATOM     19  O   LIG    1       -1.853  -3.571  -5.310  0.00  0.00    -0.330 OA
ATOM     20  C   LIG    1       -1.323  -2.440  -4.558  0.00  0.00    +0.200 C 
ATOM     21  C   LIG    1        0.129  -2.196  -4.968  0.00  0.00    +0.100 C 
ATOM     22  C   LIG    1        0.247  -2.138  -6.468  0.00  0.00    -0.040 A 
ATOM     23  C   LIG    1        1.331  -1.512  -7.050  0.00  0.00    +0.010 A 
ATOM     24  C   LIG    1        1.449  -1.464  -8.428  0.00  0.00    +0.050 A 
ATOM     25  C   LIG    1        0.484  -2.041  -9.234  0.00  0.00    +0.010 A 
ATOM     26  C   LIG    1       -0.607  -2.668  -8.667  0.00  0.00    +0.090 A 
ATOM     27  C   LIG    1       -0.730  -2.717  -7.280  0.00  0.00    -0.170 A 
ENDBRANCH   1  20
TORSDOF 2
