REMARK  Name = ZINCqH0000008JIK.0
REMARK                            x       y       z     vdW  Elec       q    Type
REMARK                         _______ _______ _______ _____ _____    ______ ____
ROOT
ATOM      1  S   LIG    1        0.027  -0.618   1.709  0.00  0.00    +2.440 S 
ATOM      2  O   LIG    1       -1.198  -0.262   2.335  0.00  0.00    -0.900 OA
ATOM      3  O   LIG    1        1.253  -0.229   2.312  0.00  0.00    -0.920 OA
ENDROOT
BRANCH   1   4
ATOM      4  C   LIG    1        0.049  -2.415   1.461  0.00  0.00    -0.470 C 
ATOM      5  C   LIG    1       -1.136  -2.823   0.583  0.00  0.00    +0.110 C 
BRANCH   4  12
ATOM      6  C   LIG    1        3.070  -6.379   1.132  0.00  0.00    +0.030 C 
ATOM      7  C   LIG    1        2.452  -5.534   2.248  0.00  0.00    -0.030 C 
ATOM      8  C   LIG    1        2.325  -6.378   3.518  0.00  0.00    +0.030 C 
ATOM      9  C   LIG    1        1.738  -5.523   4.644  0.00  0.00    -0.020 C 
ATOM     10  C   LIG    1        0.340  -5.044   4.240  0.00  0.00    +0.280 C 
ATOM     11  N   LIG    1        0.432  -4.356   2.945  0.00  0.00    -0.600 N 
ATOM     12  C   LIG    1       -0.053  -3.107   2.795  0.00  0.00    +0.540 C 
ATOM     13  O   LIG    1       -0.572  -2.542   3.734  0.00  0.00    -0.520 OA
ATOM     14  C   LIG    1        2.641  -4.313   4.891  0.00  0.00    +0.030 C 
ATOM     15  C   LIG    1        1.058  -5.057   1.815  0.00  0.00    +0.270 C 
ENDBRANCH   4  12
ENDBRANCH   1   4
BRANCH   1  16
ATOM     16  C   LIG    1        0.002  -0.004   0.002  0.00  0.00    -0.280 C 
BRANCH  16  17
ATOM     17  C   LIG    1       -0.018   1.503   0.010  0.00  0.00    -0.100 A 
ATOM     18  C   LIG    1       -1.225   2.178   0.020  0.00  0.00    +0.030 A 
ATOM     19  C   LIG    1       -1.244   3.560   0.032  0.00  0.00    +0.010 A 
ATOM     20  C   LIG    1       -0.056   4.267   0.025  0.00  0.00    -0.060 A 
ATOM     21  C   LIG    1        1.151   3.592   0.010  0.00  0.00    +0.020 A 
ATOM     22  C   LIG    1        1.169   2.210   0.003  0.00  0.00    +0.030 A 
BRANCH  20  23
ATOM     23  C   LIG    1       -0.076   5.774   0.035  0.00  0.00    -0.030 C 
ATOM     24  C   LIG    1        0.649   6.286   1.280  0.00  0.00    +0.040 C 
ATOM     25  C   LIG    1       -1.526   6.264   0.050  0.00  0.00    +0.030 C 
ATOM     26  C   LIG    1        0.627   6.301  -1.218  0.00  0.00    +0.040 C 
ENDBRANCH  20  23
ENDBRANCH  16  17
ENDBRANCH   1  16
TORSDOF 5
