REMARK  Name = ZINCrD00000hQ57v.0
REMARK                            x       y       z     vdW  Elec       q    Type
REMARK                         _______ _______ _______ _____ _____    ______ ____
ROOT
ATOM      1  S   LIG    1        1.166   5.130  -2.274  0.00  0.00    +2.700 S 
ATOM      2  O   LIG    1        0.597   5.026  -3.572  0.00  0.00    -0.950 OA
ATOM      3  O   LIG    1        2.550   5.362  -2.047  0.00  0.00    -0.960 OA
ENDROOT
BRANCH   1   7
ATOM      4  C   LIG    1       -1.052   8.469  -0.168  0.00  0.00    +0.190 A 
ATOM      5  C   LIG    1       -1.439   8.072  -1.440  0.00  0.00    -0.070 A 
ATOM      6  C   LIG    1       -0.761   7.053  -2.080  0.00  0.00    +0.170 A 
ATOM      7  C   LIG    1        0.303   6.429  -1.454  0.00  0.00    -0.690 A 
ATOM      8  C   LIG    1        0.687   6.819  -0.185  0.00  0.00    -0.030 A 
ATOM      9  C   LIG    1        0.015   7.842   0.457  0.00  0.00    +0.010 A 
BRANCH   8  10
ATOM     10  C   LIG    1        1.843   6.133   0.497  0.00  0.00    +0.440 C 
ATOM     11  F   LIG    1        1.778   4.757   0.252  0.00  0.00    -0.180 F 
ATOM     12  F   LIG    1        1.776   6.366   1.875  0.00  0.00    -0.190 F 
ENDBRANCH   8  10
BRANCH   4  14
ATOM     13  C   LIG    1       -2.806  10.072  -0.241  0.00  0.00    +0.250 C 
ATOM     14  O   LIG    1       -1.718   9.472   0.463  0.00  0.00    -0.310 OA
ENDBRANCH   4  14
ENDBRANCH   1   7
BRANCH   1  15
ATOM     15  N   LIG    1        0.793   3.721  -1.486  0.00  0.00    -1.100 NA
ATOM     16  H   LIG    1        1.490   3.219  -1.035  0.00  0.00    +0.420 HD
BRANCH  15  17
ATOM     17  C   LIG    1       -0.588   3.233  -1.472  0.00  0.00    +0.270 C 
ATOM     18  C   LIG    1       -1.264   3.656  -0.166  0.00  0.00    +0.020 C 
ATOM     19  C   LIG    1       -0.501   3.061   1.019  0.00  0.00    +0.010 C 
ATOM     20  C   LIG    1       -0.504   1.535   0.914  0.00  0.00    +0.010 C 
ATOM     21  C   LIG    1        0.172   1.112  -0.392  0.00  0.00    +0.030 C 
ATOM     22  C   LIG    1       -0.591   1.707  -1.577  0.00  0.00    +0.070 C 
BRANCH  22  23
ATOM     23  C   LIG    1        0.075   1.291  -2.863  0.00  0.00    +0.090 A 
ATOM     24  C   LIG    1        1.123   1.909  -3.455  0.00  0.00    -0.120 A 
ATOM     25  C   LIG    1        1.433   1.206  -4.624  0.00  0.00    +0.230 A 
ATOM     26  N   LIG    1        0.601   0.202  -4.730  0.00  0.00    -0.300 NA
ATOM     27  N   LIG    1       -0.263   0.232  -3.628  0.00  0.00    -0.370 N 
ATOM     28  C   LIG    1       -1.345  -0.718  -3.355  0.00  0.00    +0.350 C 
ENDBRANCH  22  23
ENDBRANCH  15  17
ENDBRANCH   1  15
TORSDOF 6
