REMARK  Name = ZINCpk00000FaEvN.0
REMARK                            x       y       z     vdW  Elec       q    Type
REMARK                         _______ _______ _______ _____ _____    ______ ____
ROOT
ATOM      1  C   LIG    1        0.002  -0.004   0.002  0.00  0.00    +0.390 C 
ENDROOT
BRANCH   1   2
ATOM      2  C   LIG    1       -0.018   1.503   0.010  0.00  0.00    +0.180 A 
ATOM      3  N   LIG    1        1.032   2.278   0.004  0.00  0.00    -0.470 NA
ATOM      4  C   LIG    1        0.636   3.559   0.015  0.00  0.00    +0.140 A 
ATOM      5  C   LIG    1       -0.711   3.579   0.028  0.00  0.00    +0.140 A 
ATOM      6  N   LIG    1       -1.126   2.275   0.019  0.00  0.00    -0.450 N 
BRANCH   6   7
ATOM      7  C   LIG    1       -2.514   1.804   0.022  0.00  0.00    +0.310 C 
BRANCH   7   8
ATOM      8  C   LIG    1       -2.950   1.514   1.460  0.00  0.00    +0.070 C 
BRANCH   8   9
ATOM      9  C   LIG    1       -4.377   1.030   1.463  0.00  0.00    -0.090 A 
ATOM     10  C   LIG    1       -5.414   1.936   1.582  0.00  0.00    +0.010 A 
ATOM     11  C   LIG    1       -6.724   1.493   1.581  0.00  0.00    +0.000 A 
ATOM     12  C   LIG    1       -6.996   0.142   1.470  0.00  0.00    +0.000 A 
ATOM     13  C   LIG    1       -5.959  -0.765   1.356  0.00  0.00    +0.000 A 
ATOM     14  C   LIG    1       -4.649  -0.321   1.353  0.00  0.00    +0.010 A 
ENDBRANCH   8   9
ENDBRANCH   7   8
ENDBRANCH   6   7
ENDBRANCH   1   2
BRANCH   1  16
ATOM     15  C   LIG    1        0.042  -1.826   1.619  0.00  0.00    +0.530 C 
ATOM     16  N   LIG    1        0.021  -0.500   1.381  0.00  0.00    -0.730 N 
ATOM     17  H   LIG    1        0.019   0.127   2.121  0.00  0.00    +0.400 HD
ATOM     18  O   LIG    1        0.044  -2.609   0.693  0.00  0.00    -0.500 OA
BRANCH  15  21
ATOM     19  C   LIG    1        1.442  -3.345   4.726  0.00  0.00    +0.140 C 
ATOM     20  C   LIG    1        1.496  -2.262   3.617  0.00  0.00    +0.070 C 
ATOM     21  C   LIG    1        0.061  -2.336   3.037  0.00  0.00    +0.140 C 
ATOM     22  N   LIG    1       -0.286  -3.772   3.073  0.00  0.00    -0.500 NA
ATOM     23  C   LIG    1       -1.720  -3.961   3.334  0.00  0.00    +0.200 C 
ATOM     24  C   LIG    1        0.531  -4.428   4.110  0.00  0.00    +0.170 C 
BRANCH  19  26
ATOM     25  C   LIG    1        2.940  -4.311   6.329  0.00  0.00    +0.200 C 
ATOM     26  O   LIG    1        2.746  -3.870   4.984  0.00  0.00    -0.370 OA
ENDBRANCH  19  26
ENDBRANCH  15  21
ENDBRANCH   1  16
TORSDOF 7
