REMARK  Name = ZINCpk00000xI7lF.0
REMARK                            x       y       z     vdW  Elec       q    Type
REMARK                         _______ _______ _______ _____ _____    ______ ____
ROOT
ATOM      1  N   LIG    1       -1.788   6.171   2.720  0.00  0.00    -1.120 NA
ATOM      2  H   LIG    1       -1.881   6.724   3.512  0.00  0.00    +0.420 HD
ENDROOT
BRANCH   1   3
ATOM      3  S   LIG    1       -2.491   4.673   2.670  0.00  0.00    +2.790 S 
ATOM      4  O   LIG    1       -3.116   4.480   3.931  0.00  0.00    -0.970 OA
ATOM      5  O   LIG    1       -3.191   4.599   1.435  0.00  0.00    -0.970 OA
BRANCH   3   9
ATOM      6  C   LIG    1        0.129   0.853   4.824  0.00  0.00    +0.070 C 
ATOM      7  C   LIG    1       -0.658   1.464   3.663  0.00  0.00    +0.140 C 
ATOM      8  C   LIG    1       -0.670   2.991   3.799  0.00  0.00    +0.270 C 
ATOM      9  N   LIG    1       -1.267   3.560   2.580  0.00  0.00    -1.010 NA
ATOM     10  C   LIG    1       -0.745   3.112   1.279  0.00  0.00    +0.270 C 
ATOM     11  C   LIG    1       -0.729   1.579   1.267  0.00  0.00    +0.150 C 
ATOM     12  C   LIG    1       -0.013   1.086   0.008  0.00  0.00    +0.070 C 
ATOM     13  O   LIG    1       -0.038   1.106   2.426  0.00  0.00    -0.370 OA
ENDBRANCH   3   9
ENDBRANCH   1   3
BRANCH   1  14
ATOM     14  C   LIG    1       -1.026   6.662   1.570  0.00  0.00    +0.340 C 
BRANCH  14  15
ATOM     15  C   LIG    1       -0.810   8.148   1.707  0.00  0.00    -0.020 A 
ATOM     16  C   LIG    1       -1.724   9.049   1.179  0.00  0.00    -0.040 A 
ATOM     17  C   LIG    1       -1.499  10.403   1.327  0.00  0.00    +0.320 A 
ATOM     18  N   LIG    1       -0.425  10.846   1.952  0.00  0.00    -0.530 NA
ATOM     19  C   LIG    1        0.470  10.019   2.464  0.00  0.00    +0.320 A 
ATOM     20  C   LIG    1        0.306   8.644   2.357  0.00  0.00    -0.020 A 
BRANCH  19  21
ATOM     21  O   LIG    1        1.561  10.518   3.099  0.00  0.00    -0.290 OA
BRANCH  21  22
ATOM     22  C   LIG    1        1.672  11.940   3.175  0.00  0.00    +0.260 C 
BRANCH  22  23
ATOM     23  C   LIG    1        2.956  12.312   3.921  0.00  0.00    +0.460 C 
ATOM     24  F   LIG    1        2.916  11.777   5.213  0.00  0.00    -0.170 F 
ATOM     25  F   LIG    1        3.065  13.704   3.996  0.00  0.00    -0.170 F 
ATOM     26  F   LIG    1        4.060  11.794   3.236  0.00  0.00    -0.170 F 
ENDBRANCH  22  23
ENDBRANCH  21  22
ENDBRANCH  19  21
ENDBRANCH  14  15
ENDBRANCH   1  14
TORSDOF 7
