REMARK  Name = ZINCpe00000c5NUX.0
REMARK                            x       y       z     vdW  Elec       q    Type
REMARK                         _______ _______ _______ _____ _____    ______ ____
ROOT
ATOM      1  C   LIG    1       -0.890   1.663   1.173  0.00  0.00    +0.080 C 
ATOM      2  C   LIG    1       -2.295   1.049   0.784  0.00  0.00    +0.020 C 
ATOM      3  C   LIG    1       -2.294   1.047  -0.763  0.00  0.00    +0.030 C 
ATOM      4  C   LIG    1       -0.915   1.676  -1.137  0.00  0.00    +0.130 C 
ATOM      5  C   LIG    1       -1.008   3.151  -0.631  0.00  0.00    +0.200 C 
ATOM      6  C   LIG    1       -0.013   1.086   0.008  0.00  0.00    +0.040 C 
ATOM      7  O   LIG    1       -0.966   3.068   0.808  0.00  0.00    -0.370 OA
ENDROOT
BRANCH   4   8
ATOM      8  N   LIG    1       -0.456   1.480  -2.514  0.00  0.00    -0.700 N 
ATOM      9  H   LIG    1        0.372   1.004  -2.686  0.00  0.00    +0.410 HD
ATOM     10  C   LIG    1       -1.182   1.962  -3.542  0.00  0.00    +0.530 C 
ATOM     11  O   LIG    1       -2.217   2.558  -3.326  0.00  0.00    -0.520 OA
BRANCH  10  12
ATOM     12  C   LIG    1       -0.710   1.760  -4.958  0.00  0.00    -0.020 C 
ATOM     13  C   LIG    1        0.515   2.677  -5.307  0.00  0.00    +0.010 C 
ATOM     14  C   LIG    1        0.612   2.455  -6.847  0.00  0.00    +0.020 C 
ATOM     15  C   LIG    1       -0.851   2.268  -7.308  0.00  0.00    +0.020 C 
ATOM     16  C   LIG    1       -0.130   4.089  -5.156  0.00  0.00    +0.010 C 
ATOM     17  C   LIG    1       -1.594   3.901  -5.617  0.00  0.00    +0.020 C 
ATOM     18  C   LIG    1       -1.695   2.394  -6.003  0.00  0.00    +0.030 C 
ENDBRANCH  10  12
ENDBRANCH   4   8
BRANCH   1  19
ATOM     19  C   LIG    1       -0.402   1.359   2.591  0.00  0.00    +0.370 C 
BRANCH  19  20
ATOM     20  N   LIG    1       -1.381   1.856   3.562  0.00  0.00    -0.690 NA
ATOM     21  H   LIG    1       -2.188   2.298   3.254  0.00  0.00    +0.420 HD
BRANCH  20  27
ATOM     22  C   LIG    1       -3.250   2.794   5.802  0.00  0.00    +0.370 C 
ATOM     23  N   LIG    1       -1.965   2.100   5.921  0.00  0.00    -0.420 NA
ATOM     24  N   LIG    1       -1.311   1.714   7.104  0.00  0.00    -0.090 NA
ATOM     25  N   LIG    1       -0.214   1.135   6.751  0.00  0.00    -0.020 NA
ATOM     26  N   LIG    1       -0.114   1.112   5.471  0.00  0.00    -0.380 NA
ATOM     27  C   LIG    1       -1.155   1.694   4.917  0.00  0.00    +0.500 C 
ENDBRANCH  20  27
ENDBRANCH  19  20
ENDBRANCH   1  19
TORSDOF 5
