REMARK  Name = ZINCvU0000000HSn.0
REMARK                            x       y       z     vdW  Elec       q    Type
REMARK                         _______ _______ _______ _____ _____    ______ ____
ROOT
ATOM      1  N   LIG    1        3.403  -0.599   0.020  0.00  0.00    -0.670 N 
ATOM      2  H   LIG    1        4.254  -0.135  -0.010  0.00  0.00    +0.400 HD
ENDROOT
BRANCH   1   3
ATOM      3  C   LIG    1        2.211   0.131   0.078  0.00  0.00    +0.150 A 
ATOM      4  C   LIG    1        1.077  -0.335  -0.572  0.00  0.00    +0.010 A 
ATOM      5  C   LIG    1       -0.100   0.388  -0.513  0.00  0.00    +0.020 A 
ATOM      6  C   LIG    1       -0.151   1.577   0.192  0.00  0.00    +0.010 A 
ATOM      7  C   LIG    1        0.973   2.049   0.843  0.00  0.00    +0.050 A 
ATOM      8  C   LIG    1        2.158   1.330   0.790  0.00  0.00    +0.120 A 
BRANCH   8   9
ATOM      9  N   LIG    1        3.298   1.807   1.449  0.00  0.00    -0.670 N 
ATOM     10  H   LIG    1        3.986   1.187   1.737  0.00  0.00    +0.410 HD
ATOM     11  C   LIG    1        3.440   3.127   1.683  0.00  0.00    +0.560 C 
ATOM     12  O   LIG    1        2.548   3.896   1.381  0.00  0.00    -0.510 OA
BRANCH  11  13
ATOM     13  C   LIG    1        4.679   3.638   2.305  0.00  0.00    -0.140 A 
ATOM     14  C   LIG    1        5.702   2.757   2.658  0.00  0.00    +0.030 A 
ATOM     15  C   LIG    1        6.858   3.241   3.233  0.00  0.00    +0.000 A 
ATOM     16  C   LIG    1        7.000   4.597   3.472  0.00  0.00    +0.040 A 
ATOM     17  C   LIG    1        5.987   5.476   3.130  0.00  0.00    +0.010 A 
ATOM     18  C   LIG    1        4.828   5.005   2.549  0.00  0.00    +0.090 A 
ENDBRANCH  11  13
ENDBRANCH   8   9
ENDBRANCH   1   3
BRANCH   1  23
ATOM     19  N   LIG    1        4.429  -2.818  -0.177  0.00  0.00    -0.390 N 
ATOM     20  N   LIG    1        3.965  -4.138  -0.117  0.00  0.00    -0.280 NA
ATOM     21  C   LIG    1        2.665  -4.112   0.085  0.00  0.00    +0.150 A 
ATOM     22  C   LIG    1        2.261  -2.766   0.167  0.00  0.00    -0.150 A 
ATOM     23  C   LIG    1        3.367  -1.990   0.006  0.00  0.00    +0.350 A 
BRANCH  21  24
ATOM     24  C   LIG    1        1.778  -5.295   0.206  0.00  0.00    -0.020 A 
ATOM     25  C   LIG    1        0.413  -5.127   0.426  0.00  0.00    +0.040 A 
ATOM     26  C   LIG    1       -0.408  -6.231   0.533  0.00  0.00    +0.010 A 
ATOM     27  C   LIG    1        0.124  -7.504   0.432  0.00  0.00    +0.010 A 
ATOM     28  C   LIG    1        1.480  -7.677   0.219  0.00  0.00    +0.010 A 
ATOM     29  C   LIG    1        2.309  -6.580   0.105  0.00  0.00    +0.040 A 
ENDBRANCH  21  24
BRANCH  19  30
ATOM     30  C   LIG    1        5.817  -2.402  -0.395  0.00  0.00    +0.350 C 
BRANCH  30  31
ATOM     31  C   LIG    1        6.530  -2.277   0.953  0.00  0.00    +0.190 C 
BRANCH  31  33
ATOM     32  N   LIG    1        9.000  -1.537   0.564  0.00  0.00    -0.410 NA
ATOM     33  C   LIG    1        7.924  -1.859   0.733  0.00  0.00    +0.200 C 
ENDBRANCH  31  33
ENDBRANCH  30  31
ENDBRANCH  19  30
ENDBRANCH   1  23
TORSDOF 8
