REMARK  Name = ZINCtV00000RsAhG.0
REMARK                            x       y       z     vdW  Elec       q    Type
REMARK                         _______ _______ _______ _____ _____    ______ ____
ROOT
ATOM      1  N   LIG    1        3.631  -0.694  -0.036  0.00  0.00    -0.710 N 
ATOM      2  H   LIG    1        4.431  -0.231   0.260  0.00  0.00    +0.420 HD
ENDROOT
BRANCH   1   4
ATOM      3  C   LIG    1        2.164   0.567  -1.494  0.00  0.00    -0.070 A 
ATOM      4  C   LIG    1        2.463   0.010  -0.242  0.00  0.00    +0.290 A 
ATOM      5  C   LIG    1        1.526   0.195   0.803  0.00  0.00    -0.110 A 
ATOM      6  C   LIG    1        1.754  -0.330   2.082  0.00  0.00    +0.110 A 
ATOM      7  C   LIG    1        0.830  -0.134   3.067  0.00  0.00    -0.090 A 
ATOM      8  C   LIG    1       -0.337   0.583   2.815  0.00  0.00    +0.090 A 
ATOM      9  C   LIG    1       -0.587   1.107   1.582  0.00  0.00    +0.080 A 
ATOM     10 BR   LIG    1        1.137  -0.842   4.793  0.00  0.00    -0.030 Br
ATOM     11  C   LIG    1        0.342   0.924   0.544  0.00  0.00    +0.180 A 
ATOM     12  N   LIG    1        0.114   1.432  -0.676  0.00  0.00    -0.450 NA
ATOM     13  C   LIG    1        0.962   1.277  -1.661  0.00  0.00    +0.250 A 
ATOM     14 CL   LIG    1        0.594   1.964  -3.212  0.00  0.00    +0.000 Cl
BRANCH   3  16
ATOM     15  N   LIG    1        3.794   0.291  -3.459  0.00  0.00    -0.370 NA
ATOM     16  C   LIG    1        3.073   0.413  -2.590  0.00  0.00    +0.250 C 
ENDBRANCH   3  16
ENDBRANCH   1   4
BRANCH   1  17
ATOM     17  C   LIG    1        3.663  -2.076  -0.254  0.00  0.00    +0.190 A 
ATOM     18  C   LIG    1        2.485  -2.757  -0.553  0.00  0.00    -0.020 A 
ATOM     19  C   LIG    1        2.503  -4.117  -0.773  0.00  0.00    +0.070 A 
ATOM     20  C   LIG    1        3.699  -4.817  -0.689  0.00  0.00    +0.020 A 
ATOM     21  C   LIG    1        4.891  -4.138  -0.382  0.00  0.00    +0.100 A 
ATOM     22  N   LIG    1        5.882  -5.067  -0.368  0.00  0.00    -0.490 NA
ATOM     23  C   LIG    1        5.388  -6.239  -0.639  0.00  0.00    +0.500 A 
ATOM     24  N   LIG    1        4.047  -6.146  -0.846  0.00  0.00    -0.500 N 
ATOM     25  C   LIG    1        4.862  -2.759  -0.165  0.00  0.00    +0.020 A 
BRANCH  24  26
ATOM     26  C   LIG    1        3.139  -7.248  -1.174  0.00  0.00    +0.350 C 
BRANCH  26  27
ATOM     27  C   LIG    1        2.958  -7.325  -2.691  0.00  0.00    +0.440 C 
ATOM     28  F   LIG    1        2.418  -6.122  -3.158  0.00  0.00    -0.170 F 
ATOM     29  F   LIG    1        2.092  -8.378  -3.004  0.00  0.00    -0.170 F 
ATOM     30  F   LIG    1        4.199  -7.546  -3.298  0.00  0.00    -0.180 F 
ENDBRANCH  26  27
ENDBRANCH  24  26
ENDBRANCH   1  17
TORSDOF 5
