REMARK  Name = ZINCrD000000D9Z0.0
REMARK                            x       y       z     vdW  Elec       q    Type
REMARK                         _______ _______ _______ _____ _____    ______ ____
ROOT
ATOM      1  C   LIG    1        1.176   1.783   0.000  0.00  0.00    -0.120 A 
ATOM      2  C   LIG    1       -0.013   1.076   0.008  0.00  0.00    +0.200 A 
ATOM      3  C   LIG    1       -1.218   1.749   0.017  0.00  0.00    -0.040 A 
ATOM      4  C   LIG    1       -1.236   3.138   0.031  0.00  0.00    +0.350 A 
ATOM      5  C   LIG    1       -0.040   3.845   0.023  0.00  0.00    -0.760 A 
ATOM      6  C   LIG    1        1.161   3.166   0.007  0.00  0.00    +0.270 A 
ENDROOT
BRANCH   1   8
ATOM      7  O   LIG    1        2.480  -0.160  -0.022  0.00  0.00    -0.160 OA
ATOM      8  N   LIG    1        2.466   1.058  -0.016  0.00  0.00    +0.040 N 
ATOM      9  O   LIG    1        3.514   1.679  -0.022  0.00  0.00    -0.160 OA
ENDBRANCH   1   8
BRANCH   5  10
ATOM     10  S   LIG    1       -0.057   5.607   0.031  0.00  0.00    +2.710 S 
ATOM     11  O   LIG    1        1.301   6.022  -0.015  0.00  0.00    -0.940 OA
ATOM     12  O   LIG    1       -0.954   5.995   1.063  0.00  0.00    -0.950 OA
BRANCH  10  13
ATOM     13  N   LIG    1       -0.745   6.098  -1.393  0.00  0.00    -1.010 NA
ATOM     14  C   LIG    1       -0.022   6.370  -2.644  0.00  0.00    +0.270 C 
ATOM     15  C   LIG    1       -1.066   6.820  -3.688  0.00  0.00    +0.040 C 
ATOM     16  C   LIG    1       -2.239   7.327  -2.808  0.00  0.00    +0.040 C 
ATOM     17  C   LIG    1       -2.182   6.339  -1.616  0.00  0.00    +0.260 C 
ENDBRANCH  10  13
ENDBRANCH   5  10
BRANCH   4  18
ATOM     18  N   LIG    1       -2.454   3.822   0.046  0.00  0.00    -0.690 N 
ATOM     19  H   LIG    1       -2.465   4.792   0.051  0.00  0.00    +0.410 HD
BRANCH  18  20
ATOM     20  C   LIG    1       -3.714   3.075   0.054  0.00  0.00    +0.220 C 
ATOM     21  C   LIG    1       -4.814   3.555   1.004  0.00  0.00    +0.050 C 
ATOM     22  C   LIG    1       -4.954   3.776  -0.504  0.00  0.00    +0.010 C 
BRANCH  22  23
ATOM     23  C   LIG    1       -5.960   2.928  -1.240  0.00  0.00    -0.060 A 
ATOM     24  C   LIG    1       -6.579   1.873  -0.595  0.00  0.00    +0.000 A 
ATOM     25  C   LIG    1       -7.505   1.099  -1.269  0.00  0.00    +0.010 A 
ATOM     26  C   LIG    1       -7.804   1.373  -2.590  0.00  0.00    +0.000 A 
ATOM     27  C   LIG    1       -7.181   2.424  -3.237  0.00  0.00    +0.000 A 
ATOM     28  C   LIG    1       -6.259   3.202  -2.561  0.00  0.00    +0.010 A 
ENDBRANCH  22  23
ENDBRANCH  18  20
ENDBRANCH   4  18
TORSDOF 6
