REMARK  Name = ZINCpe000000WHqM.0
REMARK                            x       y       z     vdW  Elec       q    Type
REMARK                         _______ _______ _______ _____ _____    ______ ____
ROOT
ATOM      1  C   LIG    1        0.680  -6.411  -1.628  0.00  0.00    +0.560 C 
ATOM      2  N   LIG    1        0.973  -5.098  -1.550  0.00  0.00    -0.610 N 
ATOM      3  C   LIG    1       -0.083  -4.101  -1.323  0.00  0.00    +0.290 C 
ATOM      4  C   LIG    1        0.042  -3.007  -2.389  0.00  0.00    +0.210 C 
ATOM      5  N   LIG    1        1.411  -2.474  -2.381  0.00  0.00    -0.470 N 
ATOM      6  C   LIG    1        2.388  -3.510  -2.743  0.00  0.00    +0.200 C 
ATOM      7  C   LIG    1        2.359  -4.625  -1.691  0.00  0.00    +0.310 C 
ATOM      8  O   LIG    1        1.552  -7.214  -1.899  0.00  0.00    -0.530 OA
ENDROOT
BRANCH   1  12
ATOM      9  C   LIG    1       -3.289  -7.745  -0.923  0.00  0.00    +0.170 A 
ATOM     10  C   LIG    1       -2.489  -8.407  -1.850  0.00  0.00    +0.000 A 
ATOM     11  C   LIG    1       -1.202  -7.977  -2.081  0.00  0.00    +0.100 A 
ATOM     12  C   LIG    1       -0.699  -6.874  -1.383  0.00  0.00    -0.140 A 
ATOM     13  C   LIG    1       -1.504  -6.215  -0.449  0.00  0.00    +0.070 A 
ATOM     14  C   LIG    1       -2.792  -6.647  -0.226  0.00  0.00    +0.010 A 
BRANCH   9  15
ATOM     15  N   LIG    1       -4.589  -8.182  -0.692  0.00  0.00    -1.060 N 
ATOM     16  H   LIG    1       -5.172  -8.387  -1.439  0.00  0.00    +0.430 HD
BRANCH  15  18
ATOM     17  C   LIG    1       -4.039  -9.593   1.598  0.00  0.00    -0.270 C 
ATOM     18  S   LIG    1       -5.141  -8.355   0.860  0.00  0.00    +2.610 S 
ATOM     19  O   LIG    1       -6.452  -8.881   0.709  0.00  0.00    -0.950 OA
ATOM     20  O   LIG    1       -4.926  -7.081   1.452  0.00  0.00    -0.950 OA
ENDBRANCH  15  18
ENDBRANCH   9  15
ENDBRANCH   1  12
BRANCH   5  21
ATOM     21  C   LIG    1        1.522  -1.371  -3.219  0.00  0.00    +0.260 A 
ATOM     22  C   LIG    1        2.743  -0.716  -3.354  0.00  0.00    +0.210 A 
ATOM     23  N   LIG    1        2.844   0.331  -4.151  0.00  0.00    -0.420 NA
ATOM     24  C   LIG    1        1.786   0.758  -4.821  0.00  0.00    +0.190 A 
ATOM     25  C   LIG    1        0.572   0.111  -4.689  0.00  0.00    +0.250 A 
ATOM     26  N   LIG    1        0.464  -0.939  -3.893  0.00  0.00    -0.480 NA
ENDBRANCH   5  21
TORSDOF 4
