REMARK  Name = ZINCkj00000y2kah.1
REMARK                            x       y       z     vdW  Elec       q    Type
REMARK                         _______ _______ _______ _____ _____    ______ ____
ROOT
ATOM      1  C   LIG    1       -4.898  -3.542  -1.425  0.00  0.00    +0.320 C 
ATOM      2  N   LIG    1       -4.884  -2.919  -0.095  0.00  0.00    -0.390 N 
ATOM      3  C   LIG    1       -4.877  -3.968   0.929  0.00  0.00    +0.260 C 
ATOM      4  C   LIG    1       -3.650  -4.871   0.760  0.00  0.00    +0.090 C 
ATOM      5  C   LIG    1       -2.395  -4.009   0.877  0.00  0.00    +0.150 C 
ATOM      6  O   LIG    1       -1.204  -4.771   0.701  0.00  0.00    -0.350 OA
ATOM      7  C   LIG    1       -0.009  -4.005   0.898  0.00  0.00    +0.250 C 
ATOM      8  C   LIG    1        0.056  -2.862  -0.125  0.00  0.00    +0.280 C 
ATOM      9  N   LIG    1       -1.221  -2.125  -0.099  0.00  0.00    -0.600 N 
ATOM     10  C   LIG    1       -1.258  -0.782   0.010  0.00  0.00    +0.580 C 
ATOM     11  O   LIG    1       -2.324  -0.212   0.131  0.00  0.00    -0.510 OA
ATOM     12  C   LIG    1       -2.450  -2.920  -0.203  0.00  0.00    +0.200 C 
ATOM     13  C   LIG    1       -3.693  -2.066   0.028  0.00  0.00    +0.300 C 
ATOM     14  H   LIG    1       -5.712  -2.352   0.015  0.00  0.00    +0.440 HD
ENDROOT
BRANCH  10  15
ATOM     15  C   LIG    1        0.001  -0.003  -0.017  0.00  0.00    -0.070 A 
ATOM     16  C   LIG    1        0.911  -0.144  -1.068  0.00  0.00    +0.010 A 
ATOM     17  C   LIG    1        2.074   0.603  -1.053  0.00  0.00    +0.300 A 
ATOM     18  N   LIG    1        2.329   1.438  -0.067  0.00  0.00    -0.450 NA
ATOM     19  C   LIG    1        1.499   1.603   0.944  0.00  0.00    +0.320 A 
ATOM     20  C   LIG    1        0.312   0.896   1.010  0.00  0.00    -0.110 A 
ATOM     21 BR   LIG    1       -0.875   1.146   2.461  0.00  0.00    -0.010 Br
ENDBRANCH  10  15
TORSDOF 1
