REMARK  Name = ZINCkj00000y2kah.0
REMARK                            x       y       z     vdW  Elec       q    Type
REMARK                         _______ _______ _______ _____ _____    ______ ____
ROOT
ATOM      1  C   LIG    1       -0.419   1.986  -1.195  0.00  0.00    +0.340 C 
ATOM      2  N   LIG    1        0.030   1.476   0.107  0.00  0.00    -0.390 N 
ATOM      3  C   LIG    1        1.359   2.018   0.406  0.00  0.00    +0.260 C 
ATOM      4  C   LIG    1        1.836   1.534   1.780  0.00  0.00    +0.090 C 
ATOM      5  C   LIG    1        1.879   0.008   1.767  0.00  0.00    +0.150 C 
ATOM      6  O   LIG    1        2.288  -0.526   3.023  0.00  0.00    -0.350 OA
ATOM      7  C   LIG    1        2.427  -1.952   3.011  0.00  0.00    +0.240 C 
ATOM      8  C   LIG    1        1.083  -2.608   2.681  0.00  0.00    +0.270 C 
ATOM      9  N   LIG    1        0.526  -1.981   1.468  0.00  0.00    -0.600 N 
ATOM     10  C   LIG    1        0.085  -2.721   0.431  0.00  0.00    +0.580 C 
ATOM     11  O   LIG    1       -0.445  -2.181  -0.519  0.00  0.00    -0.510 OA
ATOM     12  C   LIG    1        0.474  -0.515   1.440  0.00  0.00    +0.210 C 
ATOM     13  C   LIG    1        0.067   0.006   0.065  0.00  0.00    +0.300 C 
ATOM     14  H   LIG    1       -0.618   1.772   0.821  0.00  0.00    +0.420 HD
ENDROOT
BRANCH  10  15
ATOM     15  C   LIG    1        0.247  -4.193   0.451  0.00  0.00    -0.070 A 
ATOM     16  C   LIG    1       -0.196  -4.951   1.539  0.00  0.00    +0.010 A 
ATOM     17  C   LIG    1       -0.030  -6.322   1.514  0.00  0.00    +0.300 A 
ATOM     18  N   LIG    1        0.546  -6.915   0.487  0.00  0.00    -0.450 NA
ATOM     19  C   LIG    1        0.982  -6.240  -0.557  0.00  0.00    +0.320 A 
ATOM     20  C   LIG    1        0.852  -4.865  -0.618  0.00  0.00    -0.110 A 
ATOM     21 BR   LIG    1        1.481  -3.906  -2.121  0.00  0.00    -0.010 Br
ENDBRANCH  10  15
TORSDOF 1
