REMARK  Name = ZINCvU0000000E87.0
REMARK                            x       y       z     vdW  Elec       q    Type
REMARK                         _______ _______ _______ _____ _____    ______ ____
ROOT
ATOM      1  C   LIG    1       -6.130   3.223   0.289  0.00  0.00    +0.060 C 
ATOM      2  C   LIG    1       -7.261   4.254   0.281  0.00  0.00    +0.050 C 
ATOM      3  C   LIG    1       -8.558   3.549   0.696  0.00  0.00    +0.250 C 
ATOM      4  O   LIG    1       -8.418   3.107   2.047  0.00  0.00    -0.300 OA
ATOM      5  C   LIG    1       -7.292   2.422   2.378  0.00  0.00    +0.130 A 
ATOM      6  C   LIG    1       -7.287   1.683   3.562  0.00  0.00    +0.120 A 
ATOM      7  C   LIG    1       -6.157   0.976   3.935  0.00  0.00    -0.020 A 
ATOM      8  C   LIG    1       -5.030   1.002   3.132  0.00  0.00    -0.020 A 
ATOM      9  C   LIG    1       -5.036   1.733   1.958  0.00  0.00    +0.030 A 
ATOM     10 CL   LIG    1       -3.611   0.118   3.598  0.00  0.00    -0.050 Cl
ATOM     11  C   LIG    1       -6.164   2.442   1.579  0.00  0.00    -0.120 A 
ENDROOT
BRANCH   1  13
ATOM     12  O   LIG    1       -4.731   5.121   0.385  0.00  0.00    -0.500 OA
ATOM     13  C   LIG    1       -4.805   3.930   0.168  0.00  0.00    +0.530 C 
ATOM     14  N   LIG    1       -3.702   3.240  -0.184  0.00  0.00    -0.660 N 
ATOM     15  H   LIG    1       -3.770   2.300  -0.411  0.00  0.00    +0.410 HD
BRANCH  14  16
ATOM     16  C   LIG    1       -2.460   3.879  -0.220  0.00  0.00    +0.100 A 
ATOM     17  C   LIG    1       -2.252   5.057   0.465  0.00  0.00    +0.240 A 
ATOM     18  N   LIG    1       -1.081   5.677   0.441  0.00  0.00    -0.460 NA
ATOM     19  C   LIG    1       -0.048   5.222  -0.227  0.00  0.00    +0.290 A 
ATOM     20  C   LIG    1       -0.151   4.029  -0.961  0.00  0.00    -0.090 A 
ATOM     21  C   LIG    1        0.930   3.508  -1.689  0.00  0.00    +0.060 A 
ATOM     22  C   LIG    1        0.774   2.346  -2.383  0.00  0.00    +0.010 A 
ATOM     23  C   LIG    1       -0.442   1.665  -2.382  0.00  0.00    +0.040 A 
ATOM     24  C   LIG    1       -1.514   2.145  -1.690  0.00  0.00    +0.000 A 
ATOM     25  C   LIG    1       -1.388   3.334  -0.961  0.00  0.00    -0.040 A 
ENDBRANCH  14  16
ENDBRANCH   1  13
BRANCH   6  26
ATOM     26  O   LIG    1       -8.394   1.657   4.351  0.00  0.00    -0.290 OA
BRANCH  26  27
ATOM     27  C   LIG    1       -8.320   0.881   5.548  0.00  0.00    +0.210 C 
BRANCH  27  28
ATOM     28  C   LIG    1       -9.650   0.973   6.299  0.00  0.00    +0.080 C 
BRANCH  28  29
ATOM     29  C   LIG    1       -9.571   0.142   7.581  0.00  0.00    +0.460 C 
ATOM     30  F   LIG    1       -9.311  -1.194   7.255  0.00  0.00    -0.180 F 
ATOM     31  F   LIG    1      -10.787   0.226   8.267  0.00  0.00    -0.180 F 
ATOM     32  F   LIG    1       -8.542   0.632   8.392  0.00  0.00    -0.180 F 
ENDBRANCH  28  29
ENDBRANCH  27  28
ENDBRANCH  26  27
ENDBRANCH   6  26
TORSDOF 6
