REMARK  Name = ZINCrD000000BRyb.0
REMARK                            x       y       z     vdW  Elec       q    Type
REMARK                         _______ _______ _______ _____ _____    ______ ____
ROOT
ATOM      1  O   LIG    1        0.303   5.171   2.903  0.00  0.00    -0.520 OA
ATOM      2  C   LIG    1       -0.700   4.607   3.295  0.00  0.00    +0.560 C 
ATOM      3  N   LIG    1       -1.187   3.550   2.614  0.00  0.00    -0.720 N 
ATOM      4  H   LIG    1       -1.987   3.100   2.927  0.00  0.00    +0.400 HD
ENDROOT
BRANCH   3   5
ATOM      5  C   LIG    1       -0.509   3.083   1.403  0.00  0.00    +0.290 C 
ATOM      6  C   LIG    1       -0.752   1.591   1.255  0.00  0.00    +0.050 C 
ATOM      7  C   LIG    1       -0.013   1.086   0.008  0.00  0.00    +0.120 C 
ATOM      8  S   LIG    1       -0.915   1.699  -1.444  0.00  0.00    -0.120 S 
ATOM      9  C   LIG    1       -1.188   3.395  -1.040  0.00  0.00    -0.070 A 
ATOM     10  C   LIG    1       -1.611   4.247  -2.062  0.00  0.00    +0.030 A 
ATOM     11  C   LIG    1       -1.852   5.580  -1.811  0.00  0.00    +0.030 A 
ATOM     12  C   LIG    1       -1.673   6.075  -0.532  0.00  0.00    +0.000 A 
ATOM     13  C   LIG    1       -1.252   5.238   0.479  0.00  0.00    +0.040 A 
ATOM     14  C   LIG    1       -0.998   3.890   0.237  0.00  0.00    -0.100 A 
ENDBRANCH   3   5
BRANCH   2  15
ATOM     15  C   LIG    1       -1.384   5.079   4.517  0.00  0.00    -0.130 A 
ATOM     16  C   LIG    1       -2.539   4.436   4.966  0.00  0.00    +0.040 A 
ATOM     17  C   LIG    1       -3.170   4.878   6.111  0.00  0.00    +0.040 A 
ATOM     18  C   LIG    1       -2.666   5.963   6.807  0.00  0.00    -0.090 A 
ATOM     19  C   LIG    1       -1.525   6.608   6.364  0.00  0.00    +0.040 A 
ATOM     20  C   LIG    1       -0.881   6.172   5.224  0.00  0.00    +0.080 A 
BRANCH  18  21
ATOM     21  C   LIG    1       -3.364   6.444   8.053  0.00  0.00    +0.360 C 
BRANCH  21  22
ATOM     22  N   LIG    1       -4.366   7.450   7.694  0.00  0.00    -0.570 N 
ATOM     23  C   LIG    1       -4.092   8.759   7.641  0.00  0.00    +0.530 C 
ATOM     24  C   LIG    1       -5.340   9.514   7.238  0.00  0.00    +0.080 C 
ATOM     25  C   LIG    1       -6.397   8.402   7.076  0.00  0.00    +0.080 C 
ATOM     26  O   LIG    1       -3.014   9.261   7.876  0.00  0.00    -0.480 OA
ATOM     27  C   LIG    1       -5.634   7.136   7.398  0.00  0.00    +0.530 C 
ATOM     28  O   LIG    1       -6.096   6.016   7.390  0.00  0.00    -0.480 OA
ENDBRANCH  21  22
ENDBRANCH  18  21
ENDBRANCH   2  15
TORSDOF 4
