REMARK  Name = ZINCpk00000kZog4.0
REMARK                            x       y       z     vdW  Elec       q    Type
REMARK                         _______ _______ _______ _____ _____    ______ ____
ROOT
ATOM      1  C   LIG    1       -0.753   1.593  -1.232  0.00  0.00    +0.280 C 
ENDROOT
BRANCH   1   2
ATOM      2  N   LIG    1       -0.065   1.119  -2.440  0.00  0.00    -0.380 N 
ATOM      3  C   LIG    1        1.272   1.721  -2.508  0.00  0.00    +0.240 C 
ATOM      4  C   LIG    1        1.153   3.245  -2.480  0.00  0.00    +0.040 C 
ATOM      5  C   LIG    1        0.323   3.708  -3.681  0.00  0.00    +0.050 C 
ATOM      6  C   LIG    1       -1.044   3.018  -3.641  0.00  0.00    -0.010 C 
ATOM      7  C   LIG    1       -0.843   1.501  -3.625  0.00  0.00    +0.260 C 
ATOM      8  H   LIG    1        0.021   0.114  -2.405  0.00  0.00    +0.420 HD
BRANCH   6   9
ATOM      9  C   LIG    1       -1.852   3.413  -4.878  0.00  0.00    +0.170 C 
BRANCH   9  10
ATOM     10  C   LIG    1       -2.155   4.889  -4.830  0.00  0.00    +0.040 A 
ATOM     11  N   LIG    1       -3.219   5.460  -4.285  0.00  0.00    -0.380 NA
ATOM     12  N   LIG    1       -3.104   6.734  -4.449  0.00  0.00    -0.190 NA
ATOM     13  N   LIG    1       -2.012   6.978  -5.084  0.00  0.00    -0.190 NA
ATOM     14  N   LIG    1       -1.410   5.865  -5.330  0.00  0.00    -0.380 NA
ENDBRANCH   9  10
ENDBRANCH   6   9
ENDBRANCH   1   2
BRANCH   1  15
ATOM     15  C   LIG    1       -0.013   1.086   0.008  0.00  0.00    +0.070 C 
BRANCH  15  17
ATOM     16  O   LIG    1       -1.715   2.256   1.150  0.00  0.00    -0.500 OA
ATOM     17  C   LIG    1       -0.718   1.572   1.248  0.00  0.00    +0.530 C 
ATOM     18  N   LIG    1       -0.242   1.246   2.466  0.00  0.00    -0.550 N 
ATOM     19  C   LIG    1       -0.839   1.658   3.739  0.00  0.00    +0.290 C 
ATOM     20  C   LIG    1        0.060   1.041   4.824  0.00  0.00    +0.110 C 
ATOM     21  C   LIG    1        1.132   0.302   4.055  0.00  0.00    -0.120 A 
ATOM     22  C   LIG    1        2.212  -0.440   4.493  0.00  0.00    +0.060 A 
ATOM     23  C   LIG    1        3.066  -1.030   3.579  0.00  0.00    +0.000 A 
ATOM     24  C   LIG    1        2.837  -0.874   2.224  0.00  0.00    +0.040 A 
ATOM     25  C   LIG    1        1.761  -0.133   1.783  0.00  0.00    -0.040 A 
ATOM     26  C   LIG    1        0.891   0.461   2.699  0.00  0.00    +0.130 A 
ENDBRANCH  15  17
ENDBRANCH   1  15
TORSDOF 5
