REMARK  Name = ZINCpk00000kZog4.1
REMARK                            x       y       z     vdW  Elec       q    Type
REMARK                         _______ _______ _______ _____ _____    ______ ____
ROOT
ATOM      1  C   LIG    1        5.685   2.305  -0.040  0.00  0.00    +0.290 C 
ENDROOT
BRANCH   1   2
ATOM      2  N   LIG    1        6.283   3.647  -0.038  0.00  0.00    -0.380 N 
ATOM      3  C   LIG    1        5.957   4.325   1.222  0.00  0.00    +0.240 C 
ATOM      4  C   LIG    1        6.507   5.753   1.194  0.00  0.00    +0.050 C 
ATOM      5  C   LIG    1        8.028   5.703   1.021  0.00  0.00    +0.050 C 
ATOM      6  C   LIG    1        8.361   4.928  -0.258  0.00  0.00    -0.010 C 
ATOM      7  C   LIG    1        7.740   3.532  -0.177  0.00  0.00    +0.260 C 
ATOM      8  H   LIG    1        5.914   4.180  -0.812  0.00  0.00    +0.420 HD
BRANCH   6   9
ATOM      9  C   LIG    1        9.879   4.805  -0.400  0.00  0.00    +0.170 C 
BRANCH   9  10
ATOM     10  C   LIG    1       10.477   6.173  -0.602  0.00  0.00    +0.040 A 
ATOM     11  N   LIG    1       10.688   6.776  -1.758  0.00  0.00    -0.390 NA
ATOM     12  N   LIG    1       11.210   7.929  -1.509  0.00  0.00    -0.190 NA
ATOM     13  N   LIG    1       11.339   8.060  -0.234  0.00  0.00    -0.190 NA
ATOM     14  N   LIG    1       10.896   6.996   0.343  0.00  0.00    -0.380 NA
ENDBRANCH   9  10
ENDBRANCH   6   9
ENDBRANCH   1   2
BRANCH   1  15
ATOM     15  C   LIG    1        4.160   2.427  -0.025  0.00  0.00    +0.060 C 
BRANCH  15  17
ATOM     16  O   LIG    1        4.258   0.069  -0.038  0.00  0.00    -0.510 OA
ATOM     17  C   LIG    1        3.546   1.051  -0.026  0.00  0.00    +0.530 C 
ATOM     18  N   LIG    1        2.206   0.911  -0.014  0.00  0.00    -0.540 N 
ATOM     19  C   LIG    1        1.495  -0.371  -0.014  0.00  0.00    +0.290 C 
ATOM     20  C   LIG    1        0.002  -0.004   0.002  0.00  0.00    +0.110 C 
ATOM     21  C   LIG    1       -0.018   1.508   0.010  0.00  0.00    -0.120 A 
ATOM     22  C   LIG    1       -1.073   2.399   0.030  0.00  0.00    +0.060 A 
ATOM     23  C   LIG    1       -0.832   3.761   0.030  0.00  0.00    +0.000 A 
ATOM     24  C   LIG    1        0.469   4.229   0.020  0.00  0.00    +0.040 A 
ATOM     25  C   LIG    1        1.525   3.343   0.005  0.00  0.00    -0.030 A 
ATOM     26  C   LIG    1        1.289   1.967   0.000  0.00  0.00    +0.130 A 
ENDBRANCH  15  17
ENDBRANCH   1  15
TORSDOF 5
