REMARK  Name = ZINCpk000000o5XG.0
REMARK                            x       y       z     vdW  Elec       q    Type
REMARK                         _______ _______ _______ _____ _____    ______ ____
ROOT
ATOM      1  C   LIG    1        1.262  -2.326   0.714  0.00  0.00    +0.150 A 
ATOM      2  N   LIG    1        0.171  -2.931   0.308  0.00  0.00    -0.290 NA
ATOM      3  N   LIG    1        0.295  -4.202   0.455  0.00  0.00    -0.270 NA
ATOM      4  C   LIG    1        1.460  -4.481   0.967  0.00  0.00    +0.190 A 
ATOM      5  N   LIG    1        2.119  -3.296   1.150  0.00  0.00    -0.460 N 
ATOM      6  C   LIG    1        3.463  -3.107   1.701  0.00  0.00    +0.350 C 
ENDROOT
BRANCH   4   7
ATOM      7  C   LIG    1        1.986  -5.855   1.296  0.00  0.00    +0.110 C 
ATOM      8  C   LIG    1        1.987  -6.734   0.033  0.00  0.00    +0.090 C 
ATOM      9  C   LIG    1        2.195  -8.203   0.455  0.00  0.00    -0.300 C 
ATOM     10  S   LIG    1        1.513  -8.315   2.148  0.00  0.00    +2.390 S 
ATOM     11  O   LIG    1        0.336  -9.110   2.133  0.00  0.00    -0.930 OA
ATOM     12  O   LIG    1        2.561  -8.618   3.059  0.00  0.00    -0.930 OA
ATOM     13  C   LIG    1        1.052  -6.549   2.320  0.00  0.00    -0.300 C 
ENDBRANCH   4   7
BRANCH   1  14
ATOM     14  S   LIG    1        1.563  -0.590   0.705  0.00  0.00    +0.070 S 
BRANCH  14  15
ATOM     15  C   LIG    1        0.002  -0.004   0.002  0.00  0.00    +0.020 C 
ATOM     16  C   LIG    1       -0.130  -0.508  -1.437  0.00  0.00    +0.080 C 
BRANCH  15  23
ATOM     17  C   LIG    1       -4.355   3.922   2.259  0.00  0.00    +0.020 C 
ATOM     18  C   LIG    1       -3.475   3.433   1.107  0.00  0.00    -0.020 C 
ATOM     19  C   LIG    1       -2.098   4.095   1.202  0.00  0.00    +0.020 C 
ATOM     20  C   LIG    1       -1.231   3.630   0.028  0.00  0.00    +0.280 C 
ATOM     21  N   LIG    1       -1.195   2.161   0.019  0.00  0.00    -0.600 N 
ATOM     22  C   LIG    1       -2.465   1.423   0.015  0.00  0.00    +0.270 C 
ATOM     23  C   LIG    1       -0.018   1.503   0.010  0.00  0.00    +0.540 C 
ATOM     24  O   LIG    1        1.024   2.123   0.004  0.00  0.00    -0.520 OA
ATOM     25  C   LIG    1       -3.319   1.913   1.195  0.00  0.00    +0.020 C 
ENDBRANCH  15  23
ENDBRANCH  14  15
ENDBRANCH   1  14
TORSDOF 4
