REMARK  Name = ZINCrH000004vDrZ.0
REMARK                            x       y       z     vdW  Elec       q    Type
REMARK                         _______ _______ _______ _____ _____    ______ ____
ROOT
ATOM      1  O   LIG    1        7.130   5.366   1.487  0.00  0.00    -0.520 OA
ATOM      2  C   LIG    1        5.917   5.297   1.552  0.00  0.00    +0.610 C 
ATOM      3  N   LIG    1        5.301   4.106   1.408  0.00  0.00    -0.610 N 
ATOM      4  C   LIG    1        6.085   2.866   1.316  0.00  0.00    +0.290 C 
ATOM      5  C   LIG    1        5.692   2.133   0.027  0.00  0.00    +0.290 C 
ATOM      6  N   LIG    1        4.226   2.052  -0.040  0.00  0.00    -0.610 N 
ATOM      7  C   LIG    1        3.444   3.293   0.047  0.00  0.00    +0.290 C 
ATOM      8  C   LIG    1        3.611   0.861  -0.183  0.00  0.00    +0.610 C 
ATOM      9  O   LIG    1        2.405   0.814  -0.336  0.00  0.00    -0.510 OA
ATOM     10  C   LIG    1        3.836   4.025   1.341  0.00  0.00    +0.290 C 
ENDROOT
BRANCH   8  11
ATOM     11  C   LIG    1        4.395  -0.376  -0.155  0.00  0.00    -0.080 A 
ATOM     12  C   LIG    1        3.886  -1.656  -0.148  0.00  0.00    +0.060 A 
ATOM     13  C   LIG    1        4.980  -2.526  -0.119  0.00  0.00    -0.030 A 
ATOM     14  C   LIG    1        6.106  -1.754  -0.110  0.00  0.00    +0.050 A 
ATOM     15  O   LIG    1        5.742  -0.461  -0.132  0.00  0.00    -0.140 OA
BRANCH  14  16
ATOM     16  C   LIG    1        7.495  -2.256  -0.075  0.00  0.00    -0.020 A 
ATOM     17  C   LIG    1        7.873  -3.206   0.876  0.00  0.00    +0.060 A 
ATOM     18  C   LIG    1        9.170  -3.675   0.898  0.00  0.00    +0.030 A 
ATOM     19  C   LIG    1       10.098  -3.200  -0.011  0.00  0.00    +0.050 A 
ATOM     20  C   LIG    1        9.733  -2.255  -0.953  0.00  0.00    +0.030 A 
ATOM     21  C   LIG    1        8.437  -1.780  -0.991  0.00  0.00    -0.020 A 
ATOM     22 CL   LIG    1        7.979  -0.594  -2.174  0.00  0.00    -0.050 Cl
ENDBRANCH  14  16
ENDBRANCH   8  11
BRANCH   2  23
ATOM     23  C   LIG    1        5.124   6.508   1.786  0.00  0.00    -0.090 A 
ATOM     24  C   LIG    1        5.620   7.761   2.009  0.00  0.00    +0.050 A 
ATOM     25  C   LIG    1        4.513   8.608   2.179  0.00  0.00    -0.060 A 
ATOM     26  C   LIG    1        3.405   7.844   2.060  0.00  0.00    +0.200 A 
ATOM     27  O   LIG    1        3.777   6.579   1.824  0.00  0.00    -0.160 OA
ENDBRANCH   2  23
TORSDOF 3
