REMARK  Name = ZINCrH00000tj1k5.0
REMARK                            x       y       z     vdW  Elec       q    Type
REMARK                         _______ _______ _______ _____ _____    ______ ____
ROOT
ATOM      1  O   LIG    1       -0.553   0.288  -0.025  0.00  0.00    -0.430 OA
ATOM      2  C   LIG    1       -0.387   1.488  -0.077  0.00  0.00    +0.580 C 
ATOM      3  C   LIG    1        0.866   2.209   0.019  0.00  0.00    +0.120 C 
ATOM      4  O   LIG    1        2.157   2.054   0.443  0.00  0.00    -0.170 OA
ATOM      5  N   LIG    1        2.748   3.403   0.291  0.00  0.00    -0.260 N 
ATOM      6  C   LIG    1        1.625   4.387   0.376  0.00  0.00    +0.270 C 
ATOM      7  C   LIG    1        0.419   3.526   0.766  0.00  0.00    -0.040 C 
ATOM      8  C   LIG    1       -0.878   3.710   0.020  0.00  0.00    +0.550 C 
ATOM      9  O   LIG    1       -1.400   4.760  -0.287  0.00  0.00    -0.430 OA
ATOM     10  N   LIG    1       -1.343   2.454  -0.244  0.00  0.00    -0.530 N 
ENDROOT
BRANCH   5  11
ATOM     11  C   LIG    1        3.703   3.647   1.281  0.00  0.00    +0.040 A 
ATOM     12  C   LIG    1        4.963   4.117   0.932  0.00  0.00    +0.060 A 
ATOM     13  C   LIG    1        5.903   4.361   1.913  0.00  0.00    +0.010 A 
ATOM     14  C   LIG    1        5.595   4.130   3.241  0.00  0.00    +0.030 A 
ATOM     15  C   LIG    1        4.343   3.658   3.592  0.00  0.00    +0.020 A 
ATOM     16  C   LIG    1        3.396   3.416   2.616  0.00  0.00    +0.020 A 
ENDBRANCH   5  11
BRANCH  10  17
ATOM     17  C   LIG    1       -2.660   2.182  -0.641  0.00  0.00    +0.120 A 
ATOM     18  C   LIG    1       -3.572   3.219  -0.784  0.00  0.00    +0.010 A 
ATOM     19  C   LIG    1       -4.867   2.948  -1.181  0.00  0.00    +0.030 A 
ATOM     20  C   LIG    1       -5.258   1.645  -1.425  0.00  0.00    +0.010 A 
ATOM     21  C   LIG    1       -4.354   0.609  -1.279  0.00  0.00    +0.030 A 
ATOM     22  C   LIG    1       -3.056   0.874  -0.888  0.00  0.00    +0.010 A 
ENDBRANCH  10  17
BRANCH   6  23
ATOM     23  C   LIG    1        1.904   5.420   1.437  0.00  0.00    -0.210 A 
ATOM     24  C   LIG    1        2.851   6.357   1.367  0.00  0.00    +0.050 A 
ATOM     25  C   LIG    1        2.919   7.200   2.463  0.00  0.00    +0.010 A 
ATOM     26  C   LIG    1        2.034   6.942   3.427  0.00  0.00    -0.020 A 
ATOM     27  S   LIG    1        1.036   5.571   2.959  0.00  0.00    +0.110 S 
ENDBRANCH   6  23
TORSDOF 3
