REMARK  Name = ZINCrH000004qCn1.1
REMARK                            x       y       z     vdW  Elec       q    Type
REMARK                         _______ _______ _______ _____ _____    ______ ____
ROOT
ATOM      1  C   LIG    1       -0.013   1.084   0.018  0.00  0.00    +0.080 C 
ATOM      2  C   LIG    1       -0.724   1.562   1.258  0.00  0.00    -0.110 A 
ATOM      3  C   LIG    1       -0.012   1.788   2.419  0.00  0.00    +0.030 A 
ATOM      4  C   LIG    1       -0.663   2.228   3.557  0.00  0.00    -0.090 A 
ATOM      5  C   LIG    1       -2.029   2.443   3.536  0.00  0.00    +0.050 A 
ATOM      6  C   LIG    1       -2.747   2.219   2.378  0.00  0.00    +0.020 A 
ATOM      7  C   LIG    1       -2.095   1.782   1.232  0.00  0.00    +0.150 A 
ENDROOT
BRANCH   7   8
ATOM      8  N   LIG    1       -2.818   1.560   0.056  0.00  0.00    -0.650 N 
ATOM      9  H   LIG    1       -2.482   0.942  -0.611  0.00  0.00    +0.420 HD
ATOM     10  C   LIG    1       -3.983   2.206  -0.151  0.00  0.00    +0.580 C 
ATOM     11  O   LIG    1       -4.355   3.055   0.635  0.00  0.00    -0.500 OA
BRANCH  10  12
ATOM     12  C   LIG    1       -4.809   1.881  -1.337  0.00  0.00    +0.050 A 
ATOM     13  N   LIG    1       -4.400   0.957  -2.189  0.00  0.00    -0.390 NA
ATOM     14  C   LIG    1       -5.145   0.666  -3.256  0.00  0.00    +0.080 A 
ATOM     15  C   LIG    1       -4.736  -0.313  -4.181  0.00  0.00    +0.060 A 
ATOM     16  C   LIG    1       -5.517  -0.589  -5.260  0.00  0.00    +0.040 A 
ATOM     17  C   LIG    1       -6.720   0.084  -5.466  0.00  0.00    +0.060 A 
ATOM     18  C   LIG    1       -7.149   1.037  -4.594  0.00  0.00    +0.060 A 
ATOM     19  C   LIG    1       -6.371   1.351  -3.467  0.00  0.00    +0.100 A 
ATOM     20  N   LIG    1       -6.768   2.284  -2.594  0.00  0.00    -0.420 NA
ATOM     21  C   LIG    1       -6.026   2.554  -1.545  0.00  0.00    +0.320 A 
ENDBRANCH  10  12
ENDBRANCH   7   8
BRANCH   4  22
ATOM     22  C   LIG    1        0.117   2.474   4.823  0.00  0.00    +0.240 C 
BRANCH  22  23
ATOM     23  N   LIG    1        0.583   3.867   4.848  0.00  0.00    -0.550 NA
ATOM     24  C   LIG    1        1.522   4.126   3.754  0.00  0.00    +0.190 C 
ATOM     25  C   LIG    1        1.649   5.636   3.524  0.00  0.00    +0.130 C 
ATOM     26  S   LIG    1        2.317   6.396   5.035  0.00  0.00    -0.270 S 
ATOM     27  C   LIG    1        1.204   5.735   6.312  0.00  0.00    +0.120 C 
ATOM     28  C   LIG    1        1.138   4.212   6.159  0.00  0.00    +0.200 C 
ENDBRANCH  22  23
ENDBRANCH   4  22
TORSDOF 4
