REMARK  Name = ZINCvU00000005rl.0
REMARK                            x       y       z     vdW  Elec       q    Type
REMARK                         _______ _______ _______ _____ _____    ______ ____
ROOT
ATOM      1  C   LIG    1        0.746   7.278   0.034  0.00  0.00    +0.010 C 
ATOM      2  N   LIG    1        0.973   5.961   0.029  0.00  0.00    -0.190 NA
ATOM      3  N   LIG    1       -0.069   5.223   0.030  0.00  0.00    -0.370 N 
ATOM      4  C   LIG    1       -1.291   6.040   0.046  0.00  0.00    +0.240 C 
ATOM      5  C   LIG    1       -0.756   7.488   0.049  0.00  0.00    +0.100 C 
ENDROOT
BRANCH   4   6
ATOM      6  C   LIG    1       -2.094   5.768   1.292  0.00  0.00    -0.050 A 
ATOM      7  C   LIG    1       -1.451   5.562   2.498  0.00  0.00    +0.040 A 
ATOM      8  C   LIG    1       -2.189   5.317   3.641  0.00  0.00    +0.110 A 
ATOM      9  C   LIG    1       -3.569   5.270   3.577  0.00  0.00    -0.040 A 
ATOM     10  C   LIG    1       -4.212   5.471   2.370  0.00  0.00    +0.110 A 
ATOM     11  C   LIG    1       -3.474   5.720   1.227  0.00  0.00    +0.050 A 
BRANCH   9  12
ATOM     12  N   LIG    1       -4.358   5.004   4.801  0.00  0.00    +0.020 N 
ATOM     13  O   LIG    1       -3.791   4.827   5.864  0.00  0.00    -0.150 OA
ATOM     14  O   LIG    1       -5.574   4.962   4.744  0.00  0.00    -0.150 OA
ENDBRANCH   9  12
ENDBRANCH   4   6
BRANCH   3  15
ATOM     15  C   LIG    1       -0.050   3.845   0.023  0.00  0.00    +0.180 A 
ATOM     16  C   LIG    1        1.168   3.160   0.008  0.00  0.00    +0.000 A 
ATOM     17  C   LIG    1        1.179   1.782   0.000  0.00  0.00    +0.040 A 
ATOM     18  C   LIG    1       -0.013   1.076   0.008  0.00  0.00    -0.010 A 
ATOM     19  C   LIG    1       -1.223   1.749   0.017  0.00  0.00    +0.050 A 
ATOM     20  C   LIG    1       -1.249   3.127   0.031  0.00  0.00    -0.040 A 
ENDBRANCH   3  15
BRANCH   1  22
ATOM     21  C   LIG    1        3.070   7.924   0.016  0.00  0.00    +0.010 C 
ATOM     22  C   LIG    1        1.704   8.267   0.031  0.00  0.00    +0.110 C 
BRANCH  21  26
ATOM     23  C   LIG    1        5.973  10.921   0.004  0.00  0.00    -0.020 A 
ATOM     24  C   LIG    1        6.361   9.587  -0.006  0.00  0.00    +0.120 A 
ATOM     25  C   LIG    1        5.421   8.598  -0.002  0.00  0.00    +0.030 A 
ATOM     26  C   LIG    1        4.050   8.934   0.012  0.00  0.00    +0.020 A 
ATOM     27  C   LIG    1        3.669  10.294   0.018  0.00  0.00    +0.020 A 
ATOM     28  C   LIG    1        4.629  11.265   0.019  0.00  0.00    +0.120 A 
BRANCH  23  30
ATOM     29  O   LIG    1        8.281  11.663  -0.013  0.00  0.00    -0.180 OA
ATOM     30  N   LIG    1        7.003  11.984   0.001  0.00  0.00    -0.020 N 
ATOM     31  O   LIG    1        6.643  13.250   0.011  0.00  0.00    -0.180 OA
ENDBRANCH  23  30
ENDBRANCH  21  26
ENDBRANCH   1  22
TORSDOF 6
