REMARK  Name = ZINCpk000000ntpr.0
REMARK                            x       y       z     vdW  Elec       q    Type
REMARK                         _______ _______ _______ _____ _____    ______ ____
ROOT
ATOM      1  N   LIG    1        0.002  -0.004   0.002  0.00  0.00    -0.600 N 
ATOM      2  C   LIG    1        0.024  -0.688   1.288  0.00  0.00    +0.260 C 
ATOM      3  C   LIG    1       -0.492  -2.122   1.148  0.00  0.00    +0.300 C 
ATOM      4  N   LIG    1        0.164  -2.734  -0.020  0.00  0.00    -0.620 N 
ATOM      5  C   LIG    1       -0.077  -2.113  -1.331  0.00  0.00    +0.320 C 
ATOM      6  C   LIG    1        0.951  -3.821   0.108  0.00  0.00    +0.530 C 
ATOM      7  O   LIG    1        1.132  -4.313   1.201  0.00  0.00    -0.520 OA
ATOM      8  C   LIG    1       -0.006  -0.618  -1.182  0.00  0.00    +0.510 C 
ATOM      9  O   LIG    1        0.050   0.061  -2.186  0.00  0.00    -0.530 OA
ENDROOT
BRANCH   6  10
ATOM     10  C   LIG    1        1.607  -4.423  -1.108  0.00  0.00    +0.000 C 
ATOM     11  C   LIG    1        0.549  -4.980  -2.089  0.00  0.00    +0.080 C 
ATOM     12  C   LIG    1        0.416  -6.436  -1.702  0.00  0.00    +0.520 C 
ATOM     13  N   LIG    1        1.459  -6.810  -0.942  0.00  0.00    -0.610 N 
ATOM     14  O   LIG    1       -0.500  -7.161  -2.030  0.00  0.00    -0.520 OA
ATOM     15  C   LIG    1        2.396  -5.698  -0.737  0.00  0.00    +0.300 C 
BRANCH  13  16
ATOM     16  C   LIG    1        1.639  -8.155  -0.389  0.00  0.00    +0.250 C 
ATOM     17  C   LIG    1        1.710  -9.171  -1.530  0.00  0.00    +0.010 C 
ATOM     18  C   LIG    1        1.898 -10.575  -0.953  0.00  0.00    +0.020 C 
ATOM     19  C   LIG    1        0.717 -10.914  -0.041  0.00  0.00    +0.000 C 
ATOM     20  C   LIG    1        0.646  -9.898   1.101  0.00  0.00    +0.020 C 
ATOM     21  C   LIG    1        0.458  -8.493   0.523  0.00  0.00    +0.010 C 
ENDBRANCH  13  16
ENDBRANCH   6  10
BRANCH   1  22
ATOM     22  C   LIG    1       -0.018   1.461   0.010  0.00  0.00    +0.280 C 
BRANCH  22  24
ATOM     23  C   LIG    1        2.095   1.602  -1.317  0.00  0.00    +0.020 C 
ATOM     24  C   LIG    1        1.418   1.990  -0.001  0.00  0.00    -0.040 C 
ATOM     25  C   LIG    1        1.400   3.514   0.133  0.00  0.00    +0.030 C 
ENDBRANCH  22  24
ENDBRANCH   1  22
TORSDOF 4
