REMARK  Name = ZINCrg000000oViD.0
REMARK                            x       y       z     vdW  Elec       q    Type
REMARK                         _______ _______ _______ _____ _____    ______ ____
ROOT
ATOM      1  C   LIG    1        6.053   2.169   0.171  0.00  0.00    +0.220 C 
ENDROOT
BRANCH   1   2
ATOM      2  C   LIG    1        4.753   1.414   0.064  0.00  0.00    +0.510 C 
ATOM      3  N   LIG    1        3.588   2.085  -0.019  0.00  0.00    -0.660 N 
ATOM      4  H   LIG    1        3.590   3.054  -0.076  0.00  0.00    +0.420 HD
ATOM      5  O   LIG    1        4.756   0.201   0.053  0.00  0.00    -0.490 OA
BRANCH   3   6
ATOM      6  C   LIG    1        2.382   1.389  -0.024  0.00  0.00    +0.210 A 
ATOM      7  C   LIG    1        2.292   0.154  -0.651  0.00  0.00    +0.020 A 
ATOM      8  C   LIG    1        1.095  -0.534  -0.654  0.00  0.00    +0.060 A 
ATOM      9  C   LIG    1       -0.023  -0.001  -0.033  0.00  0.00    -0.010 A 
ATOM     10  C   LIG    1        0.048   1.225   0.594  0.00  0.00    +0.060 A 
ATOM     11  C   LIG    1        1.252   1.933   0.606  0.00  0.00    -0.180 A 
BRANCH  11  12
ATOM     12  C   LIG    1        1.334   3.245   1.275  0.00  0.00    +0.570 C 
ATOM     13  O   LIG    1        2.357   3.899   1.206  0.00  0.00    -0.550 OA
ATOM     14  N   LIG    1        0.276   3.718   1.963  0.00  0.00    -0.850 N 
ATOM     15  H   LIG    1        0.331   4.581   2.403  0.00  0.00    +0.410 HD
ATOM     16  H   LIG    1       -0.539   3.196   2.018  0.00  0.00    +0.400 HD
ENDBRANCH  11  12
ENDBRANCH   3   6
ENDBRANCH   1   2
BRANCH   1  18
ATOM     17  C   LIG    1        7.112   0.439   1.493  0.00  0.00    +0.220 C 
ATOM     18  N   LIG    1        7.168   1.217   0.248  0.00  0.00    -0.500 NA
BRANCH  18  19
ATOM     19  C   LIG    1        8.459   1.905   0.115  0.00  0.00    +0.290 C 
BRANCH  19  20
ATOM     20  C   LIG    1        9.558   0.887  -0.049  0.00  0.00    +0.440 A 
ATOM     21  N   LIG    1        9.235  -0.377  -0.044  0.00  0.00    -0.560 NA
ATOM     22  C   LIG    1       10.159  -1.345  -0.190  0.00  0.00    +0.530 A 
ATOM     23  C   LIG    1       11.568  -0.941  -0.346  0.00  0.00    -0.210 A 
ATOM     24  C   LIG    1       12.591  -1.873  -0.498  0.00  0.00    +0.110 A 
ATOM     25  C   LIG    1       13.891  -1.434  -0.641  0.00  0.00    -0.020 A 
ATOM     26  C   LIG    1       14.181  -0.077  -0.633  0.00  0.00    +0.080 A 
ATOM     27  C   LIG    1       13.176   0.856  -0.483  0.00  0.00    -0.020 A 
ATOM     28  C   LIG    1       11.862   0.435  -0.339  0.00  0.00    +0.180 A 
ATOM     29  O   LIG    1        9.840  -2.522  -0.189  0.00  0.00    -0.480 OA
ATOM     30  N   LIG    1       10.820   1.328  -0.186  0.00  0.00    -0.630 N 
ATOM     31  H   LIG    1       11.001   2.281  -0.178  0.00  0.00    +0.420 HD
ENDBRANCH  19  20
ENDBRANCH  18  19
ENDBRANCH   1  18
TORSDOF 6
