REMARK  Name = ZINCrg000000tqOU.0
REMARK                            x       y       z     vdW  Elec       q    Type
REMARK                         _______ _______ _______ _____ _____    ______ ____
ROOT
ATOM      1  O   LIG    1       -3.420  -1.339   1.251  0.00  0.00    -0.580 OA
ATOM      2  C   LIG    1       -4.208  -1.281   2.175  0.00  0.00    +0.710 C 
ATOM      3  N   LIG    1       -5.238  -2.148   2.238  0.00  0.00    -0.630 N 
ATOM      4  C   LIG    1       -5.361  -3.236   1.258  0.00  0.00    +0.300 C 
ATOM      5  C   LIG    1       -6.748  -3.176   0.619  0.00  0.00    +0.010 C 
ATOM      6  C   LIG    1       -7.814  -3.195   1.717  0.00  0.00    +0.020 C 
ATOM      7  C   LIG    1       -7.642  -1.970   2.618  0.00  0.00    +0.280 C 
ATOM      8  C   LIG    1       -6.263  -2.020   3.283  0.00  0.00    +0.260 C 
ATOM      9  N   LIG    1       -4.052  -0.350   3.137  0.00  0.00    -0.750 N 
ATOM     10  H   LIG    1       -4.720  -0.256   3.834  0.00  0.00    +0.400 HD
ENDROOT
BRANCH   7  11
ATOM     11  N   LIG    1       -8.682  -1.972   3.650  0.00  0.00    -0.980 NA
ATOM     12  C   LIG    1       -8.902  -3.019   4.651  0.00  0.00    +0.240 C 
ATOM     13  C   LIG    1      -10.047  -2.711   5.622  0.00  0.00    +0.090 C 
ATOM     14  C   LIG    1      -11.034  -1.787   4.853  0.00  0.00    -0.310 C 
ATOM     15  S   LIG    1       -9.825  -0.776   3.899  0.00  0.00    +2.560 S 
ATOM     16  O   LIG    1      -10.323  -0.455   2.607  0.00  0.00    -0.950 OA
ATOM     17  O   LIG    1       -9.188   0.190   4.723  0.00  0.00    -0.950 OA
ENDBRANCH   7  11
BRANCH   9  18
ATOM     18  C   LIG    1       -2.874   0.521   3.129  0.00  0.00    +0.300 C 
BRANCH  18  19
ATOM     19  C   LIG    1       -2.941   1.480   4.319  0.00  0.00    +0.130 C 
BRANCH  19  20
ATOM     20  C   LIG    1       -1.729   2.376   4.311  0.00  0.00    +0.060 A 
ATOM     21  C   LIG    1       -1.747   3.726   4.322  0.00  0.00    +0.090 A 
ATOM     22  N   LIG    1       -0.446   4.148   4.308  0.00  0.00    -0.360 N 
ATOM     23  C   LIG    1        0.123   5.389   4.311  0.00  0.00    +0.210 A 
ATOM     24  C   LIG    1        1.465   5.530   4.294  0.00  0.00    +0.010 A 
ATOM     25  C   LIG    1        2.296   4.398   4.274  0.00  0.00    +0.040 A 
ATOM     26  C   LIG    1        1.743   3.156   4.272  0.00  0.00    +0.070 A 
ATOM     27  C   LIG    1        0.340   3.025   4.289  0.00  0.00    +0.230 A 
ATOM     28  N   LIG    1       -0.458   1.966   4.292  0.00  0.00    -0.480 NA
ENDBRANCH  19  20
ENDBRANCH  18  19
ENDBRANCH   9  18
TORSDOF 4
