REMARK  Name = ZINCrD00000hQ4GP.0
REMARK                            x       y       z     vdW  Elec       q    Type
REMARK                         _______ _______ _______ _____ _____    ______ ____
ROOT
ATOM      1  C   LIG    1       -1.083  -1.158   1.405  0.00  0.00    +0.110 C 
ATOM      2  C   LIG    1       -2.196  -0.411   2.095  0.00  0.00    -0.100 A 
ATOM      3  C   LIG    1       -2.700  -0.865   3.303  0.00  0.00    +0.260 A 
ATOM      4  N   LIG    1       -3.670  -0.222   3.914  0.00  0.00    -0.460 NA
ATOM      5  C   LIG    1       -4.205   0.880   3.404  0.00  0.00    +0.070 A 
ATOM      6  C   LIG    1       -3.743   1.397   2.196  0.00  0.00    +0.050 A 
ATOM      7  C   LIG    1       -2.725   0.737   1.526  0.00  0.00    -0.040 A 
ENDROOT
BRANCH   5   8
ATOM      8  C   LIG    1       -5.297   1.571   4.129  0.00  0.00    +0.580 C 
ATOM      9  N   LIG    1       -5.744   1.079   5.302  0.00  0.00    -0.710 N 
ATOM     10  H   LIG    1       -5.350   0.273   5.671  0.00  0.00    +0.420 HD
ATOM     11  O   LIG    1       -5.790   2.581   3.667  0.00  0.00    -0.530 OA
BRANCH   9  12
ATOM     12  C   LIG    1       -6.824   1.761   6.019  0.00  0.00    +0.270 C 
BRANCH  12  13
ATOM     13  C   LIG    1       -7.138   1.003   7.310  0.00  0.00    +0.380 C 
ATOM     14  F   LIG    1       -5.996   0.962   8.116  0.00  0.00    -0.200 F 
ATOM     15  F   LIG    1       -7.537  -0.302   6.999  0.00  0.00    -0.200 F 
ENDBRANCH  12  13
ENDBRANCH   9  12
ENDBRANCH   5   8
BRANCH   7  16
ATOM     16  C   LIG    1       -2.201   1.259   0.213  0.00  0.00    +0.130 C 
BRANCH  16  17
ATOM     17  C   LIG    1       -0.981   2.108   0.461  0.00  0.00    -0.070 A 
ATOM     18  C   LIG    1        0.280   1.550   0.353  0.00  0.00    +0.010 A 
ATOM     19  C   LIG    1        1.402   2.324   0.573  0.00  0.00    +0.040 A 
ATOM     20  C   LIG    1        1.261   3.669   0.910  0.00  0.00    -0.010 A 
ATOM     21  C   LIG    1       -0.011   4.224   1.024  0.00  0.00    +0.040 A 
ATOM     22  C   LIG    1       -1.126   3.441   0.801  0.00  0.00    +0.020 A 
BRANCH  20  23
ATOM     23  C   LIG    1        2.463   4.506   1.149  0.00  0.00    +0.110 A 
ATOM     24  N   LIG    1        3.714   4.103   1.080  0.00  0.00    -0.290 NA
ATOM     25  N   LIG    1        4.541   5.196   1.370  0.00  0.00    -0.370 N 
ATOM     26  C   LIG    1        3.753   6.263   1.622  0.00  0.00    +0.240 A 
ATOM     27  C   LIG    1        6.006   5.182   1.399  0.00  0.00    +0.360 C 
ATOM     28  C   LIG    1        2.467   5.872   1.494  0.00  0.00    -0.110 A 
ENDBRANCH  20  23
ENDBRANCH  16  17
ENDBRANCH   7  16
TORSDOF 6
