REMARK  Name = ZINCrg00000AiIFq.2
REMARK                            x       y       z     vdW  Elec       q    Type
REMARK                         _______ _______ _______ _____ _____    ______ ____
ROOT
ATOM      1  C   LIG    1       -3.187   3.938   3.443  0.00  0.00    +0.630 C 
ATOM      2  N   LIG    1       -2.635   3.688   2.239  0.00  0.00    -0.630 N 
ATOM      3  C   LIG    1       -1.388   4.109   1.566  0.00  0.00    +0.290 C 
ATOM      4  C   LIG    1       -1.544   2.838   0.731  0.00  0.00    -0.090 C 
ATOM      5  C   LIG    1       -1.191   2.971  -0.756  0.00  0.00    +0.200 C 
ATOM      6  N   LIG    1       -0.776   1.600  -1.159  0.00  0.00    -0.510 NA
ATOM      7  C   LIG    1       -0.013   1.086   0.008  0.00  0.00    +0.180 C 
ATOM      8  C   LIG    1        0.065   1.638  -2.363  0.00  0.00    +0.180 C 
ATOM      9  C   LIG    1       -0.783   1.608   1.243  0.00  0.00    +0.090 C 
ATOM     10  C   LIG    1       -3.035   2.885   1.065  0.00  0.00    +0.320 C 
ATOM     11  O   LIG    1       -2.615   4.660   4.236  0.00  0.00    -0.530 OA
ENDROOT
BRANCH   1  15
ATOM     12  C   LIG    1       -7.406   2.611   5.919  0.00  0.00    +0.150 C 
ATOM     13  C   LIG    1       -6.317   2.765   4.888  0.00  0.00    +0.010 A 
ATOM     14  C   LIG    1       -5.188   3.500   5.017  0.00  0.00    -0.150 A 
ATOM     15  C   LIG    1       -4.487   3.333   3.799  0.00  0.00    -0.000 A 
ATOM     16  N   LIG    1       -5.218   2.541   3.040  0.00  0.00    -0.250 NA
ATOM     17  C   LIG    1       -4.766   4.322   6.207  0.00  0.00    +0.130 C 
ATOM     18  N   LIG    1       -6.287   2.196   3.664  0.00  0.00    -0.380 N 
ATOM     19  H   LIG    1       -6.974   1.613   3.305  0.00  0.00    +0.450 HD
ENDBRANCH   1  15
BRANCH   9  20
ATOM     20  C   LIG    1        0.178   1.999   2.336  0.00  0.00    +0.230 A 
ATOM     21  C   LIG    1        1.420   2.526   2.021  0.00  0.00    -0.160 A 
ATOM     22  C   LIG    1        2.273   2.878   3.056  0.00  0.00    +0.370 A 
ATOM     23  N   LIG    1        1.882   2.690   4.306  0.00  0.00    -0.570 NA
ATOM     24  C   LIG    1        0.689   2.178   4.573  0.00  0.00    +0.570 A 
ATOM     25  N   LIG    1       -0.151   1.837   3.607  0.00  0.00    -0.550 NA
BRANCH  24  26
ATOM     26  N   LIG    1        0.312   1.996   5.892  0.00  0.00    -0.590 N 
ATOM     27  C   LIG    1        1.227   2.367   6.973  0.00  0.00    +0.300 C 
ATOM     28  C   LIG    1       -1.003   1.431   6.206  0.00  0.00    +0.310 C 
ENDBRANCH  24  26
ENDBRANCH   9  20
TORSDOF 3
