REMARK  Name = ZINCpk00000ebL18.0
REMARK                            x       y       z     vdW  Elec       q    Type
REMARK                         _______ _______ _______ _____ _____    ______ ____
ROOT
ATOM      1  O   LIG    1       -2.227  -2.679   0.226  0.00  0.00    -0.510 OA
ATOM      2  C   LIG    1       -1.187  -2.055   0.274  0.00  0.00    +0.510 C 
ATOM      3  C   LIG    1        0.091  -2.767   0.636  0.00  0.00    +0.340 C 
ATOM      4  N   LIG    1        1.220  -2.082  -0.012  0.00  0.00    -0.560 N 
ATOM      5  C   LIG    1        1.225  -0.678  -0.012  0.00  0.00    +0.110 A 
ATOM      6  C   LIG    1        2.411   0.032  -0.022  0.00  0.00    +0.060 A 
ATOM      7  C   LIG    1        2.382   1.416  -0.015  0.00  0.00    +0.010 A 
ATOM      8  C   LIG    1        1.173   2.086   0.002  0.00  0.00    +0.030 A 
ATOM      9  C   LIG    1       -0.017   1.381   0.010  0.00  0.00    +0.000 A 
ATOM     10  C   LIG    1        0.002  -0.004   0.002  0.00  0.00    +0.130 A 
ATOM     11  C   LIG    1        2.219  -2.780  -0.588  0.00  0.00    +0.510 C 
ATOM     12  O   LIG    1        3.141  -2.196  -1.117  0.00  0.00    -0.460 OA
ATOM     13  N   LIG    1       -1.190  -0.736   0.004  0.00  0.00    -0.660 N 
ATOM     14  H   LIG    1       -2.028  -0.289  -0.192  0.00  0.00    +0.420 HD
ENDROOT
BRANCH  11  15
ATOM     15  C   LIG    1        2.191  -4.287  -0.574  0.00  0.00    +0.180 C 
BRANCH  15  16
ATOM     16  C   LIG    1        3.413  -4.819  -1.277  0.00  0.00    +0.120 A 
ATOM     17  N   LIG    1        4.285  -3.995  -1.777  0.00  0.00    -0.170 NA
ATOM     18  N   LIG    1        5.435  -4.426  -2.439  0.00  0.00    -0.540 N 
ATOM     19  H   LIG    1        6.052  -3.765  -2.792  0.00  0.00    +0.440 HD
ATOM     20  C   LIG    1        5.713  -5.736  -2.602  0.00  0.00    +0.530 A 
ATOM     21  C   LIG    1        4.774  -6.729  -2.064  0.00  0.00    -0.130 A 
ATOM     22  C   LIG    1        4.994  -8.099  -2.194  0.00  0.00    +0.090 A 
ATOM     23  C   LIG    1        4.080  -8.986  -1.670  0.00  0.00    +0.030 A 
ATOM     24  C   LIG    1        2.943  -8.530  -1.016  0.00  0.00    +0.050 A 
ATOM     25  C   LIG    1        2.704  -7.181  -0.876  0.00  0.00    +0.040 A 
ATOM     26  O   LIG    1        6.723  -6.089  -3.183  0.00  0.00    -0.520 OA
ATOM     27  C   LIG    1        3.620  -6.263  -1.392  0.00  0.00    -0.050 A 
ENDBRANCH  15  16
ENDBRANCH  11  15
TORSDOF 2
