REMARK  Name = ZINCkj000005hrcT.1
REMARK                            x       y       z     vdW  Elec       q    Type
REMARK                         _______ _______ _______ _____ _____    ______ ____
ROOT
ATOM      1  C   LIG    1       -2.479   0.958   0.046  0.00  0.00    +0.320 C 
ATOM      2  C   LIG    1       -3.656   1.852  -0.348  0.00  0.00    +0.290 C 
ATOM      3  N   LIG    1       -3.626   3.061   0.489  0.00  0.00    -0.390 N 
ATOM      4  C   LIG    1       -2.515   3.914   0.057  0.00  0.00    +0.320 C 
ATOM      5  C   LIG    1       -1.224   3.141   0.052  0.00  0.00    -0.120 A 
ATOM      6  C   LIG    1       -0.029   3.845   0.055  0.00  0.00    +0.040 A 
ATOM      7  C   LIG    1        1.177   3.173   0.047  0.00  0.00    +0.050 A 
ATOM      8  C   LIG    1        1.196   1.791   0.034  0.00  0.00    +0.040 A 
ATOM      9  C   LIG    1        0.007   1.088   0.032  0.00  0.00    +0.050 A 
ATOM     10  C   LIG    1       -4.892   3.792   0.346  0.00  0.00    +0.340 C 
ATOM     11  H   LIG    1       -3.494   2.800   1.455  0.00  0.00    +0.420 HD
ATOM     12  C   LIG    1       -1.204   1.762   0.036  0.00  0.00    -0.110 A 
ENDROOT
BRANCH   1  14
ATOM     13  C   LIG    1       -2.121  -0.742   1.754  0.00  0.00    +0.610 C 
ATOM     14  N   LIG    1       -2.707   0.415   1.387  0.00  0.00    -0.730 N 
ATOM     15  H   LIG    1       -3.280   0.888   2.011  0.00  0.00    +0.400 HD
ATOM     16  O   LIG    1       -1.481  -1.384   0.943  0.00  0.00    -0.520 OA
BRANCH  13  22
ATOM     17  C   LIG    1       -0.727  -3.218   2.978  0.00  0.00    +0.380 C 
ATOM     18  N   LIG    1       -1.644  -2.320   3.685  0.00  0.00    -0.250 N 
ATOM     19  N   LIG    1       -1.995  -2.439   4.915  0.00  0.00    -0.260 NA
ATOM     20  C   LIG    1       -2.824  -1.486   5.258  0.00  0.00    +0.190 A 
ATOM     21  C   LIG    1       -3.023  -0.669   4.143  0.00  0.00    -0.030 A 
ATOM     22  C   LIG    1       -2.256  -1.229   3.136  0.00  0.00    -0.060 A 
ENDBRANCH  13  22
ENDBRANCH   1  14
TORSDOF 2
