REMARK  Name = ZINCkj000005hrcT.2
REMARK                            x       y       z     vdW  Elec       q    Type
REMARK                         _______ _______ _______ _____ _____    ______ ____
ROOT
ATOM      1  C   LIG    1        1.248   1.715  -0.016  0.00  0.00    +0.310 C 
ATOM      2  C   LIG    1        2.361   0.852   0.580  0.00  0.00    +0.280 C 
ATOM      3  N   LIG    1        3.648   1.530   0.362  0.00  0.00    -0.380 N 
ATOM      4  C   LIG    1        4.001   1.434  -1.058  0.00  0.00    +0.320 C 
ATOM      5  C   LIG    1        2.880   1.956  -1.918  0.00  0.00    -0.130 A 
ATOM      6  C   LIG    1        3.161   2.309  -3.229  0.00  0.00    +0.040 A 
ATOM      7  C   LIG    1        2.160   2.786  -4.053  0.00  0.00    +0.040 A 
ATOM      8  C   LIG    1        0.872   2.912  -3.569  0.00  0.00    +0.050 A 
ATOM      9  C   LIG    1        0.591   2.562  -2.263  0.00  0.00    +0.040 A 
ATOM     10  C   LIG    1        4.688   0.882   1.172  0.00  0.00    +0.340 C 
ATOM     11  H   LIG    1        3.570   2.501   0.626  0.00  0.00    +0.430 HD
ATOM     12  C   LIG    1        1.595   2.084  -1.436  0.00  0.00    -0.110 A 
ENDROOT
BRANCH   1  14
ATOM     13  C   LIG    1       -1.187   1.624   0.011  0.00  0.00    +0.610 C 
ATOM     14  N   LIG    1       -0.011   0.966  -0.001  0.00  0.00    -0.710 N 
ATOM     15  H   LIG    1        0.003  -0.004  -0.003  0.00  0.00    +0.410 HD
ATOM     16  O   LIG    1       -1.204   2.836   0.108  0.00  0.00    -0.520 OA
BRANCH  13  22
ATOM     17  C   LIG    1       -4.026   2.829  -0.224  0.00  0.00    +0.380 C 
ATOM     18  N   LIG    1       -3.707   1.399  -0.199  0.00  0.00    -0.250 N 
ATOM     19  N   LIG    1       -4.566   0.448  -0.273  0.00  0.00    -0.260 NA
ATOM     20  C   LIG    1       -3.976  -0.719  -0.225  0.00  0.00    +0.190 A 
ATOM     21  C   LIG    1       -2.601  -0.500  -0.116  0.00  0.00    -0.020 A 
ATOM     22  C   LIG    1       -2.450   0.876  -0.095  0.00  0.00    -0.060 A 
ENDBRANCH  13  22
ENDBRANCH   1  14
TORSDOF 2
