REMARK  Name = ZINCvU0000000Cug.0
REMARK                            x       y       z     vdW  Elec       q    Type
REMARK                         _______ _______ _______ _____ _____    ______ ____
ROOT
ATOM      1  C   LIG    1        3.982  -0.622  -0.304  0.00  0.00    +0.560 C 
ATOM      2  N   LIG    1        5.321  -0.528  -0.434  0.00  0.00    -0.600 N 
ATOM      3  C   LIG    1        5.985   0.782  -0.413  0.00  0.00    +0.270 C 
ATOM      4  C   LIG    1        7.089   0.753   0.654  0.00  0.00    +0.040 C 
ATOM      5  C   LIG    1        8.028  -0.422   0.376  0.00  0.00    +0.090 C 
ATOM      6  C   LIG    1        7.245  -1.734   0.460  0.00  0.00    +0.040 C 
ATOM      7  C   LIG    1        6.143  -1.734  -0.605  0.00  0.00    +0.290 C 
ATOM      8  O   LIG    1        3.454  -1.714  -0.228  0.00  0.00    -0.510 OA
ENDROOT
BRANCH   1  17
ATOM      9  C   LIG    1        2.362  -1.295   2.295  0.00  0.00    +0.180 C 
ATOM     10  C   LIG    1        1.812   0.050   1.898  0.00  0.00    +0.120 A 
ATOM     11  N   LIG    1        0.886   0.710   2.534  0.00  0.00    -0.240 NA
ATOM     12  N   LIG    1        0.629   1.919   1.876  0.00  0.00    -0.390 N 
ATOM     13  C   LIG    1        1.449   1.991   0.779  0.00  0.00    +0.320 A 
ATOM     14  N   LIG    1        1.620   2.897  -0.173  0.00  0.00    -0.490 NA
ATOM     15  C   LIG    1        2.491   2.731  -1.143  0.00  0.00    +0.210 A 
ATOM     16  C   LIG    1        3.284   1.597  -1.224  0.00  0.00    -0.030 A 
ATOM     17  C   LIG    1        3.157   0.604  -0.255  0.00  0.00    +0.000 A 
ATOM     18  C   LIG    1       -0.350   2.928   2.284  0.00  0.00    +0.360 C 
ATOM     19  C   LIG    1        2.213   0.806   0.776  0.00  0.00    -0.190 A 
BRANCH  15  20
ATOM     20  C   LIG    1        2.633   3.802  -2.194  0.00  0.00    +0.050 C 
ATOM     21  C   LIG    1        2.937   3.154  -3.546  0.00  0.00    +0.040 C 
ATOM     22  C   LIG    1        3.777   4.744  -1.811  0.00  0.00    +0.050 C 
ENDBRANCH  15  20
ENDBRANCH   1  17
BRANCH   5  23
ATOM     23  C   LIG    1        9.135  -0.433   1.399  0.00  0.00    +0.100 A 
ATOM     24  N   LIG    1        8.949  -0.539   2.660  0.00  0.00    -0.460 NA
ATOM     25  C   LIG    1       10.033  -0.538   3.459  0.00  0.00    +0.080 A 
ATOM     26  C   LIG    1       10.118  -0.643   4.861  0.00  0.00    +0.070 A 
ATOM     27  C   LIG    1       11.330  -0.615   5.483  0.00  0.00    +0.030 A 
ATOM     28  C   LIG    1       12.501  -0.484   4.751  0.00  0.00    +0.040 A 
ATOM     29  C   LIG    1       12.448  -0.380   3.378  0.00  0.00    +0.060 A 
ATOM     30  C   LIG    1       11.218  -0.406   2.726  0.00  0.00    -0.180 A 
ATOM     31  S   LIG    1       10.794  -0.299   1.020  0.00  0.00    +0.100 S 
ENDBRANCH   5  23
TORSDOF 3
