REMARK  Name = ZINCvU0000000Hly.0
REMARK                            x       y       z     vdW  Elec       q    Type
REMARK                         _______ _______ _______ _____ _____    ______ ____
ROOT
ATOM      1  C   LIG    1       -4.665   4.065   1.492  0.00  0.00    +0.110 C 
ENDROOT
BRANCH   1   2
ATOM      2  C   LIG    1       -6.045   3.489   1.306  0.00  0.00    +0.420 C 
ATOM      3  O   LIG    1       -6.188   2.296   1.139  0.00  0.00    -0.440 OA
BRANCH   2   7
ATOM      4  C   LIG    1       -9.428   6.038   1.369  0.00  0.00    +0.190 A 
ATOM      5  C   LIG    1       -9.594   4.669   1.177  0.00  0.00    +0.000 A 
ATOM      6  C   LIG    1       -8.502   3.841   1.156  0.00  0.00    +0.110 A 
ATOM      7  C   LIG    1       -7.218   4.373   1.328  0.00  0.00    -0.190 A 
ATOM      8  C   LIG    1       -7.056   5.750   1.526  0.00  0.00    +0.090 A 
ATOM      9  C   LIG    1       -8.154   6.572   1.541  0.00  0.00    -0.020 A 
BRANCH   4  11
ATOM     10  C   LIG    1      -11.710   6.432   1.893  0.00  0.00    +0.510 C 
ATOM     11  N   LIG    1      -10.540   6.876   1.391  0.00  0.00    -0.680 N 
ATOM     12  H   LIG    1      -10.474   7.779   1.044  0.00  0.00    +0.420 HD
ATOM     13  O   LIG    1      -11.769   5.338   2.414  0.00  0.00    -0.510 OA
BRANCH  10  14
ATOM     14  C   LIG    1      -12.943   7.294   1.809  0.00  0.00    +0.060 C 
BRANCH  14  16
ATOM     15  C   LIG    1      -15.375   7.436   2.362  0.00  0.00    +0.030 C 
ATOM     16  C   LIG    1      -14.123   6.560   2.448  0.00  0.00    +0.030 C 
ENDBRANCH  14  16
ENDBRANCH  10  14
ENDBRANCH   4  11
ENDBRANCH   2   7
ENDBRANCH   1   2
BRANCH   1  17
ATOM     17  S   LIG    1       -3.441   2.733   1.416  0.00  0.00    +0.060 S 
BRANCH  17  18
ATOM     18  C   LIG    1       -1.963   3.662   1.655  0.00  0.00    +0.370 A 
ATOM     19  N   LIG    1       -2.059   4.959   1.817  0.00  0.00    -0.540 NA
ATOM     20  C   LIG    1       -0.964   5.731   2.005  0.00  0.00    +0.180 A 
ATOM     21  C   LIG    1       -1.065   7.114   2.178  0.00  0.00    +0.040 A 
ATOM     22  C   LIG    1        0.078   7.861   2.367  0.00  0.00    +0.010 A 
ATOM     23  C   LIG    1        1.329   7.254   2.388  0.00  0.00    +0.000 A 
ATOM     24  C   LIG    1        1.452   5.902   2.221  0.00  0.00    +0.130 A 
ATOM     25 CL   LIG    1       -0.045   9.579   2.582  0.00  0.00    -0.050 Cl
ATOM     26  C   LIG    1        0.312   5.124   2.028  0.00  0.00    -0.200 A 
ATOM     27  C   LIG    1        0.390   3.668   1.849  0.00  0.00    +0.560 A 
ATOM     28  O   LIG    1        1.459   3.086   1.864  0.00  0.00    -0.490 OA
ATOM     29  N   LIG    1       -0.770   2.997   1.663  0.00  0.00    -0.520 N 
BRANCH  29  30
ATOM     30  C   LIG    1       -0.748   1.544   1.476  0.00  0.00    +0.230 C 
ATOM     31  C   LIG    1       -0.119   0.881   2.703  0.00  0.00    +0.050 C 
ATOM     32  C   LIG    1        0.078   1.203   0.233  0.00  0.00    +0.050 C 
ENDBRANCH  29  30
ENDBRANCH  17  18
ENDBRANCH   1  17
TORSDOF 8
