REMARK  Name = ZINCrD000000D8ZO.0
REMARK                            x       y       z     vdW  Elec       q    Type
REMARK                         _______ _______ _______ _____ _____    ______ ____
ROOT
ATOM      1  C   LIG    1        2.983   0.171   3.479  0.00  0.00    -0.100 A 
ATOM      2  C   LIG    1        3.705  -0.365   4.527  0.00  0.00    +0.230 A 
ATOM      3  C   LIG    1        4.318  -1.597   4.388  0.00  0.00    -0.200 A 
ATOM      4  C   LIG    1        4.205  -2.299   3.201  0.00  0.00    +0.240 A 
ATOM      5  C   LIG    1        3.480  -1.772   2.151  0.00  0.00    -0.050 A 
ATOM      6  C   LIG    1        2.863  -0.534   2.288  0.00  0.00    +0.270 A 
ENDROOT
BRANCH   3   7
ATOM      7  C   LIG    1        5.111  -2.176   5.531  0.00  0.00    +0.520 C 
ATOM      8  F   LIG    1        5.051  -3.572   5.481  0.00  0.00    -0.160 F 
ATOM      9  F   LIG    1        4.574  -1.730   6.744  0.00  0.00    -0.160 F 
ATOM     10  F   LIG    1        6.443  -1.762   5.431  0.00  0.00    -0.160 F 
ENDBRANCH   3   7
BRANCH   1  12
ATOM     11  O   LIG    1        2.516   2.152   4.633  0.00  0.00    -0.120 OA
ATOM     12  N   LIG    1        2.333   1.492   3.626  0.00  0.00    +0.030 N 
ATOM     13  O   LIG    1        1.614   1.919   2.740  0.00  0.00    -0.140 OA
ENDBRANCH   1  12
BRANCH   5  14
ATOM     14  N   LIG    1        3.359  -2.524   0.882  0.00  0.00    +0.030 N 
ATOM     15  O   LIG    1        2.719  -2.058  -0.043  0.00  0.00    -0.070 OA
ATOM     16  O   LIG    1        3.900  -3.609   0.764  0.00  0.00    -0.170 OA
ENDBRANCH   5  14
BRANCH   6  17
ATOM     17  N   LIG    1        2.128   0.002   1.228  0.00  0.00    -0.630 N 
ATOM     18  H   LIG    1        2.290   0.994   1.141  0.00  0.00    +0.400 HD
BRANCH  17  19
ATOM     19  C   LIG    1        0.696  -0.286   1.382  0.00  0.00    +0.210 C 
BRANCH  19  20
ATOM     20  C   LIG    1       -0.054   0.176   0.131  0.00  0.00    +0.030 C 
BRANCH  20  21
ATOM     21  C   LIG    1       -1.518  -0.259   0.224  0.00  0.00    +0.160 C 
BRANCH  21  22
ATOM     22  C   LIG    1       -2.228   0.087  -1.060  0.00  0.00    -0.010 A 
ATOM     23  C   LIG    1       -2.334  -0.709  -2.139  0.00  0.00    -0.050 A 
ATOM     24  C   LIG    1       -3.075   0.009  -3.106  0.00  0.00    -0.060 A 
ATOM     25  C   LIG    1       -3.377   1.200  -2.560  0.00  0.00    +0.160 A 
ATOM     26  O   LIG    1       -2.867   1.239  -1.318  0.00  0.00    -0.180 OA
ENDBRANCH  21  22
ENDBRANCH  20  21
BRANCH  20  27
ATOM     27  C   LIG    1        0.018   1.701   0.026  0.00  0.00    +0.180 C 
BRANCH  27  28
ATOM     28  O   LIG    1        1.369   2.098  -0.218  0.00  0.00    -0.570 OA
ATOM     29  H   LIG    1        1.490   3.054  -0.296  0.00  0.00    +0.380 HD
ENDBRANCH  27  28
ENDBRANCH  20  27
ENDBRANCH  19  20
ENDBRANCH  17  19
ENDBRANCH   6  17
TORSDOF 10
