REMARK  Name = ZINCqH0000005ku9.0
REMARK                            x       y       z     vdW  Elec       q    Type
REMARK                         _______ _______ _______ _____ _____    ______ ____
ROOT
ATOM      1  C   LIG    1       -4.169   9.717   0.376  0.00  0.00    +0.250 C 
ATOM      2  C   LIG    1       -2.782   9.570  -0.304  0.00  0.00    +0.030 C 
ATOM      3  C   LIG    1       -2.345   8.165   0.185  0.00  0.00    +0.260 C 
ATOM      4  N   LIG    1       -3.585   7.368   0.193  0.00  0.00    -0.610 N 
ATOM      5  C   LIG    1       -3.657   6.026   0.098  0.00  0.00    +0.580 C 
ATOM      6  O   LIG    1       -4.740   5.480   0.014  0.00  0.00    -0.520 OA
ATOM      7  C   LIG    1       -4.731   8.280   0.329  0.00  0.00    +0.260 C 
ENDROOT
BRANCH   5   8
ATOM      8  C   LIG    1       -2.420   5.218   0.097  0.00  0.00    -0.170 A 
ATOM      9  C   LIG    1       -1.259   5.714   0.677  0.00  0.00    +0.130 A 
ATOM     10  C   LIG    1       -0.110   4.905   0.648  0.00  0.00    -0.090 A 
ATOM     11  C   LIG    1        1.099   5.336   1.219  0.00  0.00    +0.040 A 
ATOM     12  C   LIG    1        2.195   4.528   1.169  0.00  0.00    +0.050 A 
ATOM     13  C   LIG    1        2.130   3.273   0.568  0.00  0.00    +0.020 A 
ATOM     14  C   LIG    1        0.972   2.820   0.009  0.00  0.00    +0.120 A 
ATOM     15  F   LIG    1        0.931   1.600  -0.570  0.00  0.00    -0.120 F 
ATOM     16  C   LIG    1       -0.180   3.628   0.036  0.00  0.00    +0.110 A 
ATOM     17  N   LIG    1       -1.328   3.204  -0.506  0.00  0.00    -0.460 NA
ATOM     18  C   LIG    1       -2.408   3.941  -0.492  0.00  0.00    +0.360 A 
ENDBRANCH   5   8
BRANCH   1  20
ATOM     19  C   LIG    1       -5.349  10.342  -1.782  0.00  0.00    +0.280 C 
ATOM     20  N   LIG    1       -5.024  10.633  -0.383  0.00  0.00    -0.620 N 
BRANCH  20  21
ATOM     21  C   LIG    1       -5.530  11.783   0.227  0.00  0.00    +0.210 A 
ATOM     22  C   LIG    1       -6.249  12.708  -0.519  0.00  0.00    -0.070 A 
ATOM     23  C   LIG    1       -6.752  13.842   0.088  0.00  0.00    +0.050 A 
ATOM     24  C   LIG    1       -6.532  14.062   1.435  0.00  0.00    -0.060 A 
ATOM     25  C   LIG    1       -5.813  13.145   2.180  0.00  0.00    +0.050 A 
ATOM     26  C   LIG    1       -5.312  12.007   1.581  0.00  0.00    -0.080 A 
ENDBRANCH  20  21
ENDBRANCH   1  20
TORSDOF 3
