REMARK  Name = ZINCrD000000CIPX.0
REMARK                            x       y       z     vdW  Elec       q    Type
REMARK                         _______ _______ _______ _____ _____    ______ ____
ROOT
ATOM      1  C   LIG    1       -2.893   1.355  -5.347  0.00  0.00    -0.030 A 
ATOM      2  C   LIG    1       -3.494   1.560  -6.544  0.00  0.00    +0.030 A 
ATOM      3  C   LIG    1       -3.390   2.738  -7.478  0.00  0.00    +0.360 C 
ATOM      4  O   LIG    1       -3.924   2.338  -8.749  0.00  0.00    -0.370 OA
ATOM      5  C   LIG    1       -5.202   1.699  -8.669  0.00  0.00    +0.230 C 
ATOM      6  C   LIG    1       -5.050   0.312  -8.028  0.00  0.00    +0.270 C 
ATOM      7  N   LIG    1       -4.247   0.459  -6.811  0.00  0.00    -0.440 N 
ATOM      8  C   LIG    1       -4.101  -0.400  -5.769  0.00  0.00    +0.270 A 
ATOM      9  N   LIG    1       -3.287   0.144  -4.892  0.00  0.00    -0.450 NA
ENDROOT
BRANCH   1  11
ATOM     10  O   LIG    1       -1.779   3.393  -5.126  0.00  0.00    -0.540 OA
ATOM     11  C   LIG    1       -1.980   2.288  -4.662  0.00  0.00    +0.610 C 
ATOM     12  N   LIG    1       -1.367   1.914  -3.521  0.00  0.00    -0.600 N 
ATOM     13  C   LIG    1       -1.697   0.632  -2.886  0.00  0.00    +0.290 C 
ATOM     14  C   LIG    1       -0.413  -0.194  -2.743  0.00  0.00    +0.060 C 
ATOM     15  C   LIG    1        0.654   0.669  -2.062  0.00  0.00    -0.120 C 
ATOM     16  C   LIG    1        0.732   0.629  -0.536  0.00  0.00    +0.070 C 
ATOM     17  C   LIG    1        0.949   2.003  -2.755  0.00  0.00    +0.070 C 
ATOM     18  C   LIG    1        1.817  -0.049  -1.376  0.00  0.00    +0.200 C 
ATOM     19  F   LIG    1        1.825  -1.447  -1.413  0.00  0.00    -0.160 F 
ATOM     20  F   LIG    1        3.074   0.564  -1.424  0.00  0.00    -0.160 F 
ATOM     21  C   LIG    1       -0.362   2.785  -2.898  0.00  0.00    +0.290 C 
ENDBRANCH   1  11
BRANCH   8  22
ATOM     22  C   LIG    1       -4.750  -1.723  -5.643  0.00  0.00    -0.020 A 
ATOM     23  C   LIG    1       -5.341  -2.323  -6.755  0.00  0.00    +0.010 A 
ATOM     24  C   LIG    1       -5.939  -3.560  -6.632  0.00  0.00    +0.020 A 
ATOM     25  C   LIG    1       -5.963  -4.201  -5.406  0.00  0.00    +0.020 A 
ATOM     26  C   LIG    1       -5.383  -3.609  -4.298  0.00  0.00    +0.010 A 
ATOM     27  C   LIG    1       -4.777  -2.375  -4.409  0.00  0.00    +0.060 A 
ENDBRANCH   8  22
TORSDOF 2
