REMARK  Name = ZINCrH000004qT62.0
REMARK                            x       y       z     vdW  Elec       q    Type
REMARK                         _______ _______ _______ _____ _____    ______ ____
ROOT
ATOM      1  C   LIG    1       -0.853   3.110   1.337  0.00  0.00    +0.250 C 
ENDROOT
BRANCH   1   4
ATOM      2  N   LIG    1       -1.347   3.269  -1.082  0.00  0.00    -0.720 N 
ATOM      3  H   LIG    1       -0.522   2.787  -1.251  0.00  0.00    +0.400 HD
ATOM      4  C   LIG    1       -1.693   3.589   0.181  0.00  0.00    +0.520 C 
ATOM      5  O   LIG    1       -2.680   4.263   0.387  0.00  0.00    -0.530 OA
BRANCH   2   6
ATOM      6  C   LIG    1       -2.216   3.649  -2.198  0.00  0.00    +0.310 C 
ATOM      7  C   LIG    1       -1.895   5.081  -2.630  0.00  0.00    +0.040 C 
BRANCH   6  11
ATOM      8  C   LIG    1        0.346   0.251  -4.923  0.00  0.00    +0.140 C 
ATOM      9  C   LIG    1       -0.791   1.172  -4.562  0.00  0.00    -0.170 A 
ATOM     10  C   LIG    1       -0.834   1.953  -3.481  0.00  0.00    +0.000 A 
ATOM     11  C   LIG    1       -1.985   2.712  -3.356  0.00  0.00    -0.110 A 
ATOM     12  C   LIG    1       -2.872   2.555  -4.340  0.00  0.00    -0.170 A 
ATOM     13  C   LIG    1       -4.195   3.269  -4.439  0.00  0.00    +0.140 C 
ATOM     14  S   LIG    1       -2.260   1.388  -5.505  0.00  0.00    +0.110 S 
ENDBRANCH   6  11
ENDBRANCH   2   6
ENDBRANCH   1   4
BRANCH   1  15
ATOM     15  N   LIG    1       -1.050   3.999   2.485  0.00  0.00    -0.710 N 
ATOM     16  H   LIG    1       -1.871   4.510   2.568  0.00  0.00    +0.410 HD
ATOM     17  C   LIG    1       -0.092   4.106   3.426  0.00  0.00    +0.520 C 
ATOM     18  O   LIG    1        0.934   3.468   3.323  0.00  0.00    -0.510 OA
BRANCH  17  19
ATOM     19  C   LIG    1       -0.295   5.021   4.607  0.00  0.00    +0.230 C 
BRANCH  19  20
ATOM     20  O   LIG    1        0.852   4.962   5.457  0.00  0.00    -0.290 OA
BRANCH  20  21
ATOM     21  C   LIG    1        0.831   5.733   6.576  0.00  0.00    +0.130 A 
ATOM     22  C   LIG    1       -0.269   6.534   6.847  0.00  0.00    -0.080 A 
ATOM     23  C   LIG    1       -0.290   7.313   7.988  0.00  0.00    +0.050 A 
ATOM     24  C   LIG    1        0.788   7.303   8.854  0.00  0.00    -0.030 A 
ATOM     25  C   LIG    1        1.887   6.510   8.583  0.00  0.00    +0.050 A 
ATOM     26  C   LIG    1        1.912   5.725   7.446  0.00  0.00    -0.020 A 
ENDBRANCH  20  21
ENDBRANCH  19  20
ENDBRANCH  17  19
ENDBRANCH   1  15
BRANCH   1  27
ATOM     27  C   LIG    1       -1.270   1.688   1.715  0.00  0.00    -0.020 C 
ATOM     28  C   LIG    1       -2.703   1.702   2.252  0.00  0.00    +0.030 C 
ATOM     29  C   LIG    1       -0.328   1.149   2.793  0.00  0.00    +0.040 C 
ENDBRANCH   1  27
TORSDOF 8
