REMARK  Name = ZINCvU00000006Af.0
REMARK                            x       y       z     vdW  Elec       q    Type
REMARK                         _______ _______ _______ _____ _____    ______ ____
ROOT
ATOM      1  N   LIG    1        8.057  -0.079  -1.224  0.00  0.00    -0.590 N 
ATOM      2  C   LIG    1        8.757   0.013  -0.092  0.00  0.00    +0.520 C 
ATOM      3  C   LIG    1        8.136   0.296   1.245  0.00  0.00    +0.090 C 
ATOM      4  C   LIG    1        6.630   0.026   1.188  0.00  0.00    +0.060 C 
ATOM      5  C   LIG    1        6.059   0.727  -0.050  0.00  0.00    +0.130 C 
ATOM      6  O   LIG    1        9.959  -0.141  -0.146  0.00  0.00    -0.540 OA
ATOM      7  C   LIG    1        6.606   0.040  -1.302  0.00  0.00    +0.290 C 
ENDROOT
BRANCH   7   8
ATOM      8  C   LIG    1        6.234   0.850  -2.518  0.00  0.00    -0.150 A 
ATOM      9  C   LIG    1        6.965   1.976  -2.847  0.00  0.00    +0.080 A 
ATOM     10  C   LIG    1        6.629   2.716  -3.964  0.00  0.00    -0.080 A 
ATOM     11  C   LIG    1        5.550   2.336  -4.748  0.00  0.00    +0.140 A 
ATOM     12  C   LIG    1        4.814   1.209  -4.412  0.00  0.00    -0.020 A 
ATOM     13  C   LIG    1        5.158   0.468  -3.297  0.00  0.00    +0.070 A 
BRANCH  11  14
ATOM     14  O   LIG    1        5.213   3.067  -5.844  0.00  0.00    -0.320 OA
ATOM     15  C   LIG    1        6.015   4.214  -6.129  0.00  0.00    +0.250 C 
ENDBRANCH  11  14
ENDBRANCH   7   8
BRANCH   5  16
ATOM     16  C   LIG    1        4.555   0.630  -0.037  0.00  0.00    +0.190 A 
ATOM     17  N   LIG    1        3.711   1.631  -0.025  0.00  0.00    -0.450 NA
ATOM     18  C   LIG    1        2.481   1.070  -0.016  0.00  0.00    +0.210 A 
ATOM     19  N   LIG    1        2.649  -0.227  -0.019  0.00  0.00    -0.370 NA
ATOM     20  O   LIG    1        3.832  -0.494  -0.036  0.00  0.00    +0.090 OA
BRANCH  18  21
ATOM     21  C   LIG    1        1.184   1.790   0.000  0.00  0.00    -0.060 A 
ATOM     22  C   LIG    1       -0.013   1.076   0.008  0.00  0.00    +0.090 A 
ATOM     23  C   LIG    1       -1.216   1.751   0.017  0.00  0.00    +0.010 A 
ATOM     24  C   LIG    1       -1.238   3.134   0.030  0.00  0.00    +0.070 A 
ATOM     25  C   LIG    1       -0.056   3.850   0.022  0.00  0.00    -0.020 A 
ATOM     26  C   LIG    1        1.157   3.185   0.008  0.00  0.00    +0.140 A 
ATOM     27  F   LIG    1        2.313   3.885  -0.000  0.00  0.00    -0.120 F 
ENDBRANCH  18  21
ENDBRANCH   5  16
BRANCH   1  28
ATOM     28  C   LIG    1        8.794  -0.311  -2.469  0.00  0.00    +0.280 C 
BRANCH  28  29
ATOM     29  C   LIG    1        8.926  -1.816  -2.711  0.00  0.00    +0.000 C 
BRANCH  29  31
ATOM     30  C   LIG    1        9.827  -3.563  -4.253  0.00  0.00    +0.000 C 
ATOM     31  C   LIG    1        9.695  -2.058  -4.011  0.00  0.00    +0.000 C 
ENDBRANCH  29  31
ENDBRANCH  28  29
ENDBRANCH   1  28
TORSDOF 7
