REMARK  Name = ZINCrD00000727b0.0
REMARK                            x       y       z     vdW  Elec       q    Type
REMARK                         _______ _______ _______ _____ _____    ______ ____
ROOT
ATOM      1  N   LIG    1        1.041   3.363   0.064  0.00  0.00    -0.460 N 
ATOM      2  C   LIG    1        1.806   3.930   1.182  0.00  0.00    +0.210 C 
ATOM      3  C   LIG    1        1.867   5.454   1.034  0.00  0.00    +0.290 C 
ATOM      4  N   LIG    1        0.494   5.965   0.897  0.00  0.00    -0.630 N 
ATOM      5  C   LIG    1       -0.379   5.350  -0.114  0.00  0.00    +0.320 C 
ATOM      6  C   LIG    1        0.050   6.971   1.676  0.00  0.00    +0.710 C 
ATOM      7  N   LIG    1        0.830   7.454   2.663  0.00  0.00    -0.690 N 
ATOM      8  H   LIG    1        1.741   7.136   2.761  0.00  0.00    +0.400 HD
ATOM      9  O   LIG    1       -1.055   7.443   1.488  0.00  0.00    -0.570 OA
ATOM     10  C   LIG    1       -0.352   3.830   0.079  0.00  0.00    +0.230 C 
ENDROOT
BRANCH   1  15
ATOM     11  C   LIG    1        2.373   0.060   0.069  0.00  0.00    +0.390 A 
ATOM     12  C   LIG    1        1.204  -0.699   0.090  0.00  0.00    -0.120 A 
ATOM     13  C   LIG    1       -0.010  -0.039   0.102  0.00  0.00    +0.380 A 
ATOM     14  N   LIG    1       -0.028   1.285   0.093  0.00  0.00    -0.570 NA
ATOM     15  C   LIG    1        1.100   1.980   0.072  0.00  0.00    +0.530 A 
ATOM     16  N   LIG    1        2.283   1.384   0.060  0.00  0.00    -0.590 NA
BRANCH  11  17
ATOM     17  O   LIG    1        3.586  -0.546   0.056  0.00  0.00    -0.300 OA
BRANCH  17  19
ATOM     18  C   LIG    1        6.002  -0.555   0.022  0.00  0.00    +0.060 C 
ATOM     19  C   LIG    1        4.735   0.303   0.034  0.00  0.00    +0.200 C 
ENDBRANCH  17  19
ENDBRANCH  11  17
ENDBRANCH   1  15
BRANCH   7  20
ATOM     20  C   LIG    1        0.326   8.415   3.546  0.00  0.00    +0.160 A 
ATOM     21  C   LIG    1       -1.012   8.384   3.920  0.00  0.00    +0.010 A 
ATOM     22  C   LIG    1       -1.505   9.331   4.796  0.00  0.00    +0.020 A 
ATOM     23  C   LIG    1       -0.672  10.316   5.293  0.00  0.00    -0.010 A 
ATOM     24  C   LIG    1        0.659  10.353   4.919  0.00  0.00    +0.030 A 
ATOM     25  C   LIG    1        1.160   9.406   4.047  0.00  0.00    -0.100 A 
BRANCH  25  26
ATOM     26  C   LIG    1        2.611   9.448   3.640  0.00  0.00    +0.020 C 
ATOM     27  C   LIG    1        3.492   9.433   4.891  0.00  0.00    +0.030 C 
ATOM     28  C   LIG    1        2.880  10.725   2.842  0.00  0.00    +0.040 C 
ENDBRANCH  25  26
ENDBRANCH   7  20
TORSDOF 5
