REMARK  Name = ZINCvU00000003Uv.0
REMARK                            x       y       z     vdW  Elec       q    Type
REMARK                         _______ _______ _______ _____ _____    ______ ____
ROOT
ATOM      1  N   LIG    1       -2.078   3.018  -0.271  0.00  0.00    -0.370 N 
ATOM      2  N   LIG    1       -2.313   3.208  -1.639  0.00  0.00    -0.270 NA
ATOM      3  C   LIG    1       -3.355   3.982  -1.766  0.00  0.00    +0.320 A 
ATOM      4  N   LIG    1       -3.810   4.316  -0.506  0.00  0.00    -0.490 N 
ATOM      5  C   LIG    1       -3.015   3.716   0.403  0.00  0.00    +0.480 A 
ATOM      6  S   LIG    1       -3.168   3.821   2.105  0.00  0.00    -0.540 S 
ENDROOT
BRANCH   3   7
ATOM      7  C   LIG    1       -3.947   4.431  -3.045  0.00  0.00    -0.050 A 
ATOM      8  C   LIG    1       -4.779   5.551  -3.076  0.00  0.00    +0.070 A 
ATOM      9  C   LIG    1       -5.324   5.969  -4.272  0.00  0.00    +0.000 A 
ATOM     10  C   LIG    1       -5.055   5.273  -5.440  0.00  0.00    +0.130 A 
ATOM     11  C   LIG    1       -4.234   4.157  -5.414  0.00  0.00    +0.000 A 
ATOM     12  F   LIG    1       -5.595   5.684  -6.608  0.00  0.00    -0.130 F 
ATOM     13  C   LIG    1       -3.679   3.734  -4.224  0.00  0.00    +0.110 A 
ENDBRANCH   3   7
BRANCH   1  14
ATOM     14  C   LIG    1       -1.006   2.213   0.320  0.00  0.00    +0.520 C 
BRANCH  14  16
ATOM     15  C   LIG    1       -0.998   0.295  -1.159  0.00  0.00    +0.210 C 
ATOM     16  N   LIG    1       -1.333   0.787   0.184  0.00  0.00    -0.550 NA
BRANCH  16  17
ATOM     17  C   LIG    1       -0.659  -0.008   1.220  0.00  0.00    +0.260 C 
BRANCH  17  18
ATOM     18  C   LIG    1       -1.203  -1.414   1.206  0.00  0.00    -0.060 A 
ATOM     19  C   LIG    1       -0.611  -2.376   0.409  0.00  0.00    +0.040 A 
ATOM     20  C   LIG    1       -1.109  -3.666   0.396  0.00  0.00    +0.040 A 
ATOM     21  C   LIG    1       -2.199  -3.994   1.181  0.00  0.00    -0.030 A 
ATOM     22  C   LIG    1       -2.792  -3.030   1.980  0.00  0.00    -0.030 A 
ATOM     23 CL   LIG    1       -4.160  -3.442   2.966  0.00  0.00    -0.040 Cl
ATOM     24 CL   LIG    1       -2.823  -5.614   1.166  0.00  0.00    -0.050 Cl
ATOM     25  C   LIG    1       -2.289  -1.742   1.996  0.00  0.00    +0.080 A 
ENDBRANCH  17  18
ENDBRANCH  16  17
ENDBRANCH  14  16
ENDBRANCH   1  14
BRANCH   4  26
ATOM     26  C   LIG    1       -4.959   5.174  -0.207  0.00  0.00    +0.350 C 
BRANCH  26  27
ATOM     27  C   LIG    1       -4.484   6.617  -0.025  0.00  0.00    +0.120 C 
ATOM     28  C   LIG    1       -5.698   7.550   0.148  0.00  0.00    +0.010 C 
ATOM     29  C   LIG    1       -5.469   8.219   1.526  0.00  0.00    +0.010 C 
ATOM     30  C   LIG    1       -3.945   8.029   1.730  0.00  0.00    +0.200 C 
ATOM     31  O   LIG    1       -3.690   6.723   1.169  0.00  0.00    -0.340 OA
ENDBRANCH  26  27
ENDBRANCH   4  26
TORSDOF 7
