REMARK  Name = ZINCrD00000fLH8P.0
REMARK                            x       y       z     vdW  Elec       q    Type
REMARK                         _______ _______ _______ _____ _____    ______ ____
ROOT
ATOM      1  O   LIG    1        2.230  -2.746  -0.038  0.00  0.00    -0.480 OA
ATOM      2  C   LIG    1        1.171  -2.150  -0.018  0.00  0.00    +0.570 C 
ATOM      3  N   LIG    1        0.011  -2.837  -0.012  0.00  0.00    -0.650 N 
ATOM      4  H   LIG    1       -0.832  -2.364   0.070  0.00  0.00    +0.420 HD
ENDROOT
BRANCH   3   5
ATOM      5  C   LIG    1        0.023  -4.230  -0.125  0.00  0.00    +0.140 A 
ATOM      6  C   LIG    1        1.050  -4.953   0.454  0.00  0.00    +0.080 A 
ATOM      7  C   LIG    1        1.076  -6.330   0.358  0.00  0.00    +0.030 A 
ATOM      8  C   LIG    1        0.070  -6.977  -0.336  0.00  0.00    +0.130 A 
ATOM      9  C   LIG    1       -0.951  -6.254  -0.921  0.00  0.00    -0.610 A 
ATOM     10  S   LIG    1       -2.353  -6.793  -1.870  0.00  0.00    +2.470 S 
ATOM     11  O   LIG    1       -3.306  -7.241  -0.917  0.00  0.00    -0.920 OA
ATOM     12  O   LIG    1       -1.826  -7.652  -2.872  0.00  0.00    -0.930 OA
ATOM     13  C   LIG    1       -2.808  -5.154  -2.559  0.00  0.00    -0.270 C 
ATOM     14  C   LIG    1       -2.188  -4.221  -1.498  0.00  0.00    +0.130 C 
ATOM     15  C   LIG    1       -1.005  -4.877  -0.830  0.00  0.00    -0.060 A 
ENDBRANCH   3   5
BRANCH   2  16
ATOM     16  C   LIG    1        1.155  -0.667  -0.001  0.00  0.00    +0.140 A 
ATOM     17  N   LIG    1        0.003  -0.004   0.021  0.00  0.00    -0.480 NA
ATOM     18  C   LIG    1       -0.015   1.319   0.037  0.00  0.00    +0.370 A 
ATOM     19  N   LIG    1        1.104   2.033   0.033  0.00  0.00    -0.480 NA
ATOM     20  C   LIG    1        2.285   1.444   0.012  0.00  0.00    +0.370 A 
ATOM     21  C   LIG    1        2.352   0.056  -0.006  0.00  0.00    -0.110 A 
ATOM     22 CL   LIG    1        3.883  -0.761  -0.033  0.00  0.00    +0.010 Cl
BRANCH  18  23
ATOM     23  C   LIG    1       -1.320   2.023   0.055  0.00  0.00    -0.060 A 
ATOM     24  C   LIG    1       -2.508   1.295   0.048  0.00  0.00    +0.060 A 
ATOM     25  C   LIG    1       -3.720   1.955   0.071  0.00  0.00    +0.000 A 
ATOM     26  C   LIG    1       -3.757   3.338   0.088  0.00  0.00    +0.040 A 
ATOM     27  C   LIG    1       -2.581   4.066   0.088  0.00  0.00    +0.000 A 
ATOM     28  C   LIG    1       -1.363   3.416   0.072  0.00  0.00    +0.070 A 
ENDBRANCH  18  23
ENDBRANCH   2  16
TORSDOF 3
