REMARK  Name = ZINCc70000002LCK.0
REMARK                            x       y       z     vdW  Elec       q    Type
REMARK                         _______ _______ _______ _____ _____    ______ ____
ROOT
ATOM      1  O   LIG    1        0.097   0.200   0.010  0.00  0.00    -0.940 OA
ATOM      2  S   LIG    1       -0.124   1.599   0.131  0.00  0.00    +2.410 S 
ATOM      3  C   LIG    1       -1.219   1.890   1.530  0.00  0.00    -0.330 C 
ATOM      4  C   LIG    1       -2.176   0.715   1.797  0.00  0.00    +0.060 C 
ATOM      5  C   LIG    1       -2.833   0.112   0.554  0.00  0.00    +0.180 C 
ATOM      6  N   LIG    1       -3.236   1.185  -0.343  0.00  0.00    -0.680 NA
ATOM      7  H   LIG    1       -4.176   1.040  -0.681  0.00  0.00    +0.360 HD
ATOM      8  C   LIG    1       -2.276   1.232  -1.457  0.00  0.00    +0.180 C 
ATOM      9  O   LIG    1        0.994   2.470   0.241  0.00  0.00    -0.940 OA
ATOM     10  C   LIG    1       -1.160   2.151  -1.279  0.00  0.00    -0.300 C 
ENDROOT
BRANCH   8  11
ATOM     11  C   LIG    1       -3.032   1.632  -2.726  0.00  0.00    -0.040 C 
ATOM     12  C   LIG    1       -3.402   0.520  -3.708  0.00  0.00    +0.020 C 
ATOM     13  C   LIG    1       -2.289   1.510  -4.058  0.00  0.00    +0.020 C 
ENDBRANCH   8  11
TORSDOF 1
