REMARK  Name = ZINCrD000006V3lO.1
REMARK                            x       y       z     vdW  Elec       q    Type
REMARK                         _______ _______ _______ _____ _____    ______ ____
ROOT
ATOM      1  N   LIG    1       -7.011   4.525  -1.274  0.00  0.00    -0.680 N 
ATOM      2  H   LIG    1       -6.184   5.023  -1.372  0.00  0.00    +0.410 HD
ATOM      3  C   LIG    1       -7.725   4.623  -0.135  0.00  0.00    +0.520 C 
ATOM      4  O   LIG    1       -8.800   4.069  -0.043  0.00  0.00    -0.500 OA
ENDROOT
BRANCH   1   8
ATOM      5  C   LIG    1       -8.359   2.085  -4.376  0.00  0.00    +0.100 A 
ATOM      6  C   LIG    1       -9.271   2.773  -3.588  0.00  0.00    +0.010 A 
ATOM      7  C   LIG    1       -8.825   3.581  -2.561  0.00  0.00    +0.050 A 
ATOM      8  C   LIG    1       -7.464   3.705  -2.316  0.00  0.00    +0.120 A 
ATOM      9  C   LIG    1       -6.551   3.021  -3.108  0.00  0.00    +0.010 A 
ATOM     10  C   LIG    1       -6.997   2.209  -4.131  0.00  0.00    -0.020 A 
BRANCH   5  15
ATOM     11  C   LIG    1       -9.628  -2.061  -7.888  0.00  0.00    +0.190 C 
ATOM     12  N   LIG    1       -9.154  -1.201  -6.796  0.00  0.00    -0.550 NA
ATOM     13  C   LIG    1       -8.214  -0.187  -7.295  0.00  0.00    +0.170 C 
ATOM     14  C   LIG    1       -7.684   0.635  -6.118  0.00  0.00    +0.200 C 
ATOM     15  N   LIG    1       -8.810   1.266  -5.416  0.00  0.00    -0.490 N 
ATOM     16  C   LIG    1       -9.750   0.251  -4.918  0.00  0.00    +0.200 C 
ATOM     17  C   LIG    1      -10.281  -0.571  -6.094  0.00  0.00    +0.180 C 
ENDBRANCH   5  15
ENDBRANCH   1   8
BRANCH   3  18
ATOM     18  C   LIG    1       -7.188   5.422   1.025  0.00  0.00    +0.170 C 
BRANCH  18  19
ATOM     19  C   LIG    1       -8.170   5.373   2.167  0.00  0.00    +0.090 A 
ATOM     20  C   LIG    1       -7.817   4.963   3.389  0.00  0.00    -0.050 A 
ATOM     21  S   LIG    1       -9.233   5.056   4.434  0.00  0.00    +0.140 S 
ATOM     22  C   LIG    1      -10.189   5.647   3.077  0.00  0.00    +0.130 A 
ATOM     23  N   LIG    1       -9.425   5.730   2.022  0.00  0.00    -0.430 NA
BRANCH  22  24
ATOM     24  C   LIG    1      -11.617   5.998   3.126  0.00  0.00    +0.050 A 
ATOM     25  C   LIG    1      -12.424   5.915   4.222  0.00  0.00    -0.010 A 
ATOM     26  C   LIG    1      -13.701   6.346   3.817  0.00  0.00    -0.050 A 
ATOM     27  C   LIG    1      -13.616   6.667   2.510  0.00  0.00    +0.200 A 
ATOM     28  O   LIG    1      -12.357   6.450   2.095  0.00  0.00    -0.150 OA
ENDBRANCH  22  24
ENDBRANCH  18  19
ENDBRANCH   3  18
TORSDOF 5
