REMARK  Name = ZINCtV000002w0Gw.0
REMARK                            x       y       z     vdW  Elec       q    Type
REMARK                         _______ _______ _______ _____ _____    ______ ____
ROOT
ATOM      1  C   LIG    1       -6.813   0.052   0.638  0.00  0.00    +0.120 A 
ATOM      2  C   LIG    1       -6.391   1.155  -0.094  0.00  0.00    +0.000 A 
ATOM      3  C   LIG    1       -5.087   1.588  -0.001  0.00  0.00    +0.110 A 
ATOM      4  C   LIG    1       -4.188   0.917   0.832  0.00  0.00    -0.140 A 
ATOM      5  C   LIG    1       -4.615  -0.196   1.562  0.00  0.00    +0.060 A 
ATOM      6  C   LIG    1       -5.921  -0.619   1.467  0.00  0.00    +0.010 A 
ENDROOT
BRANCH   4   7
ATOM      7  C   LIG    1       -2.789   1.377   0.934  0.00  0.00    +0.560 C 
ATOM      8  N   LIG    1       -1.923   0.728   1.737  0.00  0.00    -0.720 N 
ATOM      9  H   LIG    1       -2.219  -0.042   2.248  0.00  0.00    +0.410 HD
ATOM     10  O   LIG    1       -2.418   2.342   0.294  0.00  0.00    -0.510 OA
BRANCH   8  11
ATOM     11  C   LIG    1       -0.535   1.185   1.839  0.00  0.00    +0.250 C 
BRANCH  11  12
ATOM     12  C   LIG    1        0.288   0.574   0.703  0.00  0.00    +0.430 C 
ATOM     13  F   LIG    1       -0.246   0.974  -0.526  0.00  0.00    -0.170 F 
ATOM     14  F   LIG    1        1.613   1.010   0.800  0.00  0.00    -0.180 F 
ATOM     15  F   LIG    1        0.248  -0.822   0.797  0.00  0.00    -0.180 F 
ENDBRANCH  11  12
BRANCH  11  16
ATOM     16  C   LIG    1        0.048   0.748   3.184  0.00  0.00    +0.070 C 
BRANCH  16  17
ATOM     17  C   LIG    1       -0.672   1.482   4.316  0.00  0.00    -0.060 C 
ATOM     18  C   LIG    1       -0.613   2.990   4.064  0.00  0.00    +0.030 C 
ATOM     19  C   LIG    1        0.009   1.161   5.648  0.00  0.00    +0.040 C 
ATOM     20  C   LIG    1       -2.133   1.031   4.368  0.00  0.00    +0.030 C 
ENDBRANCH  16  17
ENDBRANCH  11  16
ENDBRANCH   8  11
ENDBRANCH   4   7
BRANCH   1  21
ATOM     21  O   LIG    1       -8.099  -0.372   0.544  0.00  0.00    -0.260 OA
BRANCH  21  25
ATOM     22  C   LIG    1       -9.258  -2.288  -2.920  0.00  0.00    -0.110 A 
ATOM     23  C   LIG    1      -10.195  -1.995  -1.947  0.00  0.00    +0.050 A 
ATOM     24  C   LIG    1       -9.810  -1.353  -0.786  0.00  0.00    -0.010 A 
ATOM     25  C   LIG    1       -8.480  -1.003  -0.597  0.00  0.00    +0.110 A 
ATOM     26  C   LIG    1       -7.543  -1.294  -1.577  0.00  0.00    -0.060 A 
ATOM     27  C   LIG    1       -7.932  -1.940  -2.734  0.00  0.00    +0.050 A 
BRANCH  22  28
ATOM     28  C   LIG    1       -9.681  -2.989  -4.186  0.00  0.00    +0.060 C 
BRANCH  28  30
ATOM     29  C   LIG    1      -10.502  -2.660  -6.523  0.00  0.00    +0.010 C 
ATOM     30  C   LIG    1      -10.072  -1.949  -5.238  0.00  0.00    +0.000 C 
ENDBRANCH  28  30
ENDBRANCH  22  28
ENDBRANCH  21  25
ENDBRANCH   1  21
TORSDOF 9
