REMARK  Name = ZINCkj00000GeTGN.0
REMARK                            x       y       z     vdW  Elec       q    Type
REMARK                         _______ _______ _______ _____ _____    ______ ____
ROOT
ATOM      1  C   LIG    1       -1.174   1.691   0.831  0.00  0.00    +0.150 C 
ATOM      2  C   LIG    1       -0.491   1.266  -0.466  0.00  0.00    +0.040 C 
ATOM      3  C   LIG    1       -1.103   2.016  -1.623  0.00  0.00    +0.040 C 
ATOM      4  C   LIG    1       -0.314   3.310  -1.891  0.00  0.00    +0.260 C 
ATOM      5  N   LIG    1        0.086   3.987  -0.642  0.00  0.00    -0.600 N 
ATOM      6  C   LIG    1       -0.800   4.119   0.493  0.00  0.00    +0.290 C 
ATOM      7  C   LIG    1        1.328   4.504  -0.556  0.00  0.00    +0.510 C 
ATOM      8  O   LIG    1        1.650   5.149   0.420  0.00  0.00    -0.520 OA
ATOM      9  C   LIG    1       -0.614   2.908   1.440  0.00  0.00    -0.010 C 
ENDROOT
BRANCH   7  10
ATOM     10  C   LIG    1        2.316   4.281  -1.671  0.00  0.00    +0.170 C 
ATOM     11  C   LIG    1        2.777   2.807  -1.695  0.00  0.00    +0.040 C 
ATOM     12  C   LIG    1        4.273   2.888  -2.075  0.00  0.00    +0.050 C 
ATOM     13  C   LIG    1        4.538   4.401  -2.236  0.00  0.00    +0.140 C 
ATOM     14  O   LIG    1        3.521   5.041  -1.435  0.00  0.00    -0.350 OA
BRANCH  13  15
ATOM     15  C   LIG    1        5.931   4.757  -1.712  0.00  0.00    +0.290 C 
BRANCH  15  16
ATOM     16  N   LIG    1        6.162   6.198  -1.875  0.00  0.00    -0.640 N 
ATOM     17  H   LIG    1        6.098   6.441  -2.853  0.00  0.00    +0.430 HD
ATOM     18  H   LIG    1        7.080   6.433  -1.530  0.00  0.00    +0.440 HD
ATOM     19  H   LIG    1        5.466   6.711  -1.355  0.00  0.00    +0.440 HD
ENDBRANCH  15  16
ENDBRANCH  13  15
ENDBRANCH   7  10
BRANCH   1  20
ATOM     20  O   LIG    1       -1.067   0.621   1.772  0.00  0.00    -0.390 OA
BRANCH  20  21
ATOM     21  C   LIG    1       -2.150   0.555   2.702  0.00  0.00    +0.160 C 
BRANCH  21  23
ATOM     22  C   LIG    1       -3.092  -0.692   4.651  0.00  0.00    +0.030 C 
ATOM     23  C   LIG    1       -1.932  -0.621   3.655  0.00  0.00    +0.020 C 
ENDBRANCH  21  23
ENDBRANCH  20  21
ENDBRANCH   1  20
TORSDOF 6
