REMARK  Name = ZINCrH000004slGh.0
REMARK                            x       y       z     vdW  Elec       q    Type
REMARK                         _______ _______ _______ _____ _____    ______ ____
ROOT
ATOM      1  C   LIG    1       -2.445  -5.074  -1.629  0.00  0.00    +0.590 C 
ATOM      2  N   LIG    1       -2.483  -3.730  -1.537  0.00  0.00    -0.720 N 
ATOM      3  H   LIG    1       -3.151  -3.229  -2.029  0.00  0.00    +0.400 HD
ATOM      4  O   LIG    1       -1.606  -5.704  -1.012  0.00  0.00    -0.520 OA
ENDROOT
BRANCH   1   9
ATOM      5  C   LIG    1       -4.560  -7.374  -3.539  0.00  0.00    -0.120 A 
ATOM      6  C   LIG    1       -5.104  -6.166  -3.866  0.00  0.00    +0.240 A 
ATOM      7  N   LIG    1       -4.413  -5.194  -3.222  0.00  0.00    -0.540 N 
ATOM      8  H   LIG    1       -4.591  -4.242  -3.279  0.00  0.00    +0.420 HD
ATOM      9  C   LIG    1       -3.417  -5.779  -2.474  0.00  0.00    -0.060 A 
ATOM     10  C   LIG    1       -3.487  -7.131  -2.660  0.00  0.00    +0.100 A 
BRANCH   5  14
ATOM     11  C   LIG    1       -4.520 -12.319  -3.719  0.00  0.00    +0.180 C 
ATOM     12  C   LIG    1       -4.977 -10.931  -4.088  0.00  0.00    +0.060 A 
ATOM     13  N   LIG    1       -4.499  -9.843  -3.590  0.00  0.00    -0.470 NA
ATOM     14  C   LIG    1       -5.013  -8.703  -4.025  0.00  0.00    +0.150 A 
ATOM     15  C   LIG    1       -5.988  -8.853  -4.942  0.00  0.00    -0.090 A 
ATOM     16  S   LIG    1       -6.203 -10.579  -5.226  0.00  0.00    +0.120 S 
ENDBRANCH   5  14
ENDBRANCH   1   9
BRANCH   2  17
ATOM     17  C   LIG    1       -1.513  -3.027  -0.694  0.00  0.00    +0.240 C 
ATOM     18  C   LIG    1       -2.071  -2.835   0.741  0.00  0.00    +0.030 C 
ATOM     19  C   LIG    1       -1.298  -1.578   1.212  0.00  0.00    +0.190 C 
ATOM     20  N   LIG    1       -1.200  -0.722   0.010  0.00  0.00    -0.480 N 
ATOM     21  C   LIG    1       -1.312  -1.578  -1.185  0.00  0.00    +0.200 C 
BRANCH  20  22
ATOM     22  C   LIG    1        0.002  -0.004   0.002  0.00  0.00    +0.010 A 
ATOM     23  C   LIG    1       -0.017   1.386   0.010  0.00  0.00    +0.160 A 
ATOM     24  C   LIG    1        1.173   2.092   0.002  0.00  0.00    -0.010 A 
ATOM     25  C   LIG    1        2.379   1.417  -0.013  0.00  0.00    +0.090 A 
ATOM     26  C   LIG    1        2.402   0.034  -0.021  0.00  0.00    -0.020 A 
ATOM     27  F   LIG    1       -1.195   2.046   0.019  0.00  0.00    -0.120 F 
ATOM     28  C   LIG    1        1.217  -0.679  -0.013  0.00  0.00    +0.100 A 
ATOM     29  F   LIG    1        1.240  -2.030  -0.021  0.00  0.00    -0.130 F 
ENDBRANCH  20  22
ENDBRANCH   2  17
TORSDOF 4
