REMARK  Name = ZINCrH000004miUb.1
REMARK                            x       y       z     vdW  Elec       q    Type
REMARK                         _______ _______ _______ _____ _____    ______ ____
ROOT
ATOM      1  C   LIG    1       -1.333   2.112   0.020  0.00  0.00    +0.220 C 
ATOM      2  C   LIG    1       -1.791   2.357  -1.419  0.00  0.00    +0.010 C 
ENDROOT
BRANCH   1   5
ATOM      3  C   LIG    1        1.223  -0.664   0.206  0.00  0.00    +0.100 A 
ATOM      4  C   LIG    1        0.014   0.012   0.221  0.00  0.00    -0.040 A 
ATOM      5  C   LIG    1       -0.017   1.379   0.010  0.00  0.00    -0.070 A 
ATOM      6  C   LIG    1        1.157   2.073  -0.215  0.00  0.00    +0.030 A 
ATOM      7  C   LIG    1        2.367   1.404  -0.231  0.00  0.00    -0.040 A 
ATOM      8  C   LIG    1        2.405   0.035  -0.021  0.00  0.00    +0.100 A 
BRANCH   3  10
ATOM      9  C   LIG    1        0.003  -2.659   0.641  0.00  0.00    +0.230 C 
ATOM     10  O   LIG    1        1.255  -2.007   0.414  0.00  0.00    -0.310 OA
ENDBRANCH   3  10
BRANCH   8  11
ATOM     11  O   LIG    1        3.594  -0.624  -0.035  0.00  0.00    -0.300 OA
BRANCH  11  12
ATOM     12  C   LIG    1        4.776   0.171  -0.153  0.00  0.00    +0.150 C 
ATOM     13  C   LIG    1        5.053   0.457  -1.630  0.00  0.00    +0.020 C 
ATOM     14  C   LIG    1        5.961  -0.584   0.452  0.00  0.00    +0.060 C 
ENDBRANCH  11  12
ENDBRANCH   8  11
ENDBRANCH   1   5
BRANCH   1  15
ATOM     15  N   LIG    1       -1.172   3.400   0.708  0.00  0.00    -0.680 NA
ATOM     16  H   LIG    1       -0.771   4.091   0.092  0.00  0.00    +0.340 HD
BRANCH  15  17
ATOM     17  C   LIG    1       -2.451   3.865   1.261  0.00  0.00    +0.250 C 
BRANCH  17  18
ATOM     18  C   LIG    1       -2.246   5.185   1.958  0.00  0.00    -0.220 A 
ATOM     19  C   LIG    1       -1.923   5.232   3.305  0.00  0.00    +0.370 A 
ATOM     20  N   LIG    1       -1.746   6.407   3.886  0.00  0.00    -0.550 NA
ATOM     21  C   LIG    1       -1.883   7.531   3.196  0.00  0.00    +0.490 A 
ATOM     22  N   LIG    1       -2.195   7.521   1.909  0.00  0.00    -0.520 NA
ATOM     23  C   LIG    1       -2.381   6.379   1.267  0.00  0.00    +0.350 A 
BRANCH  21  24
ATOM     24  N   LIG    1       -1.695   8.743   3.837  0.00  0.00    -0.450 N 
ATOM     25  C   LIG    1       -2.943   9.549   3.827  0.00  0.00    +0.200 C 
ATOM     26  C   LIG    1       -2.723  10.557   4.983  0.00  0.00    +0.030 C 
ATOM     27  C   LIG    1       -1.985   9.710   6.045  0.00  0.00    +0.020 C 
ATOM     28  C   LIG    1       -1.355   8.543   5.262  0.00  0.00    +0.220 C 
ENDBRANCH  21  24
ENDBRANCH  17  18
ENDBRANCH  15  17
ENDBRANCH   1  15
TORSDOF 8
