REMARK  Name = ZINCqH00000n3jM0.0
REMARK                            x       y       z     vdW  Elec       q    Type
REMARK                         _______ _______ _______ _____ _____    ______ ____
ROOT
ATOM      1  C   LIG    1        1.165   3.169   0.007  0.00  0.00    -0.120 A 
ATOM      2  C   LIG    1       -0.035   3.850   0.022  0.00  0.00    +0.070 A 
ATOM      3  C   LIG    1       -1.235   3.142   0.030  0.00  0.00    -0.070 A 
ATOM      4  C   LIG    1       -1.218   1.748   0.017  0.00  0.00    +0.080 A 
ATOM      5  C   LIG    1       -0.013   1.076   0.008  0.00  0.00    -0.020 A 
ATOM      6  C   LIG    1        1.178   1.784   0.000  0.00  0.00    +0.140 A 
ATOM      7  F   LIG    1        2.356   1.121  -0.014  0.00  0.00    -0.120 F 
ENDROOT
BRANCH   3   8
ATOM      8  C   LIG    1       -2.528   3.869   0.045  0.00  0.00    -0.050 A 
ATOM      9  C   LIG    1       -3.526   3.541  -0.870  0.00  0.00    +0.050 A 
ATOM     10  C   LIG    1       -4.728   4.220  -0.852  0.00  0.00    +0.050 A 
ATOM     11  C   LIG    1       -4.945   5.225   0.073  0.00  0.00    +0.030 A 
ATOM     12  C   LIG    1       -3.958   5.558   0.986  0.00  0.00    +0.070 A 
ATOM     13  F   LIG    1       -4.176   6.541   1.887  0.00  0.00    -0.130 F 
ATOM     14  C   LIG    1       -2.751   4.880   0.981  0.00  0.00    +0.080 A 
ATOM     15  F   LIG    1       -1.790   5.200   1.875  0.00  0.00    -0.120 F 
ENDBRANCH   3   8
BRANCH   1  16
ATOM     16  C   LIG    1        2.464   3.934  -0.001  0.00  0.00    +0.240 C 
BRANCH  16  17
ATOM     17  N   LIG    1        3.080   3.867   1.331  0.00  0.00    -0.650 NA
ATOM     18  H   LIG    1        2.448   4.209   2.039  0.00  0.00    +0.350 HD
BRANCH  17  20
ATOM     19  C   LIG    1        4.077   6.084   1.633  0.00  0.00    +0.030 C 
ATOM     20  C   LIG    1        4.351   4.603   1.360  0.00  0.00    +0.250 C 
BRANCH  20  21
ATOM     21  C   LIG    1        5.229   4.046   2.451  0.00  0.00    +0.400 A 
ATOM     22  N   LIG    1        4.830   2.996   3.118  0.00  0.00    -0.500 NA
ATOM     23  C   LIG    1        5.574   2.462   4.089  0.00  0.00    +0.320 A 
ATOM     24  C   LIG    1        6.774   3.020   4.410  0.00  0.00    -0.130 A 
ATOM     25  C   LIG    1        7.203   4.156   3.693  0.00  0.00    +0.520 A 
ATOM     26  O   LIG    1        8.271   4.687   3.948  0.00  0.00    -0.540 OA
ATOM     27  N   LIG    1        6.406   4.644   2.719  0.00  0.00    -0.630 N 
ATOM     28  H   LIG    1        6.680   5.425   2.213  0.00  0.00    +0.410 HD
ENDBRANCH  20  21
ENDBRANCH  17  20
ENDBRANCH  16  17
ENDBRANCH   1  16
TORSDOF 5
