REMARK  Name = ZINCrD000000BdQd.0
REMARK                            x       y       z     vdW  Elec       q    Type
REMARK                         _______ _______ _______ _____ _____    ______ ____
ROOT
ATOM      1  O   LIG    1       -2.275   5.575   0.468  0.00  0.00    -0.570 OA
ATOM      2  C   LIG    1       -1.240   6.158   0.208  0.00  0.00    +0.710 C 
ATOM      3  N   LIG    1       -0.105   5.458   0.010  0.00  0.00    -0.680 N 
ATOM      4  H   LIG    1        0.736   5.925  -0.116  0.00  0.00    +0.410 HD
ATOM      5  N   LIG    1       -1.228   7.502   0.117  0.00  0.00    -0.740 N 
ATOM      6  H   LIG    1       -0.402   7.967  -0.091  0.00  0.00    +0.400 HD
ENDROOT
BRANCH   3   7
ATOM      7  C   LIG    1       -0.140   4.060  -0.013  0.00  0.00    +0.180 A 
ATOM      8  C   LIG    1        0.928   3.329   0.490  0.00  0.00    -0.010 A 
ATOM      9  C   LIG    1        0.892   1.948   0.471  0.00  0.00    +0.050 A 
ATOM     10  C   LIG    1       -0.202   1.290  -0.058  0.00  0.00    +0.010 A 
ATOM     11  C   LIG    1       -1.273   2.016  -0.562  0.00  0.00    +0.110 A 
ATOM     12  C   LIG    1       -1.242   3.401  -0.540  0.00  0.00    +0.030 A 
BRANCH  11  13
ATOM     13  O   LIG    1       -2.351   1.367  -1.077  0.00  0.00    -0.230 OA
BRANCH  13  14
ATOM     14  C   LIG    1       -3.112   0.629  -0.234  0.00  0.00    +0.500 A 
ATOM     15  N   LIG    1       -2.726   0.482   1.023  0.00  0.00    -0.550 NA
ATOM     16  C   LIG    1       -3.449  -0.228   1.874  0.00  0.00    +0.360 A 
ATOM     17  C   LIG    1       -4.616  -0.829   1.431  0.00  0.00    -0.110 A 
ATOM     18  C   LIG    1       -4.988  -0.658   0.107  0.00  0.00    +0.370 A 
ATOM     19  N   LIG    1       -4.221   0.069  -0.690  0.00  0.00    -0.520 NA
ENDBRANCH  13  14
ENDBRANCH  11  13
ENDBRANCH   3   7
BRANCH   5  20
ATOM     20  C   LIG    1       -2.462   8.262   0.332  0.00  0.00    +0.310 C 
BRANCH  20  21
ATOM     21  C   LIG    1       -2.174   9.757   0.172  0.00  0.00    +0.170 C 
ATOM     22  C   LIG    1       -3.445  10.592   0.455  0.00  0.00    +0.100 C 
ATOM     23  C   LIG    1       -3.310  11.715  -0.559  0.00  0.00    -0.170 A 
ATOM     24  C   LIG    1       -3.930  12.940  -0.669  0.00  0.00    +0.060 A 
ATOM     25  C   LIG    1       -3.593  13.796  -1.704  0.00  0.00    -0.020 A 
ATOM     26  C   LIG    1       -2.633  13.416  -2.623  0.00  0.00    +0.050 A 
ATOM     27  C   LIG    1       -2.013  12.188  -2.517  0.00  0.00    -0.010 A 
ATOM     28  C   LIG    1       -2.350  11.319  -1.482  0.00  0.00    +0.100 A 
ATOM     29  O   LIG    1       -1.877  10.075  -1.198  0.00  0.00    -0.300 OA
ENDBRANCH  20  21
ENDBRANCH   5  20
TORSDOF 5
