REMARK  Name = ZINCvU000000048E.0
REMARK                            x       y       z     vdW  Elec       q    Type
REMARK                         _______ _______ _______ _____ _____    ______ ____
ROOT
ATOM      1  N   LIG    1       -1.801   5.455   0.047  0.00  0.00    -0.670 N 
ATOM      2  H   LIG    1       -0.876   5.743  -0.009  0.00  0.00    +0.410 HD
ATOM      3  C   LIG    1       -2.093   4.150   0.213  0.00  0.00    +0.600 C 
ATOM      4  O   LIG    1       -3.247   3.801   0.380  0.00  0.00    -0.500 OA
ENDROOT
BRANCH   1   8
ATOM      5  C   LIG    1       -4.873   8.258  -0.225  0.00  0.00    -0.040 A 
ATOM      6  C   LIG    1       -3.661   8.605   0.376  0.00  0.00    +0.110 A 
ATOM      7  C   LIG    1       -2.647   7.676   0.464  0.00  0.00    -0.010 A 
ATOM      8  C   LIG    1       -2.830   6.394  -0.044  0.00  0.00    +0.180 A 
ATOM      9  C   LIG    1       -4.035   6.048  -0.647  0.00  0.00    +0.030 A 
ATOM     10  C   LIG    1       -5.054   6.970  -0.734  0.00  0.00    +0.080 A 
BRANCH   5  14
ATOM     11  C   LIG    1       -7.844  10.216  -0.740  0.00  0.00    +0.170 A 
ATOM     12  N   LIG    1       -7.053  11.060  -0.139  0.00  0.00    -0.280 NA
ATOM     13  N   LIG    1       -5.930  10.488   0.119  0.00  0.00    -0.280 NA
ATOM     14  C   LIG    1       -5.963   9.252  -0.320  0.00  0.00    +0.210 A 
ATOM     15  O   LIG    1       -7.178   9.056  -0.871  0.00  0.00    -0.220 OA
BRANCH  11  17
ATOM     16  C   LIG    1       -9.217  11.021  -2.642  0.00  0.00    +0.060 C 
ATOM     17  C   LIG    1       -9.250  10.492  -1.207  0.00  0.00    +0.180 C 
ENDBRANCH  11  17
ENDBRANCH   5  14
ENDBRANCH   1   8
BRANCH   3  18
ATOM     18  C   LIG    1       -1.022   3.153   0.193  0.00  0.00    -0.270 A 
ATOM     19  C   LIG    1       -1.197   1.806   0.345  0.00  0.00    +0.120 A 
ATOM     20  C   LIG    1       -0.045   1.069   0.294  0.00  0.00    +0.020 A 
ATOM     21  C   LIG    1        1.091   1.798   0.090  0.00  0.00    -0.100 A 
ATOM     22  S   LIG    1        0.686   3.504  -0.038  0.00  0.00    +0.170 S 
BRANCH  21  23
ATOM     23  C   LIG    1        2.454   1.238  -0.007  0.00  0.00    -0.030 A 
ATOM     24  C   LIG    1        2.657  -0.137   0.117  0.00  0.00    +0.050 A 
ATOM     25  C   LIG    1        3.930  -0.657   0.021  0.00  0.00    +0.030 A 
ATOM     26  C   LIG    1        5.016   0.183  -0.188  0.00  0.00    +0.060 A 
ATOM     27  O   LIG    1        6.264  -0.352  -0.271  0.00  0.00    -0.300 OA
ATOM     28  C   LIG    1        7.279   0.471  -0.857  0.00  0.00    +0.230 C 
ATOM     29  C   LIG    1        7.177   1.872  -0.239  0.00  0.00    +0.230 C 
ATOM     30  O   LIG    1        5.874   2.393  -0.523  0.00  0.00    -0.310 OA
ATOM     31  C   LIG    1        4.821   1.556  -0.309  0.00  0.00    +0.060 A 
ATOM     32  C   LIG    1        3.545   2.084  -0.218  0.00  0.00    +0.040 A 
ENDBRANCH  21  23
ENDBRANCH   3  18
TORSDOF 5
