REMARK  Name = ZINCrH000004mFax.0
REMARK                            x       y       z     vdW  Elec       q    Type
REMARK                         _______ _______ _______ _____ _____    ______ ____
ROOT
ATOM      1  N   LIG    1       -4.775   4.138   0.072  0.00  0.00    -0.740 N 
ATOM      2  H   LIG    1       -4.647   5.088  -0.076  0.00  0.00    +0.400 HD
ATOM      3  C   LIG    1       -3.708   3.319   0.162  0.00  0.00    +0.700 C 
ATOM      4  N   LIG    1       -2.462   3.821   0.046  0.00  0.00    -0.690 N 
ATOM      5  H   LIG    1       -2.330   4.779  -0.021  0.00  0.00    +0.410 HD
ATOM      6  O   LIG    1       -3.869   2.128   0.348  0.00  0.00    -0.570 OA
ENDROOT
BRANCH   4   7
ATOM      7  C   LIG    1       -1.358   2.957   0.023  0.00  0.00    +0.170 A 
ATOM      8  C   LIG    1       -0.161   3.346   0.608  0.00  0.00    +0.000 A 
ATOM      9  C   LIG    1        0.929   2.498   0.580  0.00  0.00    +0.020 A 
ATOM     10  C   LIG    1        0.825   1.252  -0.022  0.00  0.00    +0.050 A 
ATOM     11  C   LIG    1       -0.376   0.860  -0.604  0.00  0.00    +0.110 A 
ATOM     12  F   LIG    1       -0.479  -0.353  -1.191  0.00  0.00    -0.130 F 
ATOM     13  C   LIG    1       -1.465   1.711  -0.581  0.00  0.00    +0.010 A 
BRANCH  10  14
ATOM     14  N   LIG    1        1.929   0.390  -0.045  0.00  0.00    -0.470 N 
ATOM     15  C   LIG    1        3.112   1.024   0.590  0.00  0.00    +0.180 C 
ATOM     16  C   LIG    1        4.013  -0.185   0.949  0.00  0.00    +0.040 C 
ATOM     17  C   LIG    1        2.991  -1.260   1.386  0.00  0.00    +0.020 C 
ATOM     18  C   LIG    1        1.660  -0.836   0.737  0.00  0.00    +0.180 C 
ENDBRANCH  10  14
ENDBRANCH   4   7
BRANCH   1  19
ATOM     19  C   LIG    1       -6.129   3.592   0.198  0.00  0.00    +0.340 C 
BRANCH  19  23
ATOM     20  C   LIG    1       -8.982   6.755  -0.185  0.00  0.00    +0.110 A 
ATOM     21  C   LIG    1       -8.479   6.419   1.061  0.00  0.00    -0.040 A 
ATOM     22  C   LIG    1       -7.561   5.393   1.182  0.00  0.00    +0.040 A 
ATOM     23  C   LIG    1       -7.134   4.707   0.061  0.00  0.00    -0.110 A 
ATOM     24  C   LIG    1       -7.632   5.037  -1.186  0.00  0.00    -0.010 A 
ATOM     25  C   LIG    1       -8.556   6.061  -1.314  0.00  0.00    +0.100 A 
BRANCH  20  27
ATOM     26  C   LIG    1      -10.280   8.429   0.896  0.00  0.00    +0.240 C 
ATOM     27  O   LIG    1       -9.889   7.761  -0.305  0.00  0.00    -0.310 OA
ENDBRANCH  20  27
BRANCH  25  28
ATOM     28  O   LIG    1       -9.047   6.387  -2.540  0.00  0.00    -0.310 OA
ATOM     29  C   LIG    1       -8.565   5.633  -3.653  0.00  0.00    +0.240 C 
ENDBRANCH  25  28
ENDBRANCH  19  23
ENDBRANCH   1  19
TORSDOF 6
