REMARK  Name = ZINCtV00001bB3Bh.0
REMARK                            x       y       z     vdW  Elec       q    Type
REMARK                         _______ _______ _______ _____ _____    ______ ____
ROOT
ATOM      1  N   LIG    1       -2.491   8.926  -0.246  0.00  0.00    -0.510 NA
ATOM      2  C   LIG    1       -1.410   8.180  -0.126  0.00  0.00    +0.390 A 
ATOM      3  S   LIG    1        0.271   8.731   0.006  0.00  0.00    -0.000 S 
ATOM      4  C   LIG    1        0.949   7.097   0.118  0.00  0.00    -0.040 A 
ATOM      5  C   LIG    1       -0.096   6.265   0.051  0.00  0.00    +0.150 A 
ATOM      6  N   LIG    1       -1.342   6.817  -0.082  0.00  0.00    -0.500 N 
ENDROOT
BRANCH   5   7
ATOM      7  C   LIG    1        0.088   4.798   0.114  0.00  0.00    -0.040 A 
ATOM      8  C   LIG    1       -0.448   3.982  -0.883  0.00  0.00    +0.050 A 
ATOM      9  C   LIG    1       -0.273   2.615  -0.820  0.00  0.00    +0.030 A 
ATOM     10  C   LIG    1        0.434   2.053   0.229  0.00  0.00    -0.020 A 
ATOM     11  C   LIG    1        0.965   2.857   1.224  0.00  0.00    +0.030 A 
ATOM     12 CL   LIG    1        0.651   0.332   0.302  0.00  0.00    -0.060 Cl
ATOM     13  C   LIG    1        0.799   4.226   1.169  0.00  0.00    +0.060 A 
ENDBRANCH   5   7
BRANCH   1  17
ATOM     14  C   LIG    1       -2.159  13.052  -0.347  0.00  0.00    +0.120 A 
ATOM     15  C   LIG    1       -2.983  12.402  -1.255  0.00  0.00    +0.010 A 
ATOM     16  C   LIG    1       -3.097  11.027  -1.225  0.00  0.00    +0.070 A 
ATOM     17  C   LIG    1       -2.381  10.290  -0.280  0.00  0.00    +0.080 A 
ATOM     18  C   LIG    1       -1.557  10.949   0.635  0.00  0.00    +0.010 A 
ATOM     19  C   LIG    1       -1.445  12.323   0.594  0.00  0.00    -0.050 A 
BRANCH  14  21
ATOM     20  C   LIG    1       -1.183  15.012   0.582  0.00  0.00    +0.250 C 
ATOM     21  O   LIG    1       -2.049  14.407  -0.381  0.00  0.00    -0.320 OA
ENDBRANCH  14  21
ENDBRANCH   1  17
BRANCH   6  22
ATOM     22  C   LIG    1       -2.545   5.985  -0.170  0.00  0.00    +0.360 C 
BRANCH  22  23
ATOM     23  C   LIG    1       -3.162   5.849   1.199  0.00  0.00    -0.110 A 
ATOM     24  C   LIG    1       -2.819   4.782   2.008  0.00  0.00    +0.040 A 
ATOM     25  C   LIG    1       -3.381   4.659   3.265  0.00  0.00    +0.020 A 
ATOM     26  C   LIG    1       -4.295   5.598   3.708  0.00  0.00    -0.020 A 
ATOM     27  C   LIG    1       -4.642   6.663   2.896  0.00  0.00    +0.020 A 
ATOM     28 CL   LIG    1       -5.007   5.441   5.284  0.00  0.00    -0.070 Cl
ATOM     29  C   LIG    1       -4.075   6.788   1.641  0.00  0.00    +0.070 A 
ENDBRANCH  22  23
ENDBRANCH   6  22
TORSDOF 5
