REMARK  Name = ZINCrg000000tSJY.0
REMARK                            x       y       z     vdW  Elec       q    Type
REMARK                         _______ _______ _______ _____ _____    ______ ____
ROOT
ATOM      1  C   LIG    1        0.002  -0.004   0.002  0.00  0.00    +0.180 A 
ATOM      2  N   LIG    1        1.247  -0.376  -0.012  0.00  0.00    -0.370 NA
ATOM      3  O   LIG    1        1.975   0.594  -0.014  0.00  0.00    +0.100 OA
ATOM      4  C   LIG    1        1.242   1.711  -0.001  0.00  0.00    +0.150 A 
ATOM      5  N   LIG    1       -0.016   1.341   0.009  0.00  0.00    -0.440 NA
ENDROOT
BRANCH   1   9
ATOM      6  O   LIG    1       -2.161  -4.056  -1.401  0.00  0.00    -0.520 OA
ATOM      7  C   LIG    1       -1.740  -3.154  -0.708  0.00  0.00    +0.520 C 
ATOM      8  C   LIG    1       -1.199  -1.841  -1.229  0.00  0.00    +0.070 C 
ATOM      9  C   LIG    1       -1.200  -0.912   0.008  0.00  0.00    +0.120 C 
ATOM     10  C   LIG    1       -1.118  -1.931   1.167  0.00  0.00    +0.280 C 
ATOM     11  N   LIG    1       -1.688  -3.175   0.635  0.00  0.00    -0.620 N 
BRANCH  11  12
ATOM     12  C   LIG    1       -2.142  -4.296   1.463  0.00  0.00    +0.310 C 
BRANCH  12  13
ATOM     13  C   LIG    1       -0.980  -5.265   1.690  0.00  0.00    -0.040 C 
ATOM     14  C   LIG    1       -0.841  -6.328   0.587  0.00  0.00    +0.020 C 
ATOM     15  C   LIG    1       -0.520  -7.333   1.706  0.00  0.00    +0.010 C 
ATOM     16  C   LIG    1       -1.319  -6.418   2.649  0.00  0.00    +0.020 C 
ENDBRANCH  12  13
ENDBRANCH  11  12
ENDBRANCH   1   9
BRANCH   4  17
ATOM     17  C   LIG    1        1.761   3.126   0.001  0.00  0.00    +0.550 C 
BRANCH  17  18
ATOM     18  N   LIG    1        1.942   3.577   1.383  0.00  0.00    -0.440 N 
ATOM     19  N   LIG    1        0.985   4.228   2.174  0.00  0.00    -0.280 NA
ATOM     20  C   LIG    1        1.525   4.466   3.346  0.00  0.00    +0.300 A 
ATOM     21  C   LIG    1        1.019   5.088   4.516  0.00  0.00    +0.030 A 
ATOM     22  C   LIG    1        1.818   5.206   5.604  0.00  0.00    +0.110 A 
ATOM     23  C   LIG    1        3.138   4.711   5.562  0.00  0.00    -0.020 A 
ATOM     24  C   LIG    1        3.613   4.121   4.452  0.00  0.00    +0.300 A 
ATOM     25  N   LIG    1        2.823   3.990   3.334  0.00  0.00    -0.480 N 
ATOM     26  C   LIG    1        3.062   3.448   2.123  0.00  0.00    +0.650 A 
ATOM     27  O   LIG    1        4.106   2.933   1.761  0.00  0.00    -0.520 OA
ENDBRANCH  17  18
ENDBRANCH   4  17
TORSDOF 5
