REMARK  Name = ZINCpe00000c2q4u.0
REMARK                            x       y       z     vdW  Elec       q    Type
REMARK                         _______ _______ _______ _____ _____    ______ ____
ROOT
ATOM      1  C   LIG    1        2.502   1.489  -0.013  0.00  0.00    +0.600 C 
ATOM      2  N   LIG    1        2.819   0.182   0.079  0.00  0.00    -0.610 N 
ATOM      3  C   LIG    1        1.767  -0.844   0.085  0.00  0.00    +0.260 C 
ATOM      4  C   LIG    1        2.073  -1.870  -1.012  0.00  0.00    +0.020 C 
ATOM      5  C   LIG    1        3.488  -2.418  -0.811  0.00  0.00    -0.010 C 
ATOM      6  C   LIG    1        4.500  -1.276  -0.922  0.00  0.00    -0.010 C 
ATOM      7  C   LIG    1        4.371  -0.611  -2.294  0.00  0.00    +0.030 C 
ATOM      8  C   LIG    1        4.222  -0.244   0.169  0.00  0.00    +0.290 C 
ATOM      9  O   LIG    1        3.382   2.322  -0.118  0.00  0.00    -0.530 OA
ENDROOT
BRANCH   1  16
ATOM     10  C   LIG    1        1.204   3.753  -1.819  0.00  0.00    +0.160 C 
ATOM     11  C   LIG    1        0.498   2.914  -0.784  0.00  0.00    +0.130 A 
ATOM     12  N   LIG    1       -0.765   2.989  -0.468  0.00  0.00    -0.290 NA
ATOM     13  N   LIG    1       -1.040   2.046   0.528  0.00  0.00    -0.460 N 
ATOM     14  H   LIG    1       -1.905   1.891   0.940  0.00  0.00    +0.450 HD
ATOM     15  C   LIG    1        0.096   1.393   0.822  0.00  0.00    +0.290 A 
ATOM     16  C   LIG    1        1.089   1.909   0.013  0.00  0.00    -0.290 A 
ENDBRANCH   1  16
BRANCH   5  17
ATOM     17  C   LIG    1        3.784  -3.468  -1.884  0.00  0.00    +0.260 C 
BRANCH  17  18
ATOM     18  N   LIG    1        2.893  -4.617  -1.703  0.00  0.00    -0.730 N 
ATOM     19  H   LIG    1        2.245  -4.619  -0.981  0.00  0.00    +0.400 HD
ATOM     20  C   LIG    1        2.975  -5.671  -2.539  0.00  0.00    +0.510 C 
ATOM     21  O   LIG    1        3.785  -5.668  -3.441  0.00  0.00    -0.530 OA
BRANCH  20  22
ATOM     22  C   LIG    1        2.058  -6.853  -2.352  0.00  0.00    +0.140 C 
BRANCH  22  23
ATOM     23  C   LIG    1        2.350  -7.886  -3.409  0.00  0.00    -0.230 A 
ATOM     24  C   LIG    1        1.764  -7.969  -4.625  0.00  0.00    +0.240 A 
ATOM     25  N   LIG    1        2.301  -9.026  -5.270  0.00  0.00    -0.480 N 
ATOM     26  H   LIG    1        2.073  -9.325  -6.164  0.00  0.00    +0.440 HD
ATOM     27  N   LIG    1        3.243  -9.618  -4.418  0.00  0.00    -0.290 NA
ATOM     28  C   LIG    1        3.271  -8.934  -3.303  0.00  0.00    +0.250 A 
ENDBRANCH  22  23
ENDBRANCH  20  22
ENDBRANCH  17  18
ENDBRANCH   5  17
TORSDOF 5
