REMARK  Name = ZINCrH000004qO5x.0
REMARK                            x       y       z     vdW  Elec       q    Type
REMARK                         _______ _______ _______ _____ _____    ______ ____
ROOT
ATOM      1  N   LIG    1        0.098   0.544   0.230  0.00  0.00    -0.660 N 
ATOM      2  H   LIG    1       -0.060  -0.411   0.170  0.00  0.00    +0.410 HD
ATOM      3  C   LIG    1       -0.944   1.399   0.240  0.00  0.00    +0.510 C 
ATOM      4  O   LIG    1       -0.745   2.596   0.236  0.00  0.00    -0.520 OA
ENDROOT
BRANCH   1   8
ATOM      5  C   LIG    1        4.726   0.030   1.809  0.00  0.00    +0.100 C 
ATOM      6  C   LIG    1        3.671   0.804   1.061  0.00  0.00    -0.090 A 
ATOM      7  C   LIG    1        2.379   0.324   0.995  0.00  0.00    +0.010 A 
ATOM      8  C   LIG    1        1.408   1.034   0.301  0.00  0.00    +0.120 A 
ATOM      9  C   LIG    1        1.735   2.233  -0.318  0.00  0.00    +0.040 A 
ATOM     10  C   LIG    1        3.027   2.717  -0.248  0.00  0.00    -0.020 A 
ATOM     11  C   LIG    1        3.999   2.004   0.441  0.00  0.00    +0.090 A 
BRANCH  11  12
ATOM     12  N   LIG    1        5.307   2.494   0.512  0.00  0.00    -0.470 N 
ATOM     13  C   LIG    1        5.400   3.852  -0.083  0.00  0.00    +0.180 C 
ATOM     14  C   LIG    1        6.702   4.421   0.536  0.00  0.00    +0.030 C 
ATOM     15  C   LIG    1        6.670   3.867   1.979  0.00  0.00    +0.020 C 
ATOM     16  C   LIG    1        5.744   2.638   1.918  0.00  0.00    +0.180 C 
ENDBRANCH  11  12
ENDBRANCH   1   8
BRANCH   3  17
ATOM     17  C   LIG    1       -2.354   0.870   0.255  0.00  0.00    +0.270 C 
ATOM     18  C   LIG    1       -2.591   0.014  -0.991  0.00  0.00    +0.060 C 
BRANCH  17  19
ATOM     19  N   LIG    1       -3.297   1.991   0.263  0.00  0.00    -0.730 N 
ATOM     20  H   LIG    1       -3.030   2.852  -0.095  0.00  0.00    +0.410 HD
ATOM     21  C   LIG    1       -4.535   1.827   0.770  0.00  0.00    +0.710 C 
ATOM     22  N   LIG    1       -5.403   2.858   0.777  0.00  0.00    -0.680 N 
ATOM     23  H   LIG    1       -5.166   3.694   0.345  0.00  0.00    +0.410 HD
ATOM     24  O   LIG    1       -4.870   0.748   1.219  0.00  0.00    -0.570 OA
BRANCH  22  25
ATOM     25  C   LIG    1       -6.644   2.724   1.409  0.00  0.00    +0.160 A 
ATOM     26  C   LIG    1       -7.761   3.367   0.892  0.00  0.00    -0.030 A 
ATOM     27  C   LIG    1       -8.986   3.229   1.515  0.00  0.00    +0.030 A 
ATOM     28  C   LIG    1       -9.098   2.460   2.659  0.00  0.00    -0.020 A 
ATOM     29  C   LIG    1       -7.987   1.822   3.179  0.00  0.00    +0.030 A 
ATOM     30  C   LIG    1       -6.761   1.952   2.558  0.00  0.00    +0.010 A 
ENDBRANCH  22  25
ENDBRANCH  17  19
ENDBRANCH   3  17
TORSDOF 5
