REMARK  Name = ZINCpk000000p925.1
REMARK                            x       y       z     vdW  Elec       q    Type
REMARK                         _______ _______ _______ _____ _____    ______ ____
ROOT
ATOM      1  C   LIG    1        3.411   2.400   0.594  0.00  0.00    +0.080 C 
ATOM      2  C   LIG    1        2.776   3.695   0.021  0.00  0.00    +0.050 C 
ATOM      3  C   LIG    1        1.268   3.363   0.002  0.00  0.00    +0.260 C 
ATOM      4  N   LIG    1        1.143   1.898   0.001  0.00  0.00    -0.620 N 
ATOM      5  C   LIG    1       -0.014   1.209   0.009  0.00  0.00    +0.530 C 
ATOM      6  O   LIG    1        0.002  -0.004   0.002  0.00  0.00    -0.520 OA
ATOM      7  C   LIG    1        2.495   1.309  -0.015  0.00  0.00    +0.270 C 
ENDROOT
BRANCH   1   9
ATOM      8  C   LIG    1        5.940   2.025   0.914  0.00  0.00    -0.280 A 
ATOM      9  C   LIG    1        4.832   2.239   0.119  0.00  0.00    +0.180 A 
ATOM     10  N   LIG    1        5.254   2.283  -1.155  0.00  0.00    -0.450 N 
ATOM     11  H   LIG    1        4.692   2.424  -1.933  0.00  0.00    +0.450 HD
ATOM     12  N   LIG    1        6.639   2.090  -1.171  0.00  0.00    -0.290 NA
ATOM     13  C   LIG    1        7.059   1.932   0.055  0.00  0.00    +0.310 A 
BRANCH   8  14
ATOM     14  C   LIG    1        5.955   1.911   2.383  0.00  0.00    +0.550 C 
ATOM     15  O   LIG    1        4.918   2.008   3.010  0.00  0.00    -0.520 OA
BRANCH  14  16
ATOM     16  O   LIG    1        7.117   1.701   3.031  0.00  0.00    -0.350 OA
BRANCH  16  18
ATOM     17  C   LIG    1        8.461   1.363   5.033  0.00  0.00    +0.070 C 
ATOM     18  C   LIG    1        7.055   1.600   4.478  0.00  0.00    +0.200 C 
ENDBRANCH  16  18
ENDBRANCH  14  16
ENDBRANCH   8  14
ENDBRANCH   1   9
BRANCH   5  19
ATOM     19  C   LIG    1       -1.330   1.944   0.019  0.00  0.00    +0.150 C 
BRANCH  19  20
ATOM     20  C   LIG    1       -2.462   0.950   0.019  0.00  0.00    -0.230 A 
ATOM     21  C   LIG    1       -3.068   0.434  -1.075  0.00  0.00    +0.110 A 
ATOM     22  N   LIG    1       -4.026  -0.418  -0.652  0.00  0.00    -0.470 N 
ATOM     23  H   LIG    1       -4.620  -0.935  -1.217  0.00  0.00    +0.440 HD
ATOM     24  N   LIG    1       -4.012  -0.419   0.749  0.00  0.00    -0.290 NA
ATOM     25  C   LIG    1       -2.733   0.751  -2.510  0.00  0.00    +0.130 C 
ATOM     26  C   LIG    1       -3.075   0.401   1.150  0.00  0.00    +0.100 A 
ATOM     27  C   LIG    1       -2.717   0.701   2.583  0.00  0.00    +0.150 C 
ENDBRANCH  19  20
ENDBRANCH   5  19
TORSDOF 6
