REMARK  Name = ZINCpk000000p925.0
REMARK                            x       y       z     vdW  Elec       q    Type
REMARK                         _______ _______ _______ _____ _____    ______ ____
ROOT
ATOM      1  C   LIG    1       -0.013   1.086   0.008  0.00  0.00    +0.090 C 
ATOM      2  C   LIG    1       -0.580   1.642  -1.325  0.00  0.00    +0.050 C 
ATOM      3  C   LIG    1        0.644   1.606  -2.264  0.00  0.00    +0.240 C 
ATOM      4  N   LIG    1        1.845   1.603  -1.415  0.00  0.00    -0.620 N 
ATOM      5  C   LIG    1        3.118   1.556  -1.855  0.00  0.00    +0.530 C 
ATOM      6  O   LIG    1        4.035   1.559  -1.061  0.00  0.00    -0.530 OA
ATOM      7  C   LIG    1        1.426   1.661  -0.003  0.00  0.00    +0.270 C 
ENDROOT
BRANCH   1  13
ATOM      8  C   LIG    1       -1.427   0.820   2.176  0.00  0.00    -0.280 A 
ATOM      9  C   LIG    1       -2.023   1.690   3.068  0.00  0.00    +0.340 A 
ATOM     10  N   LIG    1       -1.773   2.937   2.640  0.00  0.00    -0.450 N 
ATOM     11  H   LIG    1       -2.073   3.754   3.069  0.00  0.00    +0.450 HD
ATOM     12  N   LIG    1       -1.009   2.861   1.471  0.00  0.00    -0.280 NA
ATOM     13  C   LIG    1       -0.794   1.606   1.187  0.00  0.00    +0.150 A 
BRANCH   8  14
ATOM     14  C   LIG    1       -1.444  -0.651   2.245  0.00  0.00    +0.540 C 
ATOM     15  O   LIG    1       -0.875  -1.306   1.395  0.00  0.00    -0.510 OA
BRANCH  14  16
ATOM     16  O   LIG    1       -2.092  -1.271   3.252  0.00  0.00    -0.360 OA
BRANCH  16  18
ATOM     17  C   LIG    1       -2.849  -3.243   4.465  0.00  0.00    +0.070 C 
ATOM     18  C   LIG    1       -2.067  -2.723   3.256  0.00  0.00    +0.200 C 
ENDBRANCH  16  18
ENDBRANCH  14  16
ENDBRANCH   8  14
ENDBRANCH   1  13
BRANCH   5  19
ATOM     19  C   LIG    1        3.402   1.499  -3.334  0.00  0.00    +0.150 C 
BRANCH  19  20
ATOM     20  C   LIG    1        4.892   1.454  -3.558  0.00  0.00    -0.220 A 
ATOM     21  C   LIG    1        5.705   2.523  -3.718  0.00  0.00    +0.100 A 
ATOM     22  N   LIG    1        6.962   2.061  -3.889  0.00  0.00    -0.470 N 
ATOM     23  H   LIG    1        7.755   2.602  -4.026  0.00  0.00    +0.440 HD
ATOM     24  N   LIG    1        6.917   0.662  -3.842  0.00  0.00    -0.290 NA
ATOM     25  C   LIG    1        5.285   3.970  -3.704  0.00  0.00    +0.130 C 
ATOM     26  C   LIG    1        5.676   0.299  -3.643  0.00  0.00    +0.100 A 
ATOM     27  C   LIG    1        5.178  -1.119  -3.525  0.00  0.00    +0.140 C 
ENDBRANCH  19  20
ENDBRANCH   5  19
TORSDOF 6
