REMARK  Name = ZINCrD00000F5LEn.0
REMARK                            x       y       z     vdW  Elec       q    Type
REMARK                         _______ _______ _______ _____ _____    ______ ____
ROOT
ATOM      1  C   LIG    1       -1.026   3.291   0.317  0.00  0.00    +0.270 A 
ATOM      2  C   LIG    1       -1.064   1.903   0.292  0.00  0.00    -0.080 A 
ATOM      3  C   LIG    1        0.111   1.183   0.203  0.00  0.00    +0.170 A 
ATOM      4  C   LIG    1        1.324   1.843   0.127  0.00  0.00    -0.730 A 
ATOM      5  C   LIG    1        1.365   3.225   0.144  0.00  0.00    +0.170 A 
ATOM      6  C   LIG    1        0.194   3.951   0.239  0.00  0.00    -0.080 A 
ENDROOT
BRANCH   4   7
ATOM      7  S   LIG    1        2.821   0.920   0.005  0.00  0.00    +2.700 S 
ATOM      8  O   LIG    1        2.546  -0.363   0.551  0.00  0.00    -0.950 OA
ATOM      9  O   LIG    1        3.854   1.766   0.490  0.00  0.00    -0.950 OA
BRANCH   7  10
ATOM     10  N   LIG    1        3.124   0.688  -1.606  0.00  0.00    -1.050 N 
ATOM     11  H   LIG    1        3.176  -0.212  -1.965  0.00  0.00    +0.430 HD
BRANCH  10  12
ATOM     12  C   LIG    1        3.306   1.790  -2.450  0.00  0.00    +0.120 A 
ATOM     13  C   LIG    1        3.949   2.926  -1.980  0.00  0.00    +0.060 A 
ATOM     14  C   LIG    1        4.132   4.011  -2.816  0.00  0.00    +0.020 A 
ATOM     15  C   LIG    1        3.666   3.970  -4.119  0.00  0.00    +0.120 A 
ATOM     16  C   LIG    1        3.019   2.840  -4.590  0.00  0.00    -0.020 A 
ATOM     17  F   LIG    1        3.842   5.035  -4.932  0.00  0.00    -0.130 F 
ATOM     18  C   LIG    1        2.838   1.750  -3.759  0.00  0.00    +0.110 A 
ATOM     19  F   LIG    1        2.207   0.647  -4.218  0.00  0.00    -0.120 F 
ENDBRANCH  10  12
ENDBRANCH   7  10
ENDBRANCH   4   7
BRANCH   1  20
ATOM     20  N   LIG    1       -2.212   4.022   0.413  0.00  0.00    -0.740 N 
ATOM     21  H   LIG    1       -2.184   4.992   0.425  0.00  0.00    +0.410 HD
BRANCH  20  22
ATOM     22  C   LIG    1       -3.498   3.325   0.494  0.00  0.00    +0.440 C 
BRANCH  22  26
ATOM     23  C   LIG    1       -6.159   5.710   0.147  0.00  0.00    +0.170 A 
ATOM     24  N   LIG    1       -6.007   5.637   1.435  0.00  0.00    -0.370 NA
ATOM     25  O   LIG    1       -5.123   4.853   1.710  0.00  0.00    +0.090 OA
ATOM     26  C   LIG    1       -4.612   4.335   0.589  0.00  0.00    +0.160 A 
ATOM     27  N   LIG    1       -5.261   4.878  -0.412  0.00  0.00    -0.460 NA
BRANCH  23  29
ATOM     28  C   LIG    1       -6.524   7.934  -0.888  0.00  0.00    +0.050 C 
ATOM     29  C   LIG    1       -7.153   6.572  -0.587  0.00  0.00    +0.150 C 
ENDBRANCH  23  29
ENDBRANCH  22  26
ENDBRANCH  20  22
ENDBRANCH   1  20
TORSDOF 7
