REMARK  Name = ZINCrD000000AqeY.0
REMARK                            x       y       z     vdW  Elec       q    Type
REMARK                         _______ _______ _______ _____ _____    ______ ____
ROOT
ATOM      1  O   LIG    1        2.587  -2.635   0.067  0.00  0.00    -0.480 OA
ATOM      2  C   LIG    1        3.632  -2.019   0.060  0.00  0.00    +0.510 C 
ATOM      3  N   LIG    1        3.621  -0.675  -0.035  0.00  0.00    -0.670 N 
ATOM      4  H   LIG    1        4.457  -0.187  -0.107  0.00  0.00    +0.410 HD
ENDROOT
BRANCH   3   5
ATOM      5  C   LIG    1        2.405   0.018  -0.028  0.00  0.00    +0.140 A 
ATOM      6  C   LIG    1        2.317   1.263   0.582  0.00  0.00    +0.010 A 
ATOM      7  C   LIG    1        1.118   1.951   0.590  0.00  0.00    +0.030 A 
ATOM      8  C   LIG    1        0.000   1.406  -0.007  0.00  0.00    +0.030 A 
ATOM      9  C   LIG    1        0.078   0.155  -0.623  0.00  0.00    -0.120 A 
ATOM     10  C   LIG    1        1.287  -0.539  -0.631  0.00  0.00    +0.090 A 
BRANCH   9  11
ATOM     11  C   LIG    1       -1.119  -0.432  -1.263  0.00  0.00    +0.560 C 
ATOM     12  N   LIG    1       -2.287   0.240  -1.253  0.00  0.00    -0.700 N 
ATOM     13  H   LIG    1       -2.342   1.109  -0.826  0.00  0.00    +0.400 HD
ATOM     14  O   LIG    1       -1.049  -1.522  -1.798  0.00  0.00    -0.520 OA
BRANCH  12  15
ATOM     15  C   LIG    1       -3.472  -0.342  -1.887  0.00  0.00    +0.220 C 
ATOM     16  C   LIG    1       -4.338   0.581  -2.748  0.00  0.00    +0.010 C 
ATOM     17  C   LIG    1       -4.841   0.116  -1.380  0.00  0.00    +0.020 C 
ENDBRANCH  12  15
ENDBRANCH   9  11
ENDBRANCH   3   5
BRANCH   2  18
ATOM     18  C   LIG    1        4.942  -2.757   0.158  0.00  0.00    +0.230 C 
BRANCH  18  19
ATOM     19  O   LIG    1        4.693  -4.161   0.248  0.00  0.00    -0.350 OA
BRANCH  19  20
ATOM     20  C   LIG    1        5.876  -4.957   0.346  0.00  0.00    +0.310 C 
BRANCH  20  21
ATOM     21  C   LIG    1        5.496  -6.412   0.435  0.00  0.00    +0.080 A 
ATOM     22  N   LIG    1        5.347  -7.180  -0.578  0.00  0.00    -0.440 NA
ATOM     23  C   LIG    1        5.009  -8.464  -0.349  0.00  0.00    +0.080 A 
ATOM     24  C   LIG    1        4.788  -9.513  -1.264  0.00  0.00    +0.080 A 
ATOM     25  C   LIG    1        4.444 -10.754  -0.820  0.00  0.00    +0.030 A 
ATOM     26  C   LIG    1        4.306 -11.010   0.537  0.00  0.00    +0.040 A 
ATOM     27  C   LIG    1        4.516 -10.004   1.453  0.00  0.00    +0.060 A 
ATOM     28  C   LIG    1        4.868  -8.729   1.018  0.00  0.00    -0.180 A 
ATOM     29  S   LIG    1        5.205  -7.241   1.898  0.00  0.00    +0.130 S 
ENDBRANCH  20  21
ENDBRANCH  19  20
ENDBRANCH  18  19
ENDBRANCH   2  18
TORSDOF 7
