REMARK  Name = ZINCvU0000000ArB.0
REMARK                            x       y       z     vdW  Elec       q    Type
REMARK                         _______ _______ _______ _____ _____    ______ ____
ROOT
ATOM      1  C   LIG    1       -3.427   3.621  -0.946  0.00  0.00    +0.670 C 
ATOM      2  N   LIG    1       -3.226   2.793   0.099  0.00  0.00    -0.600 N 
ATOM      3  C   LIG    1       -3.270   3.169   1.524  0.00  0.00    +0.250 C 
ATOM      4  C   LIG    1       -2.942   1.900   2.340  0.00  0.00    -0.010 C 
ATOM      5  C   LIG    1       -2.162   1.024   1.313  0.00  0.00    +0.030 C 
ATOM      6  C   LIG    1       -0.734   1.581   1.259  0.00  0.00    +0.020 C 
ATOM      7  C   LIG    1       -0.013   1.086   0.008  0.00  0.00    +0.010 C 
ATOM      8  C   LIG    1       -0.760   1.597  -1.228  0.00  0.00    +0.010 C 
ATOM      9  C   LIG    1       -2.162   0.987  -1.231  0.00  0.00    +0.030 C 
ATOM     10  C   LIG    1       -2.925   1.362   0.019  0.00  0.00    +0.240 C 
ATOM     11  O   LIG    1       -3.366   3.192  -2.081  0.00  0.00    -0.560 OA
ENDROOT
BRANCH   1  12
ATOM     12  O   LIG    1       -3.697   4.923  -0.731  0.00  0.00    -0.360 OA
BRANCH  12  14
ATOM     13  C   LIG    1       -5.087   5.217  -2.709  0.00  0.00    +0.040 C 
ATOM     14  C   LIG    1       -3.903   5.755  -1.903  0.00  0.00    +0.140 C 
ATOM     15  C   LIG    1       -2.643   5.734  -2.771  0.00  0.00    +0.040 C 
ATOM     16  C   LIG    1       -4.195   7.191  -1.464  0.00  0.00    +0.080 C 
ENDBRANCH  12  14
ENDBRANCH   1  12
BRANCH   4  17
ATOM     17  C   LIG    1       -2.060   2.241   3.543  0.00  0.00    +0.290 C 
BRANCH  17  18
ATOM     18  N   LIG    1       -2.818   3.068   4.485  0.00  0.00    -0.720 N 
ATOM     19  H   LIG    1       -3.736   3.311   4.288  0.00  0.00    +0.410 HD
BRANCH  18  20
ATOM     20  C   LIG    1       -2.221   3.505   5.662  0.00  0.00    +0.430 A 
ATOM     21  C   LIG    1       -0.904   3.153   5.939  0.00  0.00    -0.100 A 
ATOM     22  C   LIG    1       -0.323   3.595   7.114  0.00  0.00    +0.170 A 
ATOM     23  C   LIG    1       -1.081   4.377   7.976  0.00  0.00    -0.310 A 
ATOM     24  C   LIG    1       -2.383   4.688   7.637  0.00  0.00    +0.380 A 
ATOM     25  N   LIG    1       -2.910   4.257   6.507  0.00  0.00    -0.540 NA
BRANCH  23  26
ATOM     26  C   LIG    1       -0.489   4.880   9.267  0.00  0.00    +0.330 C 
ATOM     27  F   LIG    1       -1.080   6.102   9.606  0.00  0.00    -0.160 F 
ATOM     28  F   LIG    1        0.890   5.057   9.110  0.00  0.00    -0.160 F 
BRANCH  26  29
ATOM     29  C   LIG    1       -0.749   3.861  10.378  0.00  0.00    +0.430 C 
ATOM     30  F   LIG    1       -2.127   3.684  10.535  0.00  0.00    -0.160 F 
ATOM     31  F   LIG    1       -0.199   4.329  11.577  0.00  0.00    -0.160 F 
ATOM     32  F   LIG    1       -0.157   2.640  10.039  0.00  0.00    -0.160 F 
ENDBRANCH  26  29
ENDBRANCH  23  26
ENDBRANCH  18  20
ENDBRANCH  17  18
ENDBRANCH   4  17
TORSDOF 7
