REMARK  Name = ZINCpk00000y6yPQ.0
REMARK                            x       y       z     vdW  Elec       q    Type
REMARK                         _______ _______ _______ _____ _____    ______ ____
ROOT
ATOM      1  N   LIG    1       -2.266   4.581   1.410  0.00  0.00    -0.630 N 
ATOM      2  C   LIG    1       -1.027   5.076   1.547  0.00  0.00    +0.700 C 
ATOM      3  N   LIG    1       -0.056   4.166   1.356  0.00  0.00    -0.740 N 
ATOM      4  H   LIG    1        0.898   4.339   1.363  0.00  0.00    +0.430 HD
ATOM      5  C   LIG    1       -0.697   2.868   1.135  0.00  0.00    +0.200 C 
ATOM      6  C   LIG    1       -0.016   1.995   0.137  0.00  0.00    +0.270 C 
ATOM      7  N   LIG    1       -0.672   1.944  -1.157  0.00  0.00    -0.600 N 
ATOM      8  C   LIG    1       -2.123   1.970  -1.269  0.00  0.00    +0.300 C 
ATOM      9  C   LIG    1       -2.720   3.070  -0.423  0.00  0.00    +0.020 C 
ATOM     10  C   LIG    1        0.076   1.873  -2.276  0.00  0.00    +0.590 C 
ATOM     11  O   LIG    1       -0.463   1.810  -3.365  0.00  0.00    -0.510 OA
ATOM     12  O   LIG    1       -0.803   6.240   1.820  0.00  0.00    -0.560 OA
ATOM     13  C   LIG    1       -2.169   3.163   0.982  0.00  0.00    +0.240 C 
ENDROOT
BRANCH  10  14
ATOM     14  C   LIG    1        1.543   1.871  -2.180  0.00  0.00    +0.010 A 
ATOM     15  C   LIG    1        2.397   2.273  -3.158  0.00  0.00    +0.060 A 
ATOM     16  C   LIG    1        3.717   2.115  -2.669  0.00  0.00    -0.120 A 
ATOM     17  C   LIG    1        4.981   2.361  -3.219  0.00  0.00    +0.070 A 
ATOM     18  C   LIG    1        6.102   2.103  -2.484  0.00  0.00    -0.020 A 
ATOM     19  C   LIG    1        6.002   1.597  -1.194  0.00  0.00    +0.050 A 
ATOM     20  C   LIG    1        4.770   1.347  -0.632  0.00  0.00    -0.020 A 
ATOM     21  C   LIG    1        3.612   1.602  -1.361  0.00  0.00    +0.110 A 
ATOM     22  N   LIG    1        2.273   1.465  -1.080  0.00  0.00    -0.590 N 
ATOM     23  H   LIG    1        1.903   1.135  -0.246  0.00  0.00    +0.420 HD
ENDBRANCH  10  14
BRANCH   1  24
ATOM     24  C   LIG    1       -3.511   5.319   1.643  0.00  0.00    +0.350 C 
BRANCH  24  25
ATOM     25  C   LIG    1       -3.932   5.159   3.105  0.00  0.00    +0.150 C 
BRANCH  25  27
ATOM     26  C   LIG    1       -3.260   5.687   5.345  0.00  0.00    +0.200 C 
ATOM     27  O   LIG    1       -2.961   5.779   3.951  0.00  0.00    -0.370 OA
ENDBRANCH  25  27
ENDBRANCH  24  25
ENDBRANCH   1  24
TORSDOF 4
