REMARK  Name = ZINCqH0000001x9r.0
REMARK                            x       y       z     vdW  Elec       q    Type
REMARK                         _______ _______ _______ _____ _____    ______ ____
ROOT
ATOM      1  C   LIG    1       -2.459  -0.395   0.038  0.00  0.00    +0.340 C 
ENDROOT
BRANCH   1   3
ATOM      2  C   LIG    1       -3.654   1.781  -0.171  0.00  0.00    +0.160 A 
ATOM      3  C   LIG    1       -2.474   1.095  -0.190  0.00  0.00    -0.150 A 
ATOM      4  C   LIG    1       -1.273   1.784  -0.429  0.00  0.00    +0.000 A 
ATOM      5  C   LIG    1       -0.039   1.113  -0.450  0.00  0.00    +0.010 A 
ATOM      6  C   LIG    1        1.105   1.814  -0.678  0.00  0.00    +0.020 A 
ATOM      7  C   LIG    1        1.073   3.191  -0.886  0.00  0.00    -0.010 A 
ATOM      8  C   LIG    1       -0.103   3.876  -0.868  0.00  0.00    +0.040 A 
ATOM      9  C   LIG    1       -1.305   3.187  -0.635  0.00  0.00    -0.090 A 
ATOM     10  C   LIG    1       -2.538   3.861  -0.609  0.00  0.00    +0.080 A 
ATOM     11  C   LIG    1       -3.683   3.164  -0.381  0.00  0.00    -0.070 A 
BRANCH   2  12
ATOM     12  O   LIG    1       -4.815   1.113   0.055  0.00  0.00    -0.300 OA
BRANCH  12  14
ATOM     13  C   LIG    1       -6.571   2.190  -1.207  0.00  0.00    +0.020 C 
ATOM     14  C   LIG    1       -6.002   1.898   0.182  0.00  0.00    +0.150 C 
ATOM     15  C   LIG    1       -7.037   1.129   1.006  0.00  0.00    +0.070 C 
ENDBRANCH  12  14
ENDBRANCH   2  12
ENDBRANCH   1   3
BRANCH   1  16
ATOM     16  N   LIG    1       -2.598  -1.087  -1.246  0.00  0.00    -0.740 N 
ATOM     17  H   LIG    1       -2.681  -0.575  -2.066  0.00  0.00    +0.400 HD
ATOM     18  C   LIG    1       -2.611  -2.433  -1.287  0.00  0.00    +0.700 C 
ATOM     19  N   LIG    1       -2.739  -3.070  -2.469  0.00  0.00    -0.730 N 
ATOM     20  H   LIG    1       -2.822  -2.558  -3.289  0.00  0.00    +0.400 HD
ATOM     21  O   LIG    1       -2.508  -3.075  -0.259  0.00  0.00    -0.600 OA
BRANCH  19  22
ATOM     22  C   LIG    1       -2.753  -4.534  -2.514  0.00  0.00    +0.280 C 
ATOM     23  C   LIG    1       -4.193  -5.055  -2.325  0.00  0.00    +0.010 C 
ATOM     24  C   LIG    1       -4.710  -5.275  -3.768  0.00  0.00    +0.020 C 
ATOM     25  C   LIG    1       -3.460  -5.824  -4.499  0.00  0.00    +0.000 C 
ATOM     26  C   LIG    1       -2.287  -5.023  -3.896  0.00  0.00    +0.120 C 
ATOM     27  C   LIG    1       -1.060  -5.924  -3.747  0.00  0.00    +0.020 C 
BRANCH  26  28
ATOM     28  O   LIG    1       -1.975  -3.906  -4.731  0.00  0.00    -0.560 OA
ATOM     29  H   LIG    1       -1.675  -4.150  -5.617  0.00  0.00    +0.380 HD
ENDBRANCH  26  28
ENDBRANCH  19  22
ENDBRANCH   1  16
TORSDOF 6
