REMARK  Name = ZINCrD00000hQ5Nu.0
REMARK                            x       y       z     vdW  Elec       q    Type
REMARK                         _______ _______ _______ _____ _____    ______ ____
ROOT
ATOM      1  C   LIG    1       -1.172   3.596  -1.994  0.00  0.00    +0.370 A 
ATOM      2  N   LIG    1       -1.509   3.884  -3.228  0.00  0.00    -0.500 NA
ATOM      3  C   LIG    1       -2.363   3.105  -3.924  0.00  0.00    +0.080 A 
ATOM      4  C   LIG    1       -2.895   1.970  -3.332  0.00  0.00    -0.210 A 
ATOM      5  C   LIG    1       -3.800   1.236  -4.221  0.00  0.00    -0.050 A 
ATOM      6  C   LIG    1       -3.943   1.789  -5.416  0.00  0.00    -0.220 A 
ATOM      7  C   LIG    1       -4.898   0.966  -6.276  0.00  0.00    +0.130 C 
ATOM      8  C   LIG    1       -4.970  -0.408  -5.582  0.00  0.00    +0.050 C 
ATOM      9  C   LIG    1       -4.645  -0.034  -4.122  0.00  0.00    +0.110 C 
ATOM     10  C   LIG    1       -2.515   1.665  -1.990  0.00  0.00    +0.560 A 
ATOM     11  O   LIG    1       -2.957   0.678  -1.428  0.00  0.00    -0.500 OA
ATOM     12  S   LIG    1       -2.979   3.258  -5.561  0.00  0.00    +0.230 S 
ATOM     13  N   LIG    1       -1.657   2.491  -1.357  0.00  0.00    -0.510 N 
ENDROOT
BRANCH   1  14
ATOM     14  S   LIG    1       -0.058   4.660  -1.137  0.00  0.00    +0.030 S 
BRANCH  14  15
ATOM     15  C   LIG    1        0.238   5.903  -2.419  0.00  0.00    +0.210 C 
BRANCH  15  19
ATOM     16  O   LIG    1        4.178   8.566  -1.581  0.00  0.00    -0.540 OA
ATOM     17  C   LIG    1        3.029   8.166  -1.524  0.00  0.00    +0.530 A 
ATOM     18  C   LIG    1        2.492   7.064  -2.230  0.00  0.00    -0.130 A 
ATOM     19  C   LIG    1        1.191   6.947  -1.897  0.00  0.00    +0.180 A 
ATOM     20  N   LIG    1        0.881   7.938  -1.009  0.00  0.00    -0.490 N 
ATOM     21  H   LIG    1        0.011   8.091  -0.608  0.00  0.00    +0.450 HD
ATOM     22  N   LIG    1        2.038   8.693  -0.776  0.00  0.00    -0.510 N 
ATOM     23  H   LIG    1        2.112   9.460  -0.186  0.00  0.00    +0.440 HD
ENDBRANCH  15  19
ENDBRANCH  14  15
ENDBRANCH   1  14
BRANCH  13  24
ATOM     24  C   LIG    1       -1.250   2.203   0.020  0.00  0.00    +0.430 C 
BRANCH  24  25
ATOM     25  C   LIG    1       -0.016   1.339   0.009  0.00  0.00    -0.060 A 
ATOM     26  C   LIG    1        1.254   1.781  -0.000  0.00  0.00    -0.010 A 
ATOM     27  C   LIG    1        2.086   0.638  -0.014  0.00  0.00    -0.070 A 
ATOM     28  C   LIG    1        1.274  -0.435  -0.012  0.00  0.00    +0.190 A 
ATOM     29  O   LIG    1        0.002  -0.004   0.002  0.00  0.00    -0.160 OA
ENDBRANCH  24  25
ENDBRANCH  13  24
TORSDOF 5
