REMARK  Name = ZINCqH0000001lrF.0
REMARK                            x       y       z     vdW  Elec       q    Type
REMARK                         _______ _______ _______ _____ _____    ______ ____
ROOT
ATOM      1  N   LIG    1       -7.549   1.085   2.648  0.00  0.00    -0.720 N 
ATOM      2  H   LIG    1       -7.082   1.222   3.487  0.00  0.00    +0.400 HD
ATOM      3  C   LIG    1       -6.909   1.289   1.479  0.00  0.00    +0.520 C 
ATOM      4  O   LIG    1       -7.493   1.117   0.430  0.00  0.00    -0.520 OA
ENDROOT
BRANCH   1   5
ATOM      5  C   LIG    1       -8.950   0.656   2.651  0.00  0.00    +0.290 C 
BRANCH   5   6
ATOM      6  C   LIG    1       -9.601   1.075   3.943  0.00  0.00    -0.090 A 
ATOM      7  C   LIG    1       -8.906   0.969   5.134  0.00  0.00    +0.000 A 
ATOM      8  C   LIG    1       -9.502   1.358   6.319  0.00  0.00    +0.000 A 
ATOM      9  C   LIG    1      -10.796   1.845   6.315  0.00  0.00    +0.000 A 
ATOM     10  C   LIG    1      -11.492   1.946   5.125  0.00  0.00    +0.020 A 
ATOM     11  C   LIG    1      -10.895   1.561   3.939  0.00  0.00    +0.010 A 
ENDBRANCH   5   6
BRANCH   5  12
ATOM     12  C   LIG    1       -9.017  -0.867   2.517  0.00  0.00    +0.010 C 
BRANCH  12  14
ATOM     13  C   LIG    1       -8.420  -2.810   1.064  0.00  0.00    +0.000 C 
ATOM     14  C   LIG    1       -8.469  -1.283   1.150  0.00  0.00    -0.020 C 
ATOM     15  C   LIG    1       -9.380  -0.739   0.048  0.00  0.00    +0.020 C 
ENDBRANCH  12  14
ENDBRANCH   5  12
ENDBRANCH   1   5
BRANCH   3  16
ATOM     16  C   LIG    1       -5.468   1.730   1.476  0.00  0.00    +0.040 C 
BRANCH  16  17
ATOM     17  C   LIG    1       -4.986   1.888   0.033  0.00  0.00    +0.330 C 
BRANCH  17  18
ATOM     18  N   LIG    1       -3.586   2.317   0.030  0.00  0.00    -0.530 N 
ATOM     19  C   LIG    1       -3.285   3.641   0.036  0.00  0.00    +0.600 A 
ATOM     20  N   LIG    1       -2.057   4.066   0.044  0.00  0.00    -0.500 NA
ATOM     21  C   LIG    1       -1.010   3.212   0.029  0.00  0.00    +0.070 A 
ATOM     22  C   LIG    1       -1.244   1.840   0.018  0.00  0.00    -0.230 A 
ATOM     23  C   LIG    1       -0.013   1.076   0.008  0.00  0.00    +0.080 A 
ATOM     24  C   LIG    1        1.090   1.802   0.001  0.00  0.00    -0.050 A 
ATOM     25  S   LIG    1        0.722   3.517   0.014  0.00  0.00    +0.200 S 
ATOM     26  C   LIG    1       -2.603   1.395   0.021  0.00  0.00    +0.560 A 
ATOM     27  O   LIG    1       -2.867   0.205   0.015  0.00  0.00    -0.520 OA
ENDBRANCH  17  18
ENDBRANCH  16  17
ENDBRANCH   3  16
TORSDOF 7
