REMARK  Name = ZINCrD00000l0Cm4.0
REMARK                            x       y       z     vdW  Elec       q    Type
REMARK                         _______ _______ _______ _____ _____    ______ ____
ROOT
ATOM      1  N   LIG    1        0.002  -0.004   0.002  0.00  0.00    -0.630 N 
ATOM      2  H   LIG    1       -0.831  -0.500   0.007  0.00  0.00    +0.420 HD
ATOM      3  C   LIG    1        1.178  -0.662  -0.012  0.00  0.00    +0.510 C 
ATOM      4  O   LIG    1        2.220  -0.041  -0.018  0.00  0.00    -0.470 OA
ENDROOT
BRANCH   1   6
ATOM      5  C   LIG    1       -1.150   2.142   0.019  0.00  0.00    -0.190 A 
ATOM      6  C   LIG    1       -0.017   1.382   0.010  0.00  0.00    +0.030 A 
ATOM      7  S   LIG    1        1.370   2.367   0.002  0.00  0.00    +0.320 S 
ATOM      8  C   LIG    1        0.418   3.852   0.019  0.00  0.00    -0.270 A 
ATOM      9  C   LIG    1        0.645   5.359   0.025  0.00  0.00    +0.120 C 
ATOM     10  C   LIG    1       -0.707   5.964  -0.406  0.00  0.00    +0.040 C 
ATOM     11  C   LIG    1       -1.695   4.870   0.045  0.00  0.00    +0.090 C 
ATOM     12  C   LIG    1       -0.883   3.577   0.030  0.00  0.00    -0.080 A 
BRANCH   5  16
ATOM     13  N   LIG    1       -3.127   1.318  -1.145  0.00  0.00    -0.850 N 
ATOM     14  H   LIG    1       -4.021   0.942  -1.144  0.00  0.00    +0.400 HD
ATOM     15  H   LIG    1       -2.683   1.511  -1.986  0.00  0.00    +0.400 HD
ATOM     16  C   LIG    1       -2.501   1.573   0.021  0.00  0.00    +0.590 C 
ATOM     17  O   LIG    1       -3.058   1.331   1.076  0.00  0.00    -0.530 OA
ENDBRANCH   5  16
ENDBRANCH   1   6
BRANCH   3  18
ATOM     18  C   LIG    1        1.199  -2.169  -0.021  0.00  0.00    +0.280 C 
BRANCH  18  19
ATOM     19  O   LIG    1        2.574  -2.634  -0.036  0.00  0.00    -0.330 OA
BRANCH  19  20
ATOM     20  C   LIG    1        2.768  -3.962  -0.044  0.00  0.00    +0.470 C 
ATOM     21  O   LIG    1        1.820  -4.711  -0.040  0.00  0.00    -0.490 OA
BRANCH  20  22
ATOM     22  C   LIG    1        4.168  -4.519  -0.060  0.00  0.00    +0.180 C 
BRANCH  22  23
ATOM     23  C   LIG    1        4.110  -6.025  -0.068  0.00  0.00    -0.070 A 
ATOM     24  C   LIG    1        4.099  -6.723   1.126  0.00  0.00    -0.010 A 
ATOM     25  C   LIG    1        4.040  -8.105   1.119  0.00  0.00    +0.040 A 
ATOM     26  C   LIG    1        4.002  -8.789  -0.082  0.00  0.00    +0.060 A 
ATOM     27  C   LIG    1        4.018  -8.093  -1.275  0.00  0.00    +0.040 A 
ATOM     28 CL   LIG    1        4.154  -5.865   2.634  0.00  0.00    -0.050 Cl
ATOM     29  C   LIG    1        4.072  -6.710  -1.269  0.00  0.00    -0.010 A 
ATOM     30 CL   LIG    1        4.091  -5.835  -2.768  0.00  0.00    -0.050 Cl
ENDBRANCH  22  23
ENDBRANCH  20  22
ENDBRANCH  19  20
ENDBRANCH  18  19
ENDBRANCH   3  18
TORSDOF 7
