REMARK  Name = ZINCvU00000007hl.0
REMARK                            x       y       z     vdW  Elec       q    Type
REMARK                         _______ _______ _______ _____ _____    ______ ____
ROOT
ATOM      1  N   LIG    1       -8.231  -3.093   2.345  0.00  0.00    -0.620 N 
ATOM      2  H   LIG    1       -7.650  -3.727   2.793  0.00  0.00    +0.430 HD
ATOM      3  C   LIG    1       -9.549  -3.349   2.232  0.00  0.00    +0.520 C 
ATOM      4  O   LIG    1      -10.275  -2.556   1.671  0.00  0.00    -0.480 OA
ENDROOT
BRANCH   1   8
ATOM      5  C   LIG    1       -6.132  -0.413   1.309  0.00  0.00    +0.130 A 
ATOM      6  C   LIG    1       -7.152   0.265   0.755  0.00  0.00    -0.110 A 
ATOM      7  S   LIG    1       -8.625  -0.676   0.979  0.00  0.00    +0.210 S 
ATOM      8  C   LIG    1       -7.703  -1.920   1.818  0.00  0.00    +0.270 A 
ATOM      9  N   LIG    1       -6.455  -1.574   1.862  0.00  0.00    -0.490 NA
BRANCH   5  13
ATOM     10  C   LIG    1       -2.143   1.058   1.278  0.00  0.00    -0.070 A 
ATOM     11  C   LIG    1       -3.155   1.800   0.696  0.00  0.00    +0.010 A 
ATOM     12  C   LIG    1       -4.451   1.325   0.699  0.00  0.00    +0.020 A 
ATOM     13  C   LIG    1       -4.740   0.100   1.298  0.00  0.00    -0.030 A 
ATOM     14  C   LIG    1       -3.717  -0.641   1.887  0.00  0.00    +0.050 A 
ATOM     15  C   LIG    1       -2.424  -0.159   1.873  0.00  0.00    +0.000 A 
BRANCH  10  17
ATOM     16  C   LIG    1       -0.013   1.086   0.008  0.00  0.00    +0.030 C 
ATOM     17  C   LIG    1       -0.729   1.579   1.267  0.00  0.00    +0.050 C 
ENDBRANCH  10  17
ENDBRANCH   5  13
ENDBRANCH   1   8
BRANCH   3  18
ATOM     18  C   LIG    1      -10.121  -4.621   2.803  0.00  0.00    +0.200 C 
ATOM     19  C   LIG    1       -9.545  -5.822   2.051  0.00  0.00    +0.090 C 
BRANCH  18  20
ATOM     20  O   LIG    1      -11.566  -4.608   2.661  0.00  0.00    -0.320 OA
BRANCH  20  21
ATOM     21  C   LIG    1      -12.278  -5.273   3.591  0.00  0.00    +0.510 C 
ATOM     22  O   LIG    1      -11.708  -5.847   4.498  0.00  0.00    -0.480 OA
BRANCH  21  23
ATOM     23  C   LIG    1      -13.750  -5.304   3.510  0.00  0.00    -0.150 A 
ATOM     24  C   LIG    1      -14.410  -4.645   2.470  0.00  0.00    +0.120 A 
ATOM     25  C   LIG    1      -15.786  -4.678   2.400  0.00  0.00    -0.020 A 
ATOM     26  C   LIG    1      -16.519  -5.361   3.357  0.00  0.00    +0.100 A 
ATOM     27  C   LIG    1      -15.879  -6.016   4.391  0.00  0.00    -0.070 A 
ATOM     28  C   LIG    1      -14.495  -5.999   4.474  0.00  0.00    +0.170 A 
BRANCH  28  29
ATOM     29  O   LIG    1      -13.865  -6.647   5.485  0.00  0.00    -0.290 OA
BRANCH  29  30
ATOM     30  C   LIG    1      -14.690  -7.333   6.429  0.00  0.00    +0.600 C 
ATOM     31  F   LIG    1      -15.441  -8.311   5.768  0.00  0.00    -0.200 F 
ATOM     32  F   LIG    1      -15.552  -6.421   7.046  0.00  0.00    -0.200 F 
ENDBRANCH  29  30
ENDBRANCH  28  29
ENDBRANCH  21  23
ENDBRANCH  20  21
ENDBRANCH  18  20
ENDBRANCH   3  18
TORSDOF 9
