REMARK  Name = ZINCrS00000lFfSd.1
REMARK                            x       y       z     vdW  Elec       q    Type
REMARK                         _______ _______ _______ _____ _____    ______ ____
ROOT
ATOM      1  C   LIG    1       -2.836  -1.546  -1.565  0.00  0.00    +0.180 C 
ATOM      2  C   LIG    1       -3.512  -0.731  -0.439  0.00  0.00    +0.100 C 
ATOM      3  C   LIG    1       -2.358   0.161   0.084  0.00  0.00    +0.250 C 
ATOM      4  N   LIG    1       -1.176  -0.735   0.010  0.00  0.00    -0.460 NA
ATOM      5  C   LIG    1       -1.331  -1.504  -1.244  0.00  0.00    +0.240 C 
ENDROOT
BRANCH   4   6
ATOM      6  C   LIG    1        0.002  -0.004   0.002  0.00  0.00    +0.260 C 
ATOM      7  C   LIG    1       -0.017   1.382  -0.006  0.00  0.00    -0.040 C 
ATOM      8  C   LIG    1        1.179   2.086  -0.014  0.00  0.00    +0.460 C 
ATOM      9  N   LIG    1        2.342   1.477  -0.014  0.00  0.00    -0.470 NA
ATOM     10  C   LIG    1        2.436   0.142  -0.007  0.00  0.00    +0.170 C 
ATOM     11  C   LIG    1        3.688  -0.495  -0.008  0.00  0.00    +0.030 C 
ATOM     12  C   LIG    1        3.754  -1.857  -0.001  0.00  0.00    +0.040 C 
ATOM     13  C   LIG    1        2.596  -2.632   0.008  0.00  0.00    +0.080 C 
ATOM     14  C   LIG    1        1.365  -2.047   0.003  0.00  0.00    +0.110 C 
ATOM     15 CL   LIG    1        5.305  -2.637  -0.001  0.00  0.00    +0.010 Cl
ATOM     16  H   LIG    1        3.154   2.007  -0.019  0.00  0.00    +0.450 HD
ATOM     17  C   LIG    1        1.262  -0.649   0.001  0.00  0.00    -0.090 C 
ENDBRANCH   4   6
BRANCH   1  19
ATOM     18  C   LIG    1       -4.758  -2.951  -1.865  0.00  0.00    +0.330 C 
ATOM     19  N   LIG    1       -3.321  -2.932  -1.556  0.00  0.00    -0.380 N 
ATOM     20  H   LIG    1       -3.168  -3.336  -0.645  0.00  0.00    +0.430 HD
BRANCH  19  21
ATOM     21  C   LIG    1       -2.594  -3.712  -2.566  0.00  0.00    +0.330 C 
BRANCH  21  22
ATOM     22  C   LIG    1       -3.003  -5.160  -2.474  0.00  0.00    -0.150 A 
ATOM     23  C   LIG    1       -2.307  -6.022  -1.649  0.00  0.00    +0.080 A 
ATOM     24  C   LIG    1       -2.684  -7.349  -1.558  0.00  0.00    +0.040 A 
ATOM     25  C   LIG    1       -3.752  -7.818  -2.302  0.00  0.00    +0.110 A 
ATOM     26  C   LIG    1       -4.447  -6.953  -3.135  0.00  0.00    +0.080 A 
ATOM     27  F   LIG    1       -5.491  -7.408  -3.862  0.00  0.00    -0.110 F 
ATOM     28  F   LIG    1       -4.118  -9.116  -2.218  0.00  0.00    -0.110 F 
ATOM     29  C   LIG    1       -4.071  -5.624  -3.219  0.00  0.00    +0.060 A 
ENDBRANCH  21  22
ENDBRANCH  19  21
ENDBRANCH   1  19
TORSDOF 4
