REMARK  Name = ZINCrS00000lFfSd.2
REMARK                            x       y       z     vdW  Elec       q    Type
REMARK                         _______ _______ _______ _____ _____    ______ ____
ROOT
ATOM      1  C   LIG    1       -0.107   1.002  -2.388  0.00  0.00    +0.180 C 
ATOM      2  C   LIG    1       -0.247  -0.535  -2.384  0.00  0.00    +0.100 C 
ATOM      3  C   LIG    1       -1.076  -0.865  -3.644  0.00  0.00    +0.230 C 
ATOM      4  N   LIG    1       -0.854   0.290  -4.551  0.00  0.00    -0.480 NA
ATOM      5  C   LIG    1       -0.862   1.472  -3.649  0.00  0.00    +0.230 C 
ENDROOT
BRANCH   4   6
ATOM      6  C   LIG    1       -1.863   0.380  -5.498  0.00  0.00    +0.250 C 
ATOM      7  C   LIG    1       -3.186   0.545  -5.118  0.00  0.00    -0.050 C 
ATOM      8  C   LIG    1       -4.174   0.636  -6.090  0.00  0.00    +0.450 C 
ATOM      9  N   LIG    1       -3.896   0.560  -7.370  0.00  0.00    -0.460 NA
ATOM     10  C   LIG    1       -2.642   0.396  -7.808  0.00  0.00    +0.160 C 
ATOM     11  C   LIG    1       -2.361   0.316  -9.182  0.00  0.00    +0.030 C 
ATOM     12  C   LIG    1       -1.074   0.147  -9.601  0.00  0.00    +0.050 C 
ATOM     13  C   LIG    1       -0.028   0.053  -8.685  0.00  0.00    +0.080 C 
ATOM     14  C   LIG    1       -0.265   0.127  -7.345  0.00  0.00    +0.150 C 
ATOM     15 CL   LIG    1       -0.734   0.049 -11.300  0.00  0.00    +0.010 Cl
ATOM     16  H   LIG    1       -4.617   0.625  -8.015  0.00  0.00    +0.460 HD
ATOM     17  C   LIG    1       -1.576   0.299  -6.881  0.00  0.00    -0.070 C 
ENDBRANCH   4   6
BRANCH   1  19
ATOM     18  C   LIG    1       -0.640   3.038  -1.237  0.00  0.00    +0.320 C 
ATOM     19  N   LIG    1       -0.723   1.572  -1.182  0.00  0.00    -0.380 N 
ATOM     20  H   LIG    1       -1.691   1.292  -1.134  0.00  0.00    +0.420 HD
BRANCH  19  21
ATOM     21  C   LIG    1       -0.013   1.086   0.008  0.00  0.00    +0.340 C 
BRANCH  21  22
ATOM     22  C   LIG    1       -0.718   1.572   1.248  0.00  0.00    -0.150 A 
ATOM     23  C   LIG    1       -1.719   0.807   1.817  0.00  0.00    +0.080 A 
ATOM     24  C   LIG    1       -2.368   1.251   2.954  0.00  0.00    +0.040 A 
ATOM     25  C   LIG    1       -2.015   2.462   3.524  0.00  0.00    +0.110 A 
ATOM     26  C   LIG    1       -1.010   3.229   2.953  0.00  0.00    +0.080 A 
ATOM     27  F   LIG    1       -0.664   4.411   3.508  0.00  0.00    -0.110 F 
ATOM     28  F   LIG    1       -2.648   2.896   4.636  0.00  0.00    -0.110 F 
ATOM     29  C   LIG    1       -0.359   2.779   1.818  0.00  0.00    +0.060 A 
ENDBRANCH  21  22
ENDBRANCH  19  21
ENDBRANCH   1  19
TORSDOF 4
