REMARK  Name = ZINCrD00000F5Ln6.0
REMARK                            x       y       z     vdW  Elec       q    Type
REMARK                         _______ _______ _______ _____ _____    ______ ____
ROOT
ATOM      1  C   LIG    1        4.926  -4.109  -0.946  0.00  0.00    -0.670 A 
ATOM      2  C   LIG    1        3.744  -4.826  -0.944  0.00  0.00    +0.170 A 
ATOM      3  C   LIG    1        2.545  -4.201  -0.645  0.00  0.00    +0.070 A 
ATOM      4  C   LIG    1        2.529  -2.843  -0.346  0.00  0.00    -0.060 A 
ATOM      5  C   LIG    1        1.258  -2.158  -0.024  0.00  0.00    +0.430 C 
ATOM      6  C   LIG    1        1.218  -0.679  -0.013  0.00  0.00    -0.120 A 
ATOM      7  C   LIG    1        0.002  -0.004   0.002  0.00  0.00    +0.070 A 
ATOM      8  C   LIG    1       -0.017   1.381   0.010  0.00  0.00    +0.040 A 
ATOM      9  C   LIG    1        1.165   2.098   0.002  0.00  0.00    +0.050 A 
ATOM     10  C   LIG    1        2.385   1.441  -0.012  0.00  0.00    +0.080 A 
ATOM     11  C   LIG    1        2.421   0.051  -0.020  0.00  0.00    -0.120 A 
ATOM     12  C   LIG    1        3.714  -0.668  -0.036  0.00  0.00    +0.440 C 
ATOM     13  O   LIG    1        4.748  -0.078   0.207  0.00  0.00    -0.420 OA
ATOM     14  O   LIG    1        0.260  -2.801   0.230  0.00  0.00    -0.410 OA
ATOM     15  C   LIG    1        3.733  -2.113  -0.351  0.00  0.00    -0.140 A 
ATOM     16  C   LIG    1        4.928  -2.756  -0.652  0.00  0.00    +0.190 A 
ENDROOT
BRANCH   1  17
ATOM     17  S   LIG    1        6.442  -4.924  -1.327  0.00  0.00    +2.690 S 
ATOM     18  O   LIG    1        6.241  -6.301  -1.038  0.00  0.00    -0.950 OA
ATOM     19  O   LIG    1        7.474  -4.148  -0.735  0.00  0.00    -0.940 OA
BRANCH  17  20
ATOM     20  N   LIG    1        6.657  -4.816  -2.966  0.00  0.00    -1.110 NA
ATOM     21  H   LIG    1        6.650  -5.619  -3.510  0.00  0.00    +0.420 HD
BRANCH  20  28
ATOM     22  C   LIG    1        4.697  -3.763  -4.819  0.00  0.00    +0.020 C 
ATOM     23  C   LIG    1        6.196  -3.496  -4.972  0.00  0.00    -0.020 C 
ATOM     24  C   LIG    1        6.406  -2.130  -5.628  0.00  0.00    +0.020 C 
ATOM     25  C   LIG    1        7.905  -1.863  -5.781  0.00  0.00    +0.010 C 
ATOM     26  C   LIG    1        8.569  -1.875  -4.402  0.00  0.00    +0.020 C 
ATOM     27  C   LIG    1        8.358  -3.241  -3.746  0.00  0.00    +0.010 C 
ATOM     28  C   LIG    1        6.859  -3.508  -3.594  0.00  0.00    +0.240 C 
ENDBRANCH  20  28
ENDBRANCH  17  20
ENDBRANCH   1  17
TORSDOF 3
