REMARK  Name = ZINCfA000000bksZ.0
REMARK                            x       y       z     vdW  Elec       q    Type
REMARK                         _______ _______ _______ _____ _____    ______ ____
ROOT
ATOM      1  N   LIG    1       -2.909   1.631   0.153  0.00  0.00    -0.500 N 
ATOM      2  H   LIG    1       -2.463   1.375  -0.715  0.00  0.00    +0.430 HD
ATOM      3  H   LIG    1       -2.921   2.637   0.242  0.00  0.00    +0.430 HD
ENDROOT
BRANCH   1   4
ATOM      4  C   LIG    1       -4.287   1.123   0.164  0.00  0.00    +0.290 C 
ATOM      5  C   LIG    1       -4.277  -0.385  -0.095  0.00  0.00    +0.110 C 
BRANCH   4   6
ATOM      6  C   LIG    1       -5.085   1.812  -0.913  0.00  0.00    -0.070 A 
ATOM      7  N   LIG    1       -4.676   2.015  -2.120  0.00  0.00    -0.450 NA
ATOM      8  C   LIG    1       -5.504   2.631  -2.940  0.00  0.00    +0.230 A 
ATOM      9  C   LIG    1       -6.673   2.975  -2.391  0.00  0.00    -0.030 A 
ATOM     10  S   LIG    1       -6.661   2.444  -0.711  0.00  0.00    +0.220 S 
ENDBRANCH   4   6
ENDBRANCH   1   4
BRANCH   1  11
ATOM     11  C   LIG    1       -2.164   1.050   1.278  0.00  0.00    +0.270 C 
BRANCH  11  13
ATOM     12  C   LIG    1       -0.013   1.086   0.008  0.00  0.00    +0.060 C 
ATOM     13  C   LIG    1       -0.729   1.579   1.267  0.00  0.00    -0.010 C 
BRANCH  13  14
ATOM     14  C   LIG    1        0.011   1.072   2.506  0.00  0.00    +0.040 C 
BRANCH  14  15
ATOM     15  C   LIG    1        1.405   1.701   2.561  0.00  0.00    +0.370 C 
ATOM     16  F   LIG    1        2.160   1.256   1.471  0.00  0.00    -0.200 F 
ATOM     17  F   LIG    1        2.039   1.328   3.751  0.00  0.00    -0.200 F 
ENDBRANCH  14  15
ENDBRANCH  13  14
ENDBRANCH  11  13
ENDBRANCH   1  11
TORSDOF 6
