REMARK  Name = ZINCqH00000371Xj.0
REMARK                            x       y       z     vdW  Elec       q    Type
REMARK                         _______ _______ _______ _____ _____    ______ ____
ROOT
ATOM      1  C   LIG    1        4.668  -0.334  -0.044  0.00  0.00    -0.230 A 
ATOM      2  C   LIG    1        4.375  -1.665  -0.043  0.00  0.00    +0.280 A 
ATOM      3  N   LIG    1        5.522  -2.387  -0.063  0.00  0.00    -0.460 N 
ATOM      4  C   LIG    1        6.618  -1.548  -0.069  0.00  0.00    +0.090 A 
ATOM      5  C   LIG    1        7.990  -1.776  -0.083  0.00  0.00    -0.010 A 
ATOM      6  C   LIG    1        8.864  -0.710  -0.086  0.00  0.00    +0.030 A 
ATOM      7  C   LIG    1        8.388   0.593  -0.075  0.00  0.00    -0.010 A 
ATOM      8  C   LIG    1        7.032   0.839  -0.061  0.00  0.00    +0.070 A 
ATOM      9  C   LIG    1        6.139  -0.229  -0.058  0.00  0.00    -0.060 A 
ENDROOT
BRANCH   1  12
ATOM     10  N   LIG    1        2.384   0.524  -0.018  0.00  0.00    -0.720 N 
ATOM     11  H   LIG    1        2.065  -0.392  -0.020  0.00  0.00    +0.390 HD
ATOM     12  C   LIG    1        3.707   0.778  -0.029  0.00  0.00    +0.600 C 
ATOM     13  O   LIG    1        4.107   1.927  -0.027  0.00  0.00    -0.530 OA
BRANCH  10  15
ATOM     14  C   LIG    1        1.638   2.525  -1.227  0.00  0.00    +0.060 C 
ATOM     15  C   LIG    1        1.426   1.633  -0.003  0.00  0.00    +0.180 C 
ATOM     16  C   LIG    1        1.593   2.458   1.290  0.00  0.00    +0.040 C 
ATOM     17  C   LIG    1        0.526   1.879   2.251  0.00  0.00    +0.020 C 
ATOM     18  C   LIG    1       -0.669   1.598   1.307  0.00  0.00    -0.010 C 
ATOM     19  C   LIG    1       -0.013   1.086   0.008  0.00  0.00    +0.160 C 
BRANCH  19  20
ATOM     20  O   LIG    1       -0.730   1.571  -1.129  0.00  0.00    -0.550 OA
ATOM     21  H   LIG    1       -1.647   1.270  -1.173  0.00  0.00    +0.380 HD
ENDBRANCH  19  20
ENDBRANCH  10  15
ENDBRANCH   1  12
BRANCH   3  22
ATOM     22  C   LIG    1        5.589  -3.850  -0.070  0.00  0.00    +0.350 C 
BRANCH  22  23
ATOM     23  C   LIG    1        5.749  -4.353   1.341  0.00  0.00    -0.120 A 
ATOM     24  C   LIG    1        7.013  -4.534   1.872  0.00  0.00    +0.020 A 
ATOM     25  C   LIG    1        7.159  -4.990   3.168  0.00  0.00    +0.010 A 
ATOM     26  C   LIG    1        6.042  -5.276   3.931  0.00  0.00    +0.020 A 
ATOM     27  C   LIG    1        4.778  -5.100   3.399  0.00  0.00    +0.010 A 
ATOM     28  C   LIG    1        4.632  -4.638   2.104  0.00  0.00    +0.020 A 
ENDBRANCH  22  23
ENDBRANCH   3  22
TORSDOF 5
