REMARK  Name = ZINCpe000000Zt9r.0
REMARK                            x       y       z     vdW  Elec       q    Type
REMARK                         _______ _______ _______ _____ _____    ______ ____
ROOT
ATOM      1  C   LIG    1        2.866   3.836  -0.974  0.00  0.00    +0.070 C 
ATOM      2  C   LIG    1        3.506   2.588  -1.609  0.00  0.00    +0.310 C 
ATOM      3  N   LIG    1        4.508   2.678  -0.527  0.00  0.00    -0.640 N 
ATOM      4  C   LIG    1        5.783   2.263  -0.384  0.00  0.00    +0.560 C 
ATOM      5  O   LIG    1        6.300   1.585  -1.247  0.00  0.00    -0.520 OA
ATOM      6  C   LIG    1        3.555   3.406   0.333  0.00  0.00    +0.310 C 
ENDROOT
BRANCH   1  10
ATOM      7  O   LIG    1       -1.815   5.016  -1.088  0.00  0.00    -0.550 OA
ATOM      8  C   LIG    1       -0.801   4.352  -0.971  0.00  0.00    +0.530 A 
ATOM      9  C   LIG    1        0.525   4.818  -1.129  0.00  0.00    -0.160 A 
ATOM     10  C   LIG    1        1.361   3.782  -0.913  0.00  0.00    +0.190 A 
ATOM     11  N   LIG    1        0.613   2.674  -0.630  0.00  0.00    -0.490 N 
ATOM     12  H   LIG    1        0.958   1.789  -0.434  0.00  0.00    +0.440 HD
ATOM     13  N   LIG    1       -0.740   3.038  -0.672  0.00  0.00    -0.520 N 
ATOM     14  H   LIG    1       -1.496   2.452  -0.510  0.00  0.00    +0.440 HD
ENDBRANCH   1  10
BRANCH   4  15
ATOM     15  C   LIG    1        6.565   2.642   0.847  0.00  0.00    +0.000 C 
ATOM     16  C   LIG    1        8.072   2.753   0.518  0.00  0.00    +0.100 C 
ATOM     17  C   LIG    1        8.717   2.198   1.807  0.00  0.00    +0.280 C 
ATOM     18  N   LIG    1        7.710   1.308   2.398  0.00  0.00    -0.550 N 
ATOM     19  C   LIG    1        6.491   1.540   1.881  0.00  0.00    +0.540 C 
ATOM     20  O   LIG    1        5.479   0.951   2.198  0.00  0.00    -0.500 OA
BRANCH  18  21
ATOM     21  C   LIG    1        7.984   0.343   3.374  0.00  0.00    +0.150 A 
ATOM     22  C   LIG    1        9.268   0.219   3.888  0.00  0.00    +0.010 A 
ATOM     23  C   LIG    1        9.535  -0.731   4.855  0.00  0.00    +0.020 A 
ATOM     24  C   LIG    1        8.526  -1.567   5.303  0.00  0.00    +0.080 A 
ATOM     25  C   LIG    1        7.246  -1.448   4.787  0.00  0.00    +0.020 A 
ATOM     26  F   LIG    1        8.790  -2.498   6.245  0.00  0.00    -0.140 F 
ATOM     27  C   LIG    1        6.974  -0.496   3.824  0.00  0.00    +0.030 A 
ENDBRANCH  18  21
ENDBRANCH   4  15
TORSDOF 3
