REMARK  Name = ZINCrD000000AYE1.0
REMARK                            x       y       z     vdW  Elec       q    Type
REMARK                         _______ _______ _______ _____ _____    ______ ____
ROOT
ATOM      1  N   LIG    1        1.143   1.901   0.001  0.00  0.00    -0.710 N 
ATOM      2  H   LIG    1        1.130   2.871   0.007  0.00  0.00    +0.410 HD
ATOM      3  C   LIG    1       -0.014   1.212   0.009  0.00  0.00    +0.610 C 
ATOM      4  O   LIG    1        0.002  -0.004   0.002  0.00  0.00    -0.500 OA
ENDROOT
BRANCH   3   5
ATOM      5  C   LIG    1       -1.302   1.932   0.019  0.00  0.00    -0.080 A 
ATOM      6  C   LIG    1       -2.550   1.377   0.016  0.00  0.00    +0.060 A 
ATOM      7  C   LIG    1       -3.421   2.502   0.032  0.00  0.00    +0.050 A 
ATOM      8  N   LIG    1       -2.652   3.562   0.034  0.00  0.00    -0.330 NA
ATOM      9  O   LIG    1       -1.480   3.266   0.026  0.00  0.00    +0.130 OA
BRANCH   7  10
ATOM     10  C   LIG    1       -4.905   2.478   0.039  0.00  0.00    -0.010 A 
ATOM     11  C   LIG    1       -5.623   3.672   0.049  0.00  0.00    +0.050 A 
ATOM     12  C   LIG    1       -7.003   3.646   0.055  0.00  0.00    +0.040 A 
ATOM     13  C   LIG    1       -7.674   2.437   0.052  0.00  0.00    +0.040 A 
ATOM     14  C   LIG    1       -6.966   1.247   0.042  0.00  0.00    -0.030 A 
ATOM     15 CL   LIG    1       -7.816  -0.267   0.037  0.00  0.00    -0.060 Cl
ATOM     16  C   LIG    1       -5.585   1.262   0.031  0.00  0.00    +0.050 A 
ENDBRANCH   7  10
ENDBRANCH   3   5
BRANCH   1  17
ATOM     17  C   LIG    1        2.422   1.186  -0.015  0.00  0.00    +0.270 C 
BRANCH  17  18
ATOM     18  C   LIG    1        3.571   2.196  -0.020  0.00  0.00    +0.290 C 
BRANCH  18  23
ATOM     19  O   LIG    1        5.991   3.386  -0.037  0.00  0.00    -0.590 OA
ATOM     20  C   LIG    1        6.008   2.171  -0.044  0.00  0.00    +0.710 C 
ATOM     21  N   LIG    1        7.184   1.513  -0.058  0.00  0.00    -0.740 N 
ATOM     22  H   LIG    1        7.197   0.543  -0.064  0.00  0.00    +0.400 HD
ATOM     23  N   LIG    1        4.850   1.481  -0.036  0.00  0.00    -0.750 N 
ATOM     24  H   LIG    1        4.863   0.511  -0.042  0.00  0.00    +0.400 HD
BRANCH  21  25
ATOM     25  C   LIG    1        8.442   2.262  -0.066  0.00  0.00    +0.250 C 
ATOM     26  C   LIG    1        8.803   2.639  -1.505  0.00  0.00    +0.000 C 
ATOM     27  C   LIG    1       10.117   3.422  -1.513  0.00  0.00    +0.010 C 
ATOM     28  C   LIG    1       11.230   2.557  -0.919  0.00  0.00    +0.000 C 
ATOM     29  C   LIG    1       10.870   2.180   0.520  0.00  0.00    +0.020 C 
ATOM     30  C   LIG    1        9.555   1.397   0.528  0.00  0.00    +0.010 C 
ENDBRANCH  21  25
ENDBRANCH  18  23
ENDBRANCH  17  18
ENDBRANCH   1  17
TORSDOF 6
