REMARK  Name = ZINCrH000004tsKR.0
REMARK                            x       y       z     vdW  Elec       q    Type
REMARK                         _______ _______ _______ _____ _____    ______ ____
ROOT
ATOM      1  C   LIG    1        4.594  -1.783  -0.222  0.00  0.00    +0.570 C 
ATOM      2  N   LIG    1        4.306  -0.530   0.181  0.00  0.00    -0.640 N 
ATOM      3  H   LIG    1        3.430  -0.328   0.548  0.00  0.00    +0.430 HD
ATOM      4  O   LIG    1        5.716  -2.056  -0.603  0.00  0.00    -0.510 OA
ENDROOT
BRANCH   1   8
ATOM      5  C   LIG    1        1.588  -4.731  -0.155  0.00  0.00    -0.170 A 
ATOM      6  C   LIG    1        2.864  -5.091  -0.600  0.00  0.00    +0.140 A 
ATOM      7  C   LIG    1        3.851  -4.121  -0.622  0.00  0.00    +0.050 A 
ATOM      8  C   LIG    1        3.543  -2.829  -0.203  0.00  0.00    +0.100 A 
ATOM      9  N   LIG    1        2.322  -2.523   0.220  0.00  0.00    -0.450 NA
ATOM     10  C   LIG    1        1.357  -3.414   0.250  0.00  0.00    +0.300 A 
BRANCH   5  14
ATOM     11  N   LIG    1       -0.728  -5.374   0.318  0.00  0.00    -0.850 N 
ATOM     12  H   LIG    1       -1.442  -6.029   0.346  0.00  0.00    +0.410 HD
ATOM     13  H   LIG    1       -0.896  -4.462   0.601  0.00  0.00    +0.400 HD
ATOM     14  C   LIG    1        0.498  -5.731  -0.113  0.00  0.00    +0.570 C 
ATOM     15  O   LIG    1        0.708  -6.875  -0.467  0.00  0.00    -0.530 OA
ENDBRANCH   5  14
ENDBRANCH   1   8
BRANCH   2  16
ATOM     16  C   LIG    1        5.265   0.476   0.073  0.00  0.00    +0.200 A 
ATOM     17  C   LIG    1        6.613   0.169   0.195  0.00  0.00    +0.020 A 
ATOM     18  C   LIG    1        7.562   1.169   0.094  0.00  0.00    +0.070 A 
ATOM     19  C   LIG    1        7.177   2.478  -0.136  0.00  0.00    +0.000 A 
ATOM     20  C   LIG    1        5.842   2.800  -0.266  0.00  0.00    +0.060 A 
ATOM     21  C   LIG    1        4.873   1.801  -0.166  0.00  0.00    -0.070 A 
BRANCH  21  22
ATOM     22  C   LIG    1        3.442   2.138  -0.304  0.00  0.00    +0.160 A 
ATOM     23  N   LIG    1        2.480   1.277  -0.327  0.00  0.00    -0.470 NA
ATOM     24  C   LIG    1        1.224   1.739  -0.459  0.00  0.00    +0.090 A 
ATOM     25  C   LIG    1        0.015   1.011  -0.511  0.00  0.00    +0.080 A 
ATOM     26  C   LIG    1       -1.175   1.657  -0.655  0.00  0.00    +0.030 A 
ATOM     27  C   LIG    1       -1.226   3.040  -0.743  0.00  0.00    +0.040 A 
ATOM     28  C   LIG    1       -0.064   3.777  -0.696  0.00  0.00    +0.060 A 
ATOM     29  C   LIG    1        1.165   3.134  -0.554  0.00  0.00    -0.180 A 
ATOM     30  S   LIG    1        2.805   3.769  -0.461  0.00  0.00    +0.080 S 
ENDBRANCH  21  22
ENDBRANCH   2  16
TORSDOF 4
