REMARK  Name = ZINCpk00000kORKT.0
REMARK                            x       y       z     vdW  Elec       q    Type
REMARK                         _______ _______ _______ _____ _____    ______ ____
ROOT
ATOM      1  C   LIG    1       -0.018   1.461   0.010  0.00  0.00    +0.250 C 
ATOM      2  C   LIG    1       -0.736   1.956   1.270  0.00  0.00    +0.280 C 
ATOM      3  N   LIG    1       -0.862   3.418   1.198  0.00  0.00    -0.620 N 
ATOM      4  C   LIG    1       -1.480   4.016   0.007  0.00  0.00    +0.280 C 
ATOM      5  C   LIG    1       -0.753   3.499  -1.238  0.00  0.00    -0.000 C 
ATOM      6  C   LIG    1       -0.419   4.195   2.207  0.00  0.00    +0.520 C 
ATOM      7  O   LIG    1        0.089   3.688   3.184  0.00  0.00    -0.520 OA
ATOM      8  C   LIG    1       -0.759   1.968  -1.229  0.00  0.00    +0.160 C 
ENDROOT
BRANCH   1  10
ATOM      9  C   LIG    1        0.974  -0.668   0.659  0.00  0.00    +0.600 C 
ATOM     10  N   LIG    1        0.002  -0.004   0.002  0.00  0.00    -0.720 N 
ATOM     11  H   LIG    1       -0.684  -0.496  -0.476  0.00  0.00    +0.400 HD
ATOM     12  O   LIG    1        1.834  -0.052   1.258  0.00  0.00    -0.510 OA
BRANCH   9  15
ATOM     13  C   LIG    1        3.095  -2.493   2.072  0.00  0.00    +0.160 C 
ATOM     14  C   LIG    1        1.909  -2.946   1.260  0.00  0.00    +0.110 A 
ATOM     15  C   LIG    1        0.994  -2.136   0.651  0.00  0.00    -0.100 A 
ATOM     16  N   LIG    1        0.093  -2.973   0.020  0.00  0.00    -0.560 N 
ATOM     17  H   LIG    1       -0.677  -2.702  -0.504  0.00  0.00    +0.420 HD
ATOM     18  C   LIG    1        0.486  -4.235   0.270  0.00  0.00    +0.450 A 
ATOM     19  N   LIG    1        1.565  -4.210   1.011  0.00  0.00    -0.500 NA
ENDBRANCH   9  15
ENDBRANCH   1  10
BRANCH   8  20
ATOM     20  O   LIG    1       -0.110   1.482  -2.405  0.00  0.00    -0.560 OA
ATOM     21  H   LIG    1       -0.527   1.765  -3.230  0.00  0.00    +0.380 HD
ENDBRANCH   8  20
BRANCH   6  22
ATOM     22  C   LIG    1       -0.556   5.693   2.119  0.00  0.00    +0.060 C 
BRANCH  22  23
ATOM     23  C   LIG    1        0.021   6.332   3.384  0.00  0.00    +0.020 C 
ATOM     24  C   LIG    1       -0.821   5.919   4.593  0.00  0.00    +0.020 C 
BRANCH  23  25
ATOM     25  C   LIG    1       -0.003   7.856   3.242  0.00  0.00    -0.070 C 
ATOM     26  C   LIG    1        0.838   8.268   2.033  0.00  0.00    +0.020 C 
ATOM     27  C   LIG    1        0.573   8.495   4.507  0.00  0.00    +0.030 C 
ATOM     28  C   LIG    1       -1.446   8.326   3.044  0.00  0.00    +0.010 C 
ENDBRANCH  23  25
ENDBRANCH  22  23
ENDBRANCH   6  22
TORSDOF 6
