REMARK  Name = ZINCpk00000DI6F5.0
REMARK                            x       y       z     vdW  Elec       q    Type
REMARK                         _______ _______ _______ _____ _____    ______ ____
ROOT
ATOM      1  N   LIG    1       -1.592   5.909  -2.960  0.00  0.00    -0.290 N 
ATOM      2  C   LIG    1       -1.124   7.050  -2.403  0.00  0.00    +0.160 A 
ATOM      3  C   LIG    1       -2.211   7.736  -1.979  0.00  0.00    -0.010 A 
ATOM      4  N   LIG    1       -3.277   6.991  -2.293  0.00  0.00    -0.260 NA
ATOM      5  N   LIG    1       -2.877   5.918  -2.878  0.00  0.00    -0.080 NA
ENDROOT
BRANCH   1   6
ATOM      6  C   LIG    1       -0.777   4.848  -3.558  0.00  0.00    +0.410 C 
BRANCH   6  11
ATOM      7  C   LIG    1       -0.746   1.894  -1.211  0.00  0.00    -0.210 A 
ATOM      8  C   LIG    1       -1.759   1.144  -1.777  0.00  0.00    +0.320 A 
ATOM      9  N   LIG    1       -2.402   1.574  -2.845  0.00  0.00    -0.480 NA
ATOM     10  C   LIG    1       -2.108   2.727  -3.413  0.00  0.00    +0.330 A 
ATOM     11  C   LIG    1       -1.106   3.532  -2.903  0.00  0.00    -0.170 A 
ATOM     12  C   LIG    1       -0.412   3.115  -1.778  0.00  0.00    +0.120 A 
BRANCH   7  14
ATOM     13  C   LIG    1       -0.733   1.888   1.268  0.00  0.00    +0.080 C 
ATOM     14  C   LIG    1       -0.017   1.395   0.010  0.00  0.00    +0.350 C 
ATOM     15  F   LIG    1        1.296   1.879  -0.000  0.00  0.00    -0.190 F 
ATOM     16  F   LIG    1        0.002  -0.004   0.002  0.00  0.00    -0.190 F 
ENDBRANCH   7  14
ENDBRANCH   6  11
ENDBRANCH   1   6
BRANCH   3  17
ATOM     17  C   LIG    1       -2.219   9.076  -1.290  0.00  0.00    +0.180 C 
BRANCH  17  18
ATOM     18  C   LIG    1       -3.116  10.043  -2.065  0.00  0.00    +0.020 C 
ATOM     19  C   LIG    1       -3.225  11.366  -1.300  0.00  0.00    +0.060 C 
ATOM     20  C   LIG    1       -4.034  12.355  -2.146  0.00  0.00    +0.090 C 
ATOM     21  C   LIG    1       -3.387  12.491  -3.499  0.00  0.00    +0.520 C 
ATOM     22  N   LIG    1       -2.691  11.482  -4.044  0.00  0.00    -0.680 N 
ATOM     23  H   LIG    1       -2.297  11.607  -4.921  0.00  0.00    +0.410 HD
ATOM     24  O   LIG    1       -3.497  13.533  -4.109  0.00  0.00    -0.500 OA
ATOM     25  C   LIG    1       -2.519  10.305  -3.422  0.00  0.00    +0.530 C 
ATOM     26  O   LIG    1       -1.871   9.436  -3.965  0.00  0.00    -0.490 OA
ENDBRANCH  17  18
ENDBRANCH   3  17
TORSDOF 5
