REMARK  Name = ZINCrD000000CEMi.0
REMARK                            x       y       z     vdW  Elec       q    Type
REMARK                         _______ _______ _______ _____ _____    ______ ____
ROOT
ATOM      1  O   LIG    1        4.737  -0.233  -0.149  0.00  0.00    -0.530 OA
ATOM      2  C   LIG    1        3.678  -0.820  -0.036  0.00  0.00    +0.570 C 
ATOM      3  N   LIG    1        3.659  -2.164   0.059  0.00  0.00    -0.610 N 
ATOM      4  C   LIG    1        2.386  -2.901   0.075  0.00  0.00    +0.280 C 
ATOM      5  C   LIG    1        2.459  -4.012  -0.985  0.00  0.00    +0.170 C 
ATOM      6  N   LIG    1        3.655  -4.832  -0.747  0.00  0.00    -0.530 NA
ATOM      7  C   LIG    1        4.883  -4.040  -0.902  0.00  0.00    +0.170 C 
ATOM      8  C   LIG    1        4.909  -2.932   0.156  0.00  0.00    +0.300 C 
ENDROOT
BRANCH   2   9
ATOM      9  C   LIG    1        2.414  -0.060  -0.003  0.00  0.00    -0.120 A 
ATOM     10  C   LIG    1        1.511  -0.232   1.037  0.00  0.00    +0.060 A 
ATOM     11  C   LIG    1        0.322   0.485   1.066  0.00  0.00    +0.000 A 
ATOM     12  C   LIG    1       -0.004   1.375   0.089  0.00  0.00    +0.050 A 
ATOM     13  C   LIG    1        0.863   1.599  -0.994  0.00  0.00    -0.060 A 
ATOM     14  C   LIG    1        0.541   2.514  -2.011  0.00  0.00    +0.030 A 
ATOM     15  C   LIG    1        1.406   2.704  -3.045  0.00  0.00    +0.020 A 
ATOM     16  C   LIG    1        2.608   2.004  -3.112  0.00  0.00    +0.020 A 
ATOM     17  C   LIG    1        2.954   1.110  -2.142  0.00  0.00    +0.030 A 
ATOM     18  C   LIG    1        2.087   0.890  -1.065  0.00  0.00    -0.020 A 
ENDBRANCH   2   9
BRANCH   6  19
ATOM     19  C   LIG    1        3.671  -6.007  -1.627  0.00  0.00    +0.160 C 
BRANCH  19  20
ATOM     20  C   LIG    1        2.289  -6.664  -1.627  0.00  0.00    +0.260 C 
BRANCH  20  21
ATOM     21  C   LIG    1        2.306  -7.870  -2.530  0.00  0.00    -0.120 A 
ATOM     22  C   LIG    1        2.745  -9.089  -2.048  0.00  0.00    +0.010 A 
ATOM     23  C   LIG    1        2.756 -10.196  -2.875  0.00  0.00    +0.000 A 
ATOM     24  C   LIG    1        2.337 -10.083  -4.188  0.00  0.00    +0.000 A 
ATOM     25  C   LIG    1        1.902  -8.863  -4.671  0.00  0.00    +0.000 A 
ATOM     26  C   LIG    1        1.887  -7.756  -3.843  0.00  0.00    +0.010 A 
ENDBRANCH  20  21
BRANCH  20  27
ATOM     27  O   LIG    1        1.955  -7.069  -0.298  0.00  0.00    -0.540 OA
ATOM     28  H   LIG    1        2.573  -7.705   0.087  0.00  0.00    +0.380 HD
ENDBRANCH  20  27
ENDBRANCH  19  20
ENDBRANCH   6  19
TORSDOF 5
