REMARK  Name = ZINCrm000010liNR.0
REMARK                            x       y       z     vdW  Elec       q    Type
REMARK                         _______ _______ _______ _____ _____    ______ ____
ROOT
ATOM      1  C   LIG    1        4.996   3.511   5.538  0.00  0.00    -0.110 A 
ATOM      2  C   LIG    1        3.879   3.587   6.286  0.00  0.00    -0.060 A 
ATOM      3  S   LIG    1        4.219   4.202   7.837  0.00  0.00    +0.340 S 
ATOM      4  C   LIG    1        5.880   4.381   7.507  0.00  0.00    -0.060 A 
ATOM      5  C   LIG    1        6.172   3.981   6.255  0.00  0.00    -0.110 A 
ENDROOT
BRANCH   1   7
ATOM      6  O   LIG    1        6.049   3.082   3.503  0.00  0.00    -0.460 OA
ATOM      7  C   LIG    1        5.023   3.016   4.152  0.00  0.00    +0.570 C 
ATOM      8  N   LIG    1        3.910   2.490   3.603  0.00  0.00    -0.730 N 
ATOM      9  H   LIG    1        3.092   2.438   4.121  0.00  0.00    +0.400 HD
BRANCH   8  10
ATOM     10  C   LIG    1        3.937   1.998   2.224  0.00  0.00    +0.270 C 
ATOM     11  C   LIG    1        4.350   0.508   2.194  0.00  0.00    +0.060 C 
ATOM     12  C   LIG    1        3.434  -0.085   1.093  0.00  0.00    +0.280 C 
ATOM     13  N   LIG    1        2.153   0.640   1.292  0.00  0.00    -0.370 N 
ATOM     14  H   LIG    1        1.636   0.231   2.056  0.00  0.00    +0.420 HD
ATOM     15  C   LIG    1        2.523   2.035   1.615  0.00  0.00    +0.270 C 
BRANCH  13  16
ATOM     16  C   LIG    1        1.353   0.601   0.060  0.00  0.00    +0.100 C 
ATOM     17  C   LIG    1        0.003   1.321   0.072  0.00  0.00    +0.100 C 
ATOM     18  C   LIG    1        0.055  -0.209   0.087  0.00  0.00    +0.110 C 
ENDBRANCH  13  16
ENDBRANCH   8  10
ENDBRANCH   1   7
BRANCH   5  19
ATOM     19  C   LIG    1        7.525   4.015   5.678  0.00  0.00    +0.570 C 
ATOM     20  N   LIG    1        8.578   4.351   6.449  0.00  0.00    -0.730 N 
ATOM     21  H   LIG    1        8.444   4.571   7.385  0.00  0.00    +0.400 HD
ATOM     22  O   LIG    1        7.694   3.739   4.505  0.00  0.00    -0.460 OA
BRANCH  20  23
ATOM     23  C   LIG    1        9.926   4.384   5.875  0.00  0.00    +0.270 C 
ATOM     24  C   LIG    1       10.200   5.760   5.233  0.00  0.00    +0.070 C 
ATOM     25  C   LIG    1       11.404   6.333   6.011  0.00  0.00    +0.270 C 
ATOM     26  N   LIG    1       12.093   5.139   6.567  0.00  0.00    -0.370 N 
ATOM     27  H   LIG    1       12.657   4.696   5.857  0.00  0.00    +0.430 HD
ATOM     28  C   LIG    1       10.986   4.242   6.988  0.00  0.00    +0.270 C 
BRANCH  26  29
ATOM     29  C   LIG    1       12.918   5.514   7.723  0.00  0.00    +0.100 C 
ATOM     30  C   LIG    1       14.437   5.403   7.572  0.00  0.00    +0.110 C 
ATOM     31  C   LIG    1       13.678   4.397   8.441  0.00  0.00    +0.100 C 
ENDBRANCH  26  29
ENDBRANCH  20  23
ENDBRANCH   5  19
TORSDOF 6
