REMARK  Name = ZINCrm000010liNR.1
REMARK                            x       y       z     vdW  Elec       q    Type
REMARK                         _______ _______ _______ _____ _____    ______ ____
ROOT
ATOM      1  C   LIG    1       -1.263  -0.755  -0.013  0.00  0.00    -0.110 A 
ATOM      2  C   LIG    1       -2.476  -0.184   0.110  0.00  0.00    -0.060 A 
ATOM      3  S   LIG    1       -3.711  -1.357   0.109  0.00  0.00    +0.340 S 
ATOM      4  C   LIG    1       -2.614  -2.650  -0.047  0.00  0.00    -0.060 A 
ATOM      5  C   LIG    1       -1.344  -2.206  -0.102  0.00  0.00    -0.110 A 
ENDROOT
BRANCH   1   7
ATOM      6  O   LIG    1        1.062  -0.592  -0.051  0.00  0.00    -0.460 OA
ATOM      7  C   LIG    1       -0.001  -0.001  -0.047  0.00  0.00    +0.570 C 
ATOM      8  N   LIG    1       -0.022   1.347  -0.074  0.00  0.00    -0.730 N 
ATOM      9  H   LIG    1       -0.869   1.819  -0.075  0.00  0.00    +0.400 HD
BRANCH   8  10
ATOM     10  C   LIG    1        1.235   2.099  -0.108  0.00  0.00    +0.270 C 
ATOM     11  C   LIG    1        1.683   2.329  -1.570  0.00  0.00    +0.070 C 
ATOM     12  C   LIG    1        1.162   3.756  -1.871  0.00  0.00    +0.270 C 
ATOM     13  N   LIG    1        1.376   4.474  -0.589  0.00  0.00    -0.370 N 
ATOM     14  H   LIG    1        2.341   4.755  -0.504  0.00  0.00    +0.430 HD
ATOM     15  C   LIG    1        1.031   3.508   0.477  0.00  0.00    +0.260 C 
BRANCH  13  16
ATOM     16  C   LIG    1        0.498   5.649  -0.511  0.00  0.00    +0.100 C 
ATOM     17  C   LIG    1        1.161   7.027  -0.488  0.00  0.00    +0.110 C 
ATOM     18  C   LIG    1        0.522   6.465   0.783  0.00  0.00    +0.090 C 
ENDBRANCH  13  16
ENDBRANCH   8  10
ENDBRANCH   1   7
BRANCH   5  19
ATOM     19  C   LIG    1       -0.173  -3.086  -0.237  0.00  0.00    +0.570 C 
ATOM     20  N   LIG    1       -0.343  -4.408  -0.436  0.00  0.00    -0.730 N 
ATOM     21  H   LIG    1       -1.237  -4.779  -0.491  0.00  0.00    +0.400 HD
ATOM     22  O   LIG    1        0.949  -2.621  -0.168  0.00  0.00    -0.460 OA
BRANCH  20  23
ATOM     23  C   LIG    1        0.824  -5.285  -0.571  0.00  0.00    +0.270 C 
ATOM     24  C   LIG    1        1.281  -5.806   0.818  0.00  0.00    +0.060 C 
ATOM     25  C   LIG    1        1.977  -7.138   0.435  0.00  0.00    +0.270 C 
ATOM     26  N   LIG    1        1.165  -7.688  -0.671  0.00  0.00    -0.360 N 
ATOM     27  H   LIG    1        0.499  -8.352  -0.305  0.00  0.00    +0.430 HD
ATOM     28  C   LIG    1        0.451  -6.577  -1.326  0.00  0.00    +0.260 C 
BRANCH  26  29
ATOM     29  C   LIG    1        2.042  -8.354  -1.643  0.00  0.00    +0.100 C 
ATOM     30  C   LIG    1        1.671  -9.776  -2.071  0.00  0.00    +0.100 C 
ATOM     31  C   LIG    1        2.871  -9.542  -1.150  0.00  0.00    +0.100 C 
ENDBRANCH  26  29
ENDBRANCH  20  23
ENDBRANCH   5  19
TORSDOF 6
