REMARK  Name = ZINCpe000000WVOt.1
REMARK                            x       y       z     vdW  Elec       q    Type
REMARK                         _______ _______ _______ _____ _____    ______ ____
ROOT
ATOM      1  N   LIG    1        2.212   5.042   1.445  0.00  0.00    -0.720 N 
ATOM      2  H   LIG    1        2.754   5.378   0.714  0.00  0.00    +0.400 HD
ATOM      3  C   LIG    1        1.874   5.857   2.464  0.00  0.00    +0.570 C 
ATOM      4  O   LIG    1        1.195   5.437   3.379  0.00  0.00    -0.520 OA
ENDROOT
BRANCH   3   5
ATOM      5  C   LIG    1        2.331   7.267   2.467  0.00  0.00    -0.070 A 
ATOM      6  C   LIG    1        3.114   7.771   1.422  0.00  0.00    -0.040 A 
ATOM      7  C   LIG    1        3.520   9.089   1.460  0.00  0.00    +0.300 A 
ATOM      8  N   LIG    1        3.181   9.875   2.464  0.00  0.00    -0.500 NA
ATOM      9  C   LIG    1        2.443   9.443   3.473  0.00  0.00    +0.320 A 
ATOM     10  C   LIG    1        1.988   8.129   3.509  0.00  0.00    +0.020 A 
BRANCH   9  11
ATOM     11  N   LIG    1        2.113  10.313   4.506  0.00  0.00    -0.480 N 
ATOM     12  C   LIG    1        0.656  10.391   4.685  0.00  0.00    +0.210 C 
ATOM     13  C   LIG    1        0.339  11.294   5.879  0.00  0.00    +0.190 C 
ATOM     14  N   LIG    1        0.910  12.628   5.646  0.00  0.00    -0.550 NA
ATOM     15  C   LIG    1        2.367  12.550   5.468  0.00  0.00    +0.180 C 
ATOM     16  C   LIG    1        0.562  13.547   6.738  0.00  0.00    +0.190 C 
ATOM     17  C   LIG    1        2.684  11.647   4.273  0.00  0.00    +0.220 C 
ENDBRANCH   9  11
ENDBRANCH   3   5
BRANCH   1  18
ATOM     18  C   LIG    1        1.760   3.648   1.442  0.00  0.00    +0.230 C 
ATOM     19  C   LIG    1        2.734   2.794   2.256  0.00  0.00    +0.040 C 
BRANCH  18  21
ATOM     20  C   LIG    1        0.734   3.986  -0.811  0.00  0.00    +0.070 C 
ATOM     21  C   LIG    1        1.708   3.132   0.003  0.00  0.00    +0.260 C 
BRANCH  21  22
ATOM     22  N   LIG    1        1.256   1.739  -0.001  0.00  0.00    -0.370 N 
ATOM     23  C   LIG    1       -0.016   1.304   0.009  0.00  0.00    +0.480 A 
ATOM     24  N   LIG    1        0.002  -0.004   0.002  0.00  0.00    -0.540 NA
ATOM     25  C   LIG    1        1.261  -0.439  -0.012  0.00  0.00    +0.420 A 
ATOM     26  N   LIG    1        2.066   0.591  -0.015  0.00  0.00    -0.310 NA
ENDBRANCH  21  22
ENDBRANCH  18  21
ENDBRANCH   1  18
TORSDOF 5
