REMARK  Name = ZINCrH000004lVbS.0
REMARK                            x       y       z     vdW  Elec       q    Type
REMARK                         _______ _______ _______ _____ _____    ______ ____
ROOT
ATOM      1  C   LIG    1        1.594  -3.209   3.252  0.00  0.00    +0.210 A 
ATOM      2  N   LIG    1        2.799  -2.699   3.278  0.00  0.00    -0.370 NA
ATOM      3  O   LIG    1        3.052  -2.175   2.214  0.00  0.00    +0.090 OA
ATOM      4  C   LIG    1        2.009  -2.292   1.385  0.00  0.00    +0.210 A 
ATOM      5  N   LIG    1        1.077  -2.949   2.029  0.00  0.00    -0.470 NA
ENDROOT
BRANCH   1  14
ATOM      6  C   LIG    1       -0.968  -5.110   5.268  0.00  0.00    +0.350 A 
ATOM      7  N   LIG    1       -0.349  -5.296   6.413  0.00  0.00    -0.530 NA
ATOM      8  C   LIG    1        0.892  -4.843   6.623  0.00  0.00    +0.170 A 
ATOM      9  C   LIG    1        1.538  -5.050   7.854  0.00  0.00    +0.030 A 
ATOM     10  C   LIG    1        2.801  -4.579   8.043  0.00  0.00    +0.040 A 
ATOM     11  C   LIG    1        3.469  -3.892   7.032  0.00  0.00    +0.010 A 
ATOM     12  C   LIG    1        2.873  -3.673   5.826  0.00  0.00    +0.060 A 
ATOM     13  C   LIG    1        1.577  -4.149   5.596  0.00  0.00    -0.110 A 
ATOM     14  C   LIG    1        0.922  -3.935   4.356  0.00  0.00    +0.070 A 
ATOM     15  C   LIG    1       -0.363  -4.430   4.207  0.00  0.00    +0.030 A 
BRANCH   6  17
ATOM     16  C   LIG    1       -2.801  -6.279   6.225  0.00  0.00    +0.260 C 
ATOM     17  O   LIG    1       -2.226  -5.592   5.112  0.00  0.00    -0.300 OA
ENDBRANCH   6  17
ENDBRANCH   1  14
BRANCH   4  18
ATOM     18  C   LIG    1        1.925  -1.772  -0.026  0.00  0.00    +0.270 C 
BRANCH  18  19
ATOM     19  C   LIG    1        1.366  -0.372  -0.013  0.00  0.00    -0.230 A 
ATOM     20  C   LIG    1        2.075   0.788  -0.013  0.00  0.00    +0.250 A 
ATOM     21  N   LIG    1        1.240   1.829   0.000  0.00  0.00    -0.540 NA
ATOM     22  C   LIG    1       -0.017   1.419   0.010  0.00  0.00    +0.250 A 
ATOM     23  N   LIG    1       -1.225   2.069   0.030  0.00  0.00    -0.490 N 
ATOM     24  H   LIG    1       -1.248   3.038   0.035  0.00  0.00    +0.430 HD
ATOM     25  C   LIG    1       -2.375   1.377   0.032  0.00  0.00    +0.330 A 
ATOM     26  C   LIG    1       -2.393   0.015   0.025  0.00  0.00    -0.060 A 
ATOM     27  C   LIG    1       -1.203  -0.703   0.010  0.00  0.00    +0.180 A 
ATOM     28  C   LIG    1        0.002  -0.004   0.002  0.00  0.00    -0.150 A 
ENDBRANCH  18  19
ENDBRANCH   4  18
TORSDOF 4
