REMARK  Name = ZINCrg000000n0Pk.0
REMARK                            x       y       z     vdW  Elec       q    Type
REMARK                         _______ _______ _______ _____ _____    ______ ____
ROOT
ATOM      1  N   LIG    1       -3.704   3.411  -5.593  0.00  0.00    -1.120 NA
ATOM      2  H   LIG    1       -3.330   3.898  -6.344  0.00  0.00    +0.420 HD
ENDROOT
BRANCH   1   7
ATOM      3  C   LIG    1       -3.804  -1.450  -7.923  0.00  0.00    +0.650 C 
ATOM      4  N   LIG    1       -4.160  -0.499  -7.037  0.00  0.00    -0.600 N 
ATOM      5  C   LIG    1       -5.261   0.427  -7.335  0.00  0.00    +0.310 C 
ATOM      6  C   LIG    1       -4.757   1.863  -7.167  0.00  0.00    +0.030 C 
ATOM      7  C   LIG    1       -4.157   2.029  -5.769  0.00  0.00    +0.240 C 
ATOM      8  C   LIG    1       -2.970   1.078  -5.605  0.00  0.00    +0.010 C 
ATOM      9  C   LIG    1       -3.454  -0.368  -5.755  0.00  0.00    +0.280 C 
ATOM     10  O   LIG    1       -4.395  -1.549  -8.979  0.00  0.00    -0.570 OA
BRANCH   3  11
ATOM     11  O   LIG    1       -2.793  -2.292  -7.636  0.00  0.00    -0.360 OA
BRANCH  11  13
ATOM     12  C   LIG    1       -2.064  -2.597  -9.940  0.00  0.00    +0.040 C 
ATOM     13  C   LIG    1       -2.464  -3.292  -8.637  0.00  0.00    +0.140 C 
ATOM     14  C   LIG    1       -3.682  -4.183  -8.887  0.00  0.00    +0.040 C 
ATOM     15  C   LIG    1       -1.299  -4.149  -8.137  0.00  0.00    +0.080 C 
ENDBRANCH  11  13
ENDBRANCH   3  11
ENDBRANCH   1   7
BRANCH   1  16
ATOM     16  S   LIG    1       -3.829   4.142  -4.112  0.00  0.00    +2.790 S 
ATOM     17  O   LIG    1       -3.281   5.444  -4.260  0.00  0.00    -0.970 OA
ATOM     18  O   LIG    1       -5.154   3.903  -3.658  0.00  0.00    -0.970 OA
BRANCH  16  19
ATOM     19  N   LIG    1       -2.826   3.327  -3.077  0.00  0.00    -1.010 NA
ATOM     20  C   LIG    1       -1.425   3.738  -2.914  0.00  0.00    +0.310 C 
ATOM     21  C   LIG    1       -1.147   3.963  -1.424  0.00  0.00    +0.050 C 
ATOM     22  C   LIG    1       -1.533   2.707  -0.641  0.00  0.00    +0.260 C 
ATOM     23  O   LIG    1       -0.767   1.591  -1.113  0.00  0.00    -0.370 OA
ATOM     24  C   LIG    1       -0.013   1.086   0.008  0.00  0.00    +0.200 C 
ATOM     25  C   LIG    1       -0.799   1.616   1.233  0.00  0.00    +0.200 C 
ATOM     26  C   LIG    1       -3.025   2.418  -0.821  0.00  0.00    +0.020 C 
ATOM     27  O   LIG    1       -1.251   2.908   0.753  0.00  0.00    -0.370 OA
ATOM     28  C   LIG    1       -3.319   2.178  -2.305  0.00  0.00    +0.300 C 
ENDBRANCH  16  19
ENDBRANCH   1  16
TORSDOF 5
