REMARK  Name = ZINCrg000000s5Z5.0
REMARK                            x       y       z     vdW  Elec       q    Type
REMARK                         _______ _______ _______ _____ _____    ______ ____
ROOT
ATOM      1  C   LIG    1        1.504  -6.242  -1.621  0.00  0.00    +0.060 C 
ENDROOT
BRANCH   1   2
ATOM      2  C   LIG    1        1.514  -7.548  -2.373  0.00  0.00    +0.510 C 
ATOM      3  N   LIG    1        2.682  -8.168  -2.632  0.00  0.00    -0.600 N 
ATOM      4  C   LIG    1        3.957  -7.564  -2.178  0.00  0.00    +0.280 C 
ATOM      5  C   LIG    1        4.450  -8.255  -0.976  0.00  0.00    -0.030 C 
ATOM      6  C   LIG    1        4.664  -9.757  -1.226  0.00  0.00    +0.310 C 
ATOM      7  N   LIG    1        3.382 -10.400  -1.182  0.00  0.00    -0.990 NA
ATOM      8  C   LIG    1        2.573 -10.638  -2.408  0.00  0.00    +0.290 C 
ATOM      9  C   LIG    1        2.689  -9.415  -3.344  0.00  0.00    +0.280 C 
ATOM     10  O   LIG    1        0.470  -8.041  -2.744  0.00  0.00    -0.530 OA
BRANCH   7  11
ATOM     11  S   LIG    1        2.783 -10.892   0.281  0.00  0.00    +2.600 S 
ATOM     12  O   LIG    1        3.939 -11.105   1.080  0.00  0.00    -0.950 OA
ATOM     13  O   LIG    1        1.908 -11.964  -0.041  0.00  0.00    -0.950 OA
ATOM     14  C   LIG    1        1.843  -9.465   0.890  0.00  0.00    -0.290 C 
ENDBRANCH   7  11
ENDBRANCH   1   2
BRANCH   1  15
ATOM     15  C   LIG    1        0.063  -5.755  -1.461  0.00  0.00    +0.130 C 
BRANCH  15  23
ATOM     16  C   LIG    1       -0.018   1.503   0.010  0.00  0.00    +0.170 C 
ATOM     17  C   LIG    1        0.002  -0.004   0.002  0.00  0.00    +0.120 A 
ATOM     18  N   LIG    1       -0.004  -0.761  -1.072  0.00  0.00    -0.310 NA
ATOM     19  N   LIG    1        0.023  -2.104  -0.678  0.00  0.00    -0.310 N 
ATOM     20  C   LIG    1        0.037  -2.135   0.693  0.00  0.00    +0.260 A 
ATOM     21  N   LIG    1        0.059  -3.303   1.348  0.00  0.00    -0.470 NA
ATOM     22  C   LIG    1        0.067  -4.441   0.693  0.00  0.00    +0.220 A 
ATOM     23  C   LIG    1        0.053  -4.449  -0.709  0.00  0.00    -0.200 A 
ATOM     24  C   LIG    1        0.091  -5.743   1.452  0.00  0.00    +0.160 C 
ATOM     25  C   LIG    1        0.032  -3.273  -1.383  0.00  0.00    +0.200 A 
ATOM     26  C   LIG    1        0.016  -3.257  -2.889  0.00  0.00    +0.160 C 
ATOM     27  C   LIG    1        0.024  -0.815   1.126  0.00  0.00    -0.110 A 
ENDBRANCH  15  23
ENDBRANCH   1  15
TORSDOF 4
