REMARK  Name = ZINCtV00000tRQy1.0
REMARK                            x       y       z     vdW  Elec       q    Type
REMARK                         _______ _______ _______ _____ _____    ______ ____
ROOT
ATOM      1  C   LIG    1       -0.791   3.922   1.253  0.00  0.00    -0.140 A 
ATOM      2  C   LIG    1       -1.920   4.367   0.602  0.00  0.00    +0.390 A 
ATOM      3  N   LIG    1       -2.073   5.679   0.254  0.00  0.00    -0.400 N 
ATOM      4  C   LIG    1       -3.091   6.360  -0.393  0.00  0.00    +0.020 A 
ATOM      5  C   LIG    1       -4.315   5.979  -0.921  0.00  0.00    +0.050 A 
ATOM      6  C   LIG    1       -5.128   6.918  -1.520  0.00  0.00    +0.020 A 
ATOM      7  C   LIG    1       -4.730   8.245  -1.598  0.00  0.00    +0.040 A 
ATOM      8  C   LIG    1       -3.519   8.644  -1.080  0.00  0.00    +0.060 A 
ATOM      9  C   LIG    1       -2.682   7.704  -0.469  0.00  0.00    +0.100 A 
ATOM     10  N   LIG    1       -1.464   7.789   0.117  0.00  0.00    -0.490 NA
ATOM     11  C   LIG    1       -1.094   6.597   0.548  0.00  0.00    +0.330 A 
ATOM     12  C   LIG    1        0.118   6.147   1.242  0.00  0.00    -0.040 A 
ATOM     13  C   LIG    1        0.232   4.799   1.585  0.00  0.00    +0.060 A 
ATOM     14  C   LIG    1        1.459   4.299   2.303  0.00  0.00    +0.140 C 
ENDROOT
BRANCH  12  15
ATOM     15  C   LIG    1        1.160   7.073   1.567  0.00  0.00    +0.270 C 
ATOM     16  N   LIG    1        1.987   7.808   1.825  0.00  0.00    -0.400 NA
ENDBRANCH  12  15
BRANCH   2  17
ATOM     17  N   LIG    1       -2.916   3.470   0.294  0.00  0.00    -0.680 N 
ATOM     18  H   LIG    1       -2.740   2.743  -0.324  0.00  0.00    +0.430 HD
BRANCH  17  19
ATOM     19  C   LIG    1       -4.181   3.605   0.872  0.00  0.00    +0.190 A 
ATOM     20  C   LIG    1       -4.391   4.541   1.877  0.00  0.00    -0.040 A 
ATOM     21  C   LIG    1       -5.644   4.675   2.443  0.00  0.00    +0.080 A 
ATOM     22  C   LIG    1       -6.687   3.872   2.017  0.00  0.00    -0.070 A 
ATOM     23  C   LIG    1       -6.480   2.936   1.019  0.00  0.00    +0.070 A 
ATOM     24 CL   LIG    1       -8.258   4.040   2.735  0.00  0.00    -0.070 Cl
ATOM     25  C   LIG    1       -5.230   2.800   0.446  0.00  0.00    -0.020 A 
ENDBRANCH  17  19
ENDBRANCH   2  17
BRANCH   1  26
ATOM     26  C   LIG    1       -0.668   2.465   1.617  0.00  0.00    +0.100 C 
BRANCH  26  27
ATOM     27  C   LIG    1        0.114   1.731   0.525  0.00  0.00    +0.010 C 
BRANCH  27  28
ATOM     28  C   LIG    1        0.239   0.252   0.893  0.00  0.00    +0.010 C 
BRANCH  28  30
ATOM     29  C   LIG    1        1.145  -1.962   0.171  0.00  0.00    +0.000 C 
ATOM     30  C   LIG    1        1.020  -0.482  -0.198  0.00  0.00    -0.010 C 
ENDBRANCH  28  30
ENDBRANCH  27  28
ENDBRANCH  26  27
ENDBRANCH   1  26
TORSDOF 7
