REMARK  Name = ZINCqH0000051zfb.0
REMARK                            x       y       z     vdW  Elec       q    Type
REMARK                         _______ _______ _______ _____ _____    ______ ____
ROOT
ATOM      1  O   LIG    1        8.359   0.241   0.577  0.00  0.00    -0.500 OA
ATOM      2  C   LIG    1        7.785   0.820   1.478  0.00  0.00    +0.520 C 
ENDROOT
BRANCH   2   3
ATOM      3  C   LIG    1        8.361   0.824   2.836  0.00  0.00    -0.120 A 
ATOM      4  C   LIG    1        7.705   1.494   3.873  0.00  0.00    +0.090 A 
ATOM      5  C   LIG    1        8.243   1.492   5.140  0.00  0.00    +0.010 A 
ATOM      6  C   LIG    1        9.443   0.832   5.387  0.00  0.00    +0.180 A 
ATOM      7  C   LIG    1       10.100   0.168   4.356  0.00  0.00    +0.020 A 
ATOM      8  C   LIG    1        9.566   0.162   3.088  0.00  0.00    +0.110 A 
BRANCH   6   9
ATOM      9  N   LIG    1        9.987   0.837   6.670  0.00  0.00    -0.570 N 
ATOM     10  C   LIG    1       10.914   1.908   7.015  0.00  0.00    +0.260 C 
ATOM     11  C   LIG    1       11.038   2.040   8.534  0.00  0.00    +0.030 C 
ATOM     12  C   LIG    1       11.334   0.656   9.124  0.00  0.00    +0.020 C 
ATOM     13  C   LIG    1       10.099  -0.228   8.928  0.00  0.00    +0.080 C 
ATOM     14  C   LIG    1        9.624  -0.136   7.507  0.00  0.00    +0.520 C 
ATOM     15  O   LIG    1        8.872  -0.995   7.097  0.00  0.00    -0.540 OA
ENDBRANCH   6   9
ENDBRANCH   2   3
BRANCH   2  16
ATOM     16  O   LIG    1        6.623   1.459   1.237  0.00  0.00    -0.350 OA
BRANCH  16  17
ATOM     17  C   LIG    1        6.116   1.413  -0.123  0.00  0.00    +0.390 C 
BRANCH  17  18
ATOM     18  C   LIG    1        4.819   2.176  -0.201  0.00  0.00    +0.240 A 
ATOM     19  N   LIG    1        4.717   3.443  -0.469  0.00  0.00    -0.450 NA
ATOM     20  C   LIG    1        3.402   3.790  -0.455  0.00  0.00    +0.010 A 
ATOM     21  C   LIG    1        2.716   4.987  -0.668  0.00  0.00    +0.090 A 
ATOM     22  C   LIG    1        1.342   5.012  -0.580  0.00  0.00    +0.020 A 
ATOM     23  C   LIG    1        0.636   3.856  -0.281  0.00  0.00    +0.060 A 
ATOM     24  C   LIG    1        1.301   2.666  -0.068  0.00  0.00    +0.050 A 
ATOM     25  C   LIG    1        2.684   2.623  -0.153  0.00  0.00    +0.020 A 
ATOM     26  O   LIG    1        3.603   1.643  -0.003  0.00  0.00    -0.200 OA
ENDBRANCH  17  18
ENDBRANCH  16  17
ENDBRANCH   2  16
TORSDOF 5
