REMARK  Name = ZINCqH0000001jL1.1
REMARK                            x       y       z     vdW  Elec       q    Type
REMARK                         _______ _______ _______ _____ _____    ______ ____
ROOT
ATOM      1  N   LIG    1       -1.994  -0.500   1.511  0.00  0.00    -0.710 N 
ATOM      2  H   LIG    1       -2.024  -0.888   2.399  0.00  0.00    +0.400 HD
ATOM      3  C   LIG    1       -1.834  -1.293   0.433  0.00  0.00    +0.550 C 
ATOM      4  O   LIG    1       -1.796  -0.806  -0.680  0.00  0.00    -0.510 OA
ENDROOT
BRANCH   3   5
ATOM      5  C   LIG    1       -1.705  -2.758   0.605  0.00  0.00    -0.060 A 
ATOM      6  C   LIG    1       -1.743  -3.314   1.886  0.00  0.00    +0.030 A 
ATOM      7  C   LIG    1       -1.629  -4.677   2.056  0.00  0.00    +0.140 A 
ATOM      8  C   LIG    1       -1.464  -5.499   0.945  0.00  0.00    -0.160 A 
ATOM      9  C   LIG    1       -1.332  -6.964   1.079  0.00  0.00    +0.550 A 
ATOM     10  N   LIG    1       -1.176  -7.698  -0.043  0.00  0.00    -0.610 N 
ATOM     11  H   LIG    1       -1.088  -8.662   0.027  0.00  0.00    +0.450 HD
ATOM     12  C   LIG    1       -1.140  -7.121  -1.254  0.00  0.00    +0.540 A 
ATOM     13  N   LIG    1       -1.254  -5.794  -1.432  0.00  0.00    -0.580 N 
ATOM     14  H   LIG    1       -1.222  -5.425  -2.329  0.00  0.00    +0.450 HD
ATOM     15  S   LIG    1       -0.938  -8.118  -2.631  0.00  0.00    -0.530 S 
ATOM     16  O   LIG    1       -1.363  -7.495   2.173  0.00  0.00    -0.470 OA
ATOM     17  C   LIG    1       -1.419  -4.945  -0.347  0.00  0.00    +0.160 A 
ATOM     18  C   LIG    1       -1.540  -3.575  -0.512  0.00  0.00    +0.070 A 
ENDBRANCH   3   5
BRANCH   1  19
ATOM     19  C   LIG    1       -2.121   0.950   1.341  0.00  0.00    +0.300 C 
BRANCH  19  20
ATOM     20  C   LIG    1       -2.872   1.528   2.513  0.00  0.00    -0.100 A 
ATOM     21  C   LIG    1       -2.634   1.055   3.789  0.00  0.00    +0.000 A 
ATOM     22  C   LIG    1       -3.319   1.589   4.864  0.00  0.00    +0.010 A 
ATOM     23  C   LIG    1       -4.250   2.590   4.662  0.00  0.00    +0.000 A 
ATOM     24  C   LIG    1       -4.493   3.060   3.385  0.00  0.00    +0.020 A 
ATOM     25  C   LIG    1       -3.804   2.529   2.310  0.00  0.00    +0.020 A 
ENDBRANCH  19  20
BRANCH  19  26
ATOM     26  C   LIG    1       -0.729   1.579   1.267  0.00  0.00    +0.030 C 
BRANCH  26  28
ATOM     27  C   LIG    1        1.423   1.615  -0.003  0.00  0.00    +0.000 C 
ATOM     28  C   LIG    1       -0.013   1.086   0.008  0.00  0.00    -0.020 C 
ATOM     29  C   LIG    1       -0.753   1.593  -1.232  0.00  0.00    +0.020 C 
ENDBRANCH  26  28
ENDBRANCH  19  26
ENDBRANCH   1  19
TORSDOF 5
