REMARK  Name = ZINC650000002wSj.0
REMARK                            x       y       z     vdW  Elec       q    Type
REMARK                         _______ _______ _______ _____ _____    ______ ____
ROOT
ATOM      1  C   LIG    1       -2.207   0.938  -1.076  0.00  0.00    +0.170 C 
ATOM      2  C   LIG    1       -3.060   1.575  -2.174  0.00  0.00    +0.100 C 
ENDROOT
BRANCH   1   4
ATOM      3  C   LIG    1       -4.117   0.546   0.321  0.00  0.00    +0.320 C 
ATOM      4  N   LIG    1       -2.811   1.212   0.235  0.00  0.00    -0.500 N 
ATOM      5  H   LIG    1       -2.934   2.208   0.347  0.00  0.00    +0.430 HD
ATOM      6  H   LIG    1       -2.207   0.864   0.964  0.00  0.00    +0.440 HD
ENDBRANCH   1   4
BRANCH   1   7
ATOM      7  C   LIG    1       -0.795   1.527  -1.120  0.00  0.00    +0.210 C 
BRANCH   7   8
ATOM      8  N   LIG    1       -0.012   1.005   0.008  0.00  0.00    -0.870 NA
ATOM      9  H   LIG    1        0.925   1.379   0.001  0.00  0.00    +0.370 HD
ATOM     10  H   LIG    1        0.002  -0.004   0.002  0.00  0.00    +0.350 HD
ENDBRANCH   7   8
ENDBRANCH   1   7
TORSDOF 3
