REMARK  Name = ZINC650000002wSj.1
REMARK                            x       y       z     vdW  Elec       q    Type
REMARK                         _______ _______ _______ _____ _____    ______ ____
ROOT
ATOM      1  C   LIG    1       -0.013   1.086   0.008  0.00  0.00    +0.170 C 
ATOM      2  C   LIG    1        1.423   1.615  -0.003  0.00  0.00    +0.140 C 
ENDROOT
BRANCH   1   4
ATOM      3  C   LIG    1       -0.107   1.002  -2.388  0.00  0.00    +0.350 C 
ATOM      4  N   LIG    1       -0.723   1.572  -1.182  0.00  0.00    -0.520 N 
ATOM      5  H   LIG    1       -0.666   2.579  -1.220  0.00  0.00    +0.440 HD
ATOM      6  H   LIG    1       -1.691   1.292  -1.134  0.00  0.00    +0.410 HD
ENDBRANCH   1   4
BRANCH   1   7
ATOM      7  C   LIG    1       -0.729   1.579   1.267  0.00  0.00    +0.310 C 
BRANCH   7   8
ATOM      8  N   LIG    1       -2.139   1.172   1.219  0.00  0.00    -0.650 N 
ATOM      9  H   LIG    1       -2.578   1.573   0.404  0.00  0.00    +0.420 HD
ATOM     10  H   LIG    1       -2.612   1.497   2.049  0.00  0.00    +0.460 HD
ATOM     11  H   LIG    1       -2.197   0.166   1.172  0.00  0.00    +0.450 HD
ENDBRANCH   7   8
ENDBRANCH   1   7
TORSDOF 3
