REMARK  Name = ZINCrH000004mNiu.0
REMARK                            x       y       z     vdW  Elec       q    Type
REMARK                         _______ _______ _______ _____ _____    ______ ____
ROOT
ATOM      1  N   LIG    1       -0.443  -7.572  -0.032  0.00  0.00    -0.560 N 
ATOM      2  C   LIG    1        0.462  -6.604   0.217  0.00  0.00    +0.520 C 
ATOM      3  O   LIG    1        1.620  -6.897   0.430  0.00  0.00    -0.510 OA
ENDROOT
BRANCH   1   7
ATOM      4  C   LIG    1        0.788 -11.540  -0.378  0.00  0.00    +0.130 A 
ATOM      5  C   LIG    1        0.000 -11.150   0.695  0.00  0.00    +0.000 A 
ATOM      6  C   LIG    1       -0.408  -9.836   0.810  0.00  0.00    +0.050 A 
ATOM      7  C   LIG    1       -0.029  -8.905  -0.148  0.00  0.00    +0.100 A 
ATOM      8  C   LIG    1        0.756  -9.297  -1.224  0.00  0.00    +0.060 A 
ATOM      9  C   LIG    1        1.168 -10.611  -1.335  0.00  0.00    -0.070 A 
BRANCH   4  11
ATOM     10  C   LIG    1        1.999 -13.166  -1.621  0.00  0.00    +0.250 C 
ATOM     11  O   LIG    1        1.189 -12.835  -0.491  0.00  0.00    -0.320 OA
ENDBRANCH   4  11
ENDBRANCH   1   7
BRANCH   2  12
ATOM     12  C   LIG    1        0.035  -5.159   0.232  0.00  0.00    +0.050 C 
BRANCH  12  13
ATOM     13  C   LIG    1        1.245  -4.273   0.536  0.00  0.00    +0.300 C 
BRANCH  13  14
ATOM     14  N   LIG    1        0.830  -2.868   0.550  0.00  0.00    -0.720 N 
ATOM     15  H   LIG    1       -0.096  -2.634   0.380  0.00  0.00    +0.410 HD
ATOM     16  C   LIG    1        1.735  -1.901   0.799  0.00  0.00    +0.610 C 
ATOM     17  O   LIG    1        2.896  -2.194   1.012  0.00  0.00    -0.510 OA
BRANCH  16  18
ATOM     18  C   LIG    1        1.319  -0.494   0.812  0.00  0.00    -0.090 A 
ATOM     19  C   LIG    1        2.129   0.579   1.050  0.00  0.00    +0.050 A 
ATOM     20  C   LIG    1        1.319   1.722   0.967  0.00  0.00    -0.060 A 
ATOM     21  C   LIG    1        0.066   1.302   0.686  0.00  0.00    +0.210 A 
ATOM     22  O   LIG    1        0.070  -0.034   0.594  0.00  0.00    -0.170 OA
ENDBRANCH  16  18
ENDBRANCH  13  14
ENDBRANCH  12  13
ENDBRANCH   2  12
BRANCH   1  23
ATOM     23  C   LIG    1       -1.859  -7.229  -0.180  0.00  0.00    +0.390 C 
BRANCH  23  24
ATOM     24  C   LIG    1       -2.155  -6.931  -1.628  0.00  0.00    -0.210 A 
ATOM     25  C   LIG    1       -2.542  -7.829  -2.535  0.00  0.00    +0.030 A 
ATOM     26  C   LIG    1       -2.755  -7.321  -3.805  0.00  0.00    +0.000 A 
ATOM     27  C   LIG    1       -2.542  -6.010  -3.929  0.00  0.00    -0.030 A 
ATOM     28  S   LIG    1       -2.049  -5.343  -2.378  0.00  0.00    +0.100 S 
ENDBRANCH  23  24
ENDBRANCH   1  23
TORSDOF 8
