REMARK  Name = ZINCpk000000nsKk.0
REMARK                            x       y       z     vdW  Elec       q    Type
REMARK                         _______ _______ _______ _____ _____    ______ ____
ROOT
ATOM      1  N   LIG    1        0.766   3.511   1.386  0.00  0.00    -0.600 N 
ATOM      2  C   LIG    1        1.418   3.544   2.565  0.00  0.00    +0.520 C 
ATOM      3  O   LIG    1        2.584   3.877   2.604  0.00  0.00    -0.500 OA
ENDROOT
BRANCH   1   4
ATOM      4  C   LIG    1        1.464   3.879   0.152  0.00  0.00    +0.280 C 
ATOM      5  C   LIG    1        2.735   3.024   0.003  0.00  0.00    +0.070 C 
ATOM      6  C   LIG    1        3.582   3.680  -1.119  0.00  0.00    -0.300 C 
ATOM      7  S   LIG    1        3.434   5.467  -0.736  0.00  0.00    +2.390 S 
ATOM      8  O   LIG    1        3.213   6.189  -1.940  0.00  0.00    -0.940 OA
ATOM      9  O   LIG    1        4.488   5.850   0.136  0.00  0.00    -0.920 OA
ATOM     10  C   LIG    1        1.871   5.364   0.209  0.00  0.00    -0.330 C 
ENDBRANCH   1   4
BRANCH   1  11
ATOM     11  C   LIG    1       -0.642   3.109   1.339  0.00  0.00    +0.270 C 
BRANCH  11  13
ATOM     12  C   LIG    1       -0.164   1.083  -0.043  0.00  0.00    +0.020 C 
ATOM     13  C   LIG    1       -0.735   1.583   1.286  0.00  0.00    -0.050 C 
ATOM     14  C   LIG    1       -2.199   1.156   1.405  0.00  0.00    +0.030 C 
ENDBRANCH  11  13
ENDBRANCH   1  11
BRANCH   2  15
ATOM     15  C   LIG    1        0.700   3.166   3.834  0.00  0.00    +0.240 C 
BRANCH  15  16
ATOM     16  O   LIG    1        1.597   3.279   4.941  0.00  0.00    -0.280 OA
BRANCH  16  17
ATOM     17  C   LIG    1        1.103   2.972   6.170  0.00  0.00    +0.140 A 
ATOM     18  C   LIG    1       -0.219   2.576   6.307  0.00  0.00    -0.060 A 
ATOM     19  C   LIG    1       -0.722   2.259   7.555  0.00  0.00    +0.080 A 
ATOM     20  C   LIG    1        0.090   2.344   8.673  0.00  0.00    -0.000 A 
ATOM     21  O   LIG    1       -0.158   2.095   9.993  0.00  0.00    -0.310 OA
ATOM     22  C   LIG    1        0.908   2.742  10.713  0.00  0.00    +0.430 C 
ATOM     23  O   LIG    1        1.999   2.751   9.774  0.00  0.00    -0.300 OA
ATOM     24  C   LIG    1        1.417   2.748   8.539  0.00  0.00    +0.080 A 
ATOM     25  C   LIG    1        1.920   3.060   7.287  0.00  0.00    +0.020 A 
ENDBRANCH  16  17
ENDBRANCH  15  16
ENDBRANCH   2  15
TORSDOF 6
