REMARK  Name = ZINCah0000003Y6d.0
REMARK                            x       y       z     vdW  Elec       q    Type
REMARK                         _______ _______ _______ _____ _____    ______ ____
ROOT
ATOM      1  O   LIG    1       -1.165  -0.701   0.010  0.00  0.00    -0.300 OA
ENDROOT
BRANCH   1   2
ATOM      2  C   LIG    1       -0.007   0.011   0.011  0.00  0.00    +0.100 A 
ATOM      3  C   LIG    1       -0.041   1.393   0.136  0.00  0.00    +0.010 A 
ATOM      4  C   LIG    1        1.137   2.114   0.138  0.00  0.00    +0.030 A 
ATOM      5  C   LIG    1        2.349   1.461   0.013  0.00  0.00    +0.020 A 
ATOM      6  C   LIG    1        2.385   0.084  -0.112  0.00  0.00    +0.020 A 
ATOM      7  C   LIG    1        1.210  -0.642  -0.114  0.00  0.00    +0.010 A 
ENDBRANCH   1   2
BRANCH   1  11
ATOM      8  N   LIG    1       -3.176  -1.155  -1.083  0.00  0.00    -0.820 N 
ATOM      9  H   LIG    1       -3.749  -1.063  -1.860  0.00  0.00    +0.430 HD
ATOM     10  H   LIG    1       -3.478  -1.666  -0.316  0.00  0.00    +0.410 HD
ATOM     11  C   LIG    1       -1.961  -0.573  -1.069  0.00  0.00    +0.650 C 
ATOM     12  O   LIG    1       -1.583   0.067  -2.030  0.00  0.00    -0.560 OA
ENDBRANCH   1  11
TORSDOF 2
