REMARK  Name = ZINCqH0000007HJ9.0
REMARK                            x       y       z     vdW  Elec       q    Type
REMARK                         _______ _______ _______ _____ _____    ______ ____
ROOT
ATOM      1  N   LIG    1       -3.326   8.176   0.077  0.00  0.00    -0.710 N 
ATOM      2  H   LIG    1       -3.514   7.225   0.074  0.00  0.00    +0.410 HD
ATOM      3  C   LIG    1       -2.051   8.612   0.066  0.00  0.00    +0.600 C 
ATOM      4  O   LIG    1       -1.815   9.805   0.070  0.00  0.00    -0.530 OA
ENDROOT
BRANCH   3   5
ATOM      5  C   LIG    1       -0.942   7.642   0.051  0.00  0.00    +0.010 A 
ATOM      6  C   LIG    1        0.355   8.024   0.040  0.00  0.00    -0.020 A 
ATOM      7  S   LIG    1        1.348   6.632   0.023  0.00  0.00    +0.200 S 
ATOM      8  C   LIG    1       -0.074   5.595   0.032  0.00  0.00    +0.090 A 
ATOM      9  N   LIG    1       -1.143   6.331   0.041  0.00  0.00    -0.440 NA
BRANCH   8  10
ATOM     10  C   LIG    1       -0.054   4.116   0.025  0.00  0.00    -0.040 A 
ATOM     11  C   LIG    1        1.163   3.433   0.009  0.00  0.00    +0.070 A 
ATOM     12  C   LIG    1        1.176   2.054   0.002  0.00  0.00    +0.000 A 
ATOM     13  C   LIG    1       -0.016   1.347   0.009  0.00  0.00    +0.120 A 
ATOM     14  C   LIG    1       -1.227   2.021   0.019  0.00  0.00    -0.010 A 
ATOM     15  F   LIG    1        0.002  -0.004   0.002  0.00  0.00    -0.130 F 
ATOM     16  C   LIG    1       -1.251   3.400   0.032  0.00  0.00    +0.110 A 
ENDBRANCH   8  10
ENDBRANCH   3   5
BRANCH   1  17
ATOM     17  C   LIG    1       -4.429   9.141   0.092  0.00  0.00    +0.300 C 
BRANCH  17  18
ATOM     18  C   LIG    1       -5.763   8.390   0.102  0.00  0.00    +0.210 C 
BRANCH  18  19
ATOM     19  O   LIG    1       -5.886   7.655   1.321  0.00  0.00    -0.310 OA
BRANCH  19  24
ATOM     20  C   LIG    1       -8.367   5.450   2.819  0.00  0.00    +0.170 A 
ATOM     21  C   LIG    1       -9.339   5.449   1.829  0.00  0.00    -0.110 A 
ATOM     22  C   LIG    1       -9.152   6.185   0.675  0.00  0.00    +0.090 A 
ATOM     23  C   LIG    1       -8.000   6.928   0.505  0.00  0.00    -0.120 A 
ATOM     24  C   LIG    1       -7.022   6.928   1.490  0.00  0.00    +0.170 A 
ATOM     25  C   LIG    1       -7.207   6.191   2.649  0.00  0.00    -0.050 A 
BRANCH  20  27
ATOM     26  C   LIG    1       -9.771   3.988   4.062  0.00  0.00    +0.250 C 
ATOM     27  O   LIG    1       -8.552   4.727   3.955  0.00  0.00    -0.310 OA
ENDBRANCH  20  27
ENDBRANCH  19  24
ENDBRANCH  18  19
ENDBRANCH  17  18
ENDBRANCH   1  17
TORSDOF 7
