REMARK  Name = ZINCvU0000000HYv.0
REMARK                            x       y       z     vdW  Elec       q    Type
REMARK                         _______ _______ _______ _____ _____    ______ ____
ROOT
ATOM      1  C   LIG    1        6.990   2.231  -1.187  0.00  0.00    +0.510 C 
ATOM      2  O   LIG    1        7.014   1.098  -1.626  0.00  0.00    -0.490 OA
ENDROOT
BRANCH   1   7
ATOM      3  C   LIG    1       11.374   5.821  -2.210  0.00  0.00    +0.110 C 
ATOM      4  C   LIG    1       10.228   4.880  -1.944  0.00  0.00    -0.070 A 
ATOM      5  C   LIG    1        9.146   5.307  -1.197  0.00  0.00    +0.030 A 
ATOM      6  C   LIG    1        8.092   4.451  -0.949  0.00  0.00    +0.080 A 
ATOM      7  C   LIG    1        8.117   3.149  -1.452  0.00  0.00    -0.120 A 
ATOM      8  C   LIG    1        9.212   2.716  -2.200  0.00  0.00    +0.110 A 
ATOM      9  C   LIG    1       10.262   3.586  -2.449  0.00  0.00    +0.130 A 
BRANCH   9  10
ATOM     10  N   LIG    1       11.360   3.159  -3.204  0.00  0.00    -0.660 N 
ATOM     11  H   LIG    1       12.249   3.482  -2.993  0.00  0.00    +0.420 HD
ATOM     12  C   LIG    1       11.181   2.297  -4.225  0.00  0.00    +0.610 C 
ATOM     13  O   LIG    1       10.080   1.824  -4.436  0.00  0.00    -0.490 OA
BRANCH  12  14
ATOM     14  C   LIG    1       12.314   1.930  -5.081  0.00  0.00    -0.090 A 
ATOM     15  C   LIG    1       12.272   1.074  -6.144  0.00  0.00    +0.050 A 
ATOM     16  C   LIG    1       13.572   1.018  -6.669  0.00  0.00    -0.060 A 
ATOM     17  C   LIG    1       14.341   1.833  -5.913  0.00  0.00    +0.210 A 
ATOM     18  O   LIG    1       13.578   2.385  -4.961  0.00  0.00    -0.170 OA
ENDBRANCH  12  14
ENDBRANCH   9  10
ENDBRANCH   1   7
BRANCH   1  19
ATOM     19  O   LIG    1        5.937   2.649  -0.459  0.00  0.00    -0.320 OA
BRANCH  19  20
ATOM     20  C   LIG    1        4.866   1.693  -0.239  0.00  0.00    +0.190 C 
ATOM     21  C   LIG    1        5.142   0.905   1.043  0.00  0.00    +0.070 C 
BRANCH  20  22
ATOM     22  C   LIG    1        3.557   2.427  -0.105  0.00  0.00    +0.520 C 
ATOM     23  N   LIG    1        2.405   1.736   0.005  0.00  0.00    -0.660 N 
ATOM     24  H   LIG    1        2.425   0.769   0.079  0.00  0.00    +0.420 HD
ATOM     25  O   LIG    1        3.540   3.640  -0.096  0.00  0.00    -0.490 OA
BRANCH  23  26
ATOM     26  C   LIG    1        1.180   2.414   0.012  0.00  0.00    +0.170 A 
ATOM     27  C   LIG    1        1.072   3.662  -0.586  0.00  0.00    +0.050 A 
ATOM     28  C   LIG    1       -0.138   4.329  -0.577  0.00  0.00    +0.070 A 
ATOM     29  C   LIG    1       -1.242   3.755   0.027  0.00  0.00    -0.040 A 
ATOM     30  C   LIG    1       -1.140   2.508   0.619  0.00  0.00    +0.070 A 
ATOM     31 CL   LIG    1       -2.760   4.596   0.036  0.00  0.00    -0.050 Cl
ATOM     32  C   LIG    1        0.069   1.839   0.618  0.00  0.00    -0.060 A 
ATOM     33 CL   LIG    1        0.199   0.278   1.367  0.00  0.00    -0.050 Cl
ENDBRANCH  23  26
ENDBRANCH  20  22
ENDBRANCH  19  20
ENDBRANCH   1  19
TORSDOF 7
