REMARK  Name = ZINCrD00000711oJ.0
REMARK                            x       y       z     vdW  Elec       q    Type
REMARK                         _______ _______ _______ _____ _____    ______ ____
ROOT
ATOM      1  C   LIG    1       -5.941   2.930   0.350  0.00  0.00    +0.500 C 
ATOM      2  O   LIG    1       -5.834   1.763   0.670  0.00  0.00    -0.480 OA
ENDROOT
BRANCH   1   6
ATOM      3  C   LIG    1       -9.787   4.731   0.136  0.00  0.00    -0.100 A 
ATOM      4  C   LIG    1       -9.665   3.391   0.502  0.00  0.00    +0.080 A 
ATOM      5  C   LIG    1       -8.418   2.807   0.572  0.00  0.00    +0.090 A 
ATOM      6  C   LIG    1       -7.279   3.556   0.275  0.00  0.00    -0.100 A 
ATOM      7  C   LIG    1       -7.402   4.899  -0.086  0.00  0.00    +0.080 A 
ATOM      8  C   LIG    1       -8.648   5.481  -0.161  0.00  0.00    +0.040 A 
BRANCH   3  11
ATOM      9  N   LIG    1      -11.245   6.654  -0.293  0.00  0.00    -0.720 N 
ATOM     10  H   LIG    1      -10.453   7.175  -0.499  0.00  0.00    +0.400 HD
ATOM     11  C   LIG    1      -11.126   5.359   0.061  0.00  0.00    +0.560 C 
ATOM     12  O   LIG    1      -12.118   4.706   0.320  0.00  0.00    -0.520 OA
BRANCH   9  14
ATOM     13  C   LIG    1      -13.243   7.203   1.006  0.00  0.00    +0.040 C 
ATOM     14  C   LIG    1      -12.570   7.275  -0.366  0.00  0.00    +0.170 C 
ATOM     15  C   LIG    1      -13.426   6.531  -1.393  0.00  0.00    +0.040 C 
ATOM     16  C   LIG    1      -12.425   8.738  -0.788  0.00  0.00    +0.040 C 
ENDBRANCH   9  14
ENDBRANCH   3  11
ENDBRANCH   1   6
BRANCH   1  17
ATOM     17  O   LIG    1       -4.842   3.653   0.064  0.00  0.00    -0.280 OA
BRANCH  17  18
ATOM     18  C   LIG    1       -3.656   2.989   0.035  0.00  0.00    +0.060 A 
ATOM     19  C   LIG    1       -3.399   2.073  -0.976  0.00  0.00    +0.040 A 
ATOM     20  C   LIG    1       -2.195   1.398  -1.007  0.00  0.00    +0.010 A 
ATOM     21  C   LIG    1       -1.239   1.640  -0.028  0.00  0.00    +0.170 A 
ATOM     22  N   LIG    1       -0.020   0.952  -0.055  0.00  0.00    -0.660 N 
ATOM     23  H   LIG    1        0.276   0.528  -0.875  0.00  0.00    +0.410 HD
ATOM     24  C   LIG    1        0.747   0.881   1.049  0.00  0.00    +0.520 C 
ATOM     25  C   LIG    1        0.301   1.515   2.339  0.00  0.00    +0.080 C 
ATOM     26  C   LIG    1       -0.462   2.808   2.047  0.00  0.00    +0.110 C 
ATOM     27  O   LIG    1        1.810   0.299   1.003  0.00  0.00    -0.520 OA
ATOM     28  C   LIG    1       -1.499   2.552   0.985  0.00  0.00    -0.110 A 
ATOM     29  C   LIG    1       -2.703   3.227   1.015  0.00  0.00    +0.060 A 
ENDBRANCH  17  18
ENDBRANCH   1  17
TORSDOF 5
