REMARK  Name = ZINCvU0000000I5d.0
REMARK                            x       y       z     vdW  Elec       q    Type
REMARK                         _______ _______ _______ _____ _____    ______ ____
ROOT
ATOM      1  C   LIG    1        0.371   7.439  -0.408  0.00  0.00    +0.190 A 
ATOM      2  N   LIG    1       -0.638   7.411   0.431  0.00  0.00    -0.470 NA
ATOM      3  C   LIG    1       -0.925   6.133   0.749  0.00  0.00    +0.070 A 
ATOM      4  C   LIG    1       -0.034   5.322   0.073  0.00  0.00    +0.040 A 
ATOM      5  N   LIG    1        0.780   6.165  -0.660  0.00  0.00    -0.540 N 
ATOM      6  H   LIG    1        1.507   5.899  -1.245  0.00  0.00    +0.430 HD
ENDROOT
BRANCH   4   7
ATOM      7  C   LIG    1        0.031   3.849   0.120  0.00  0.00    -0.020 A 
ATOM      8  C   LIG    1        1.258   3.206   0.304  0.00  0.00    +0.010 A 
ATOM      9  C   LIG    1        1.312   1.829   0.347  0.00  0.00    +0.010 A 
ATOM     10  C   LIG    1        0.154   1.083   0.208  0.00  0.00    +0.020 A 
ATOM     11  C   LIG    1       -1.064   1.713   0.021  0.00  0.00    +0.020 A 
ATOM     12  C   LIG    1       -1.133   3.090  -0.019  0.00  0.00    +0.050 A 
ENDBRANCH   4   7
BRANCH   3  13
ATOM     13  C   LIG    1       -2.000   5.680   1.661  0.00  0.00    -0.010 A 
ATOM     14  C   LIG    1       -3.259   6.278   1.611  0.00  0.00    +0.030 A 
ATOM     15  C   LIG    1       -4.258   5.849   2.461  0.00  0.00    +0.000 A 
ATOM     16  C   LIG    1       -4.009   4.835   3.369  0.00  0.00    +0.000 A 
ATOM     17  C   LIG    1       -2.761   4.241   3.427  0.00  0.00    +0.000 A 
ATOM     18  C   LIG    1       -1.756   4.658   2.579  0.00  0.00    +0.020 A 
ENDBRANCH   3  13
BRANCH   1  19
ATOM     19  S   LIG    1        1.083   8.896  -1.099  0.00  0.00    +0.060 S 
BRANCH  19  20
ATOM     20  C   LIG    1        0.041  10.155  -0.321  0.00  0.00    +0.120 C 
BRANCH  20  31
ATOM     21  C   LIG    1        0.015  14.201  -2.200  0.00  0.00    +0.050 C 
ATOM     22  C   LIG    1        0.179  13.998  -0.692  0.00  0.00    +0.230 C 
ATOM     23  C   LIG    1       -0.824  14.876   0.073  0.00  0.00    +0.100 C 
ATOM     24  C   LIG    1       -1.676  13.895   0.847  0.00  0.00    -0.130 A 
ATOM     25  C   LIG    1       -2.734  14.100   1.711  0.00  0.00    +0.060 A 
ATOM     26  C   LIG    1       -3.363  13.021   2.306  0.00  0.00    -0.010 A 
ATOM     27  C   LIG    1       -2.930  11.737   2.034  0.00  0.00    +0.050 A 
ATOM     28  C   LIG    1       -1.874  11.528   1.173  0.00  0.00    -0.020 A 
ATOM     29  C   LIG    1       -1.234  12.612   0.568  0.00  0.00    +0.140 A 
ATOM     30  N   LIG    1       -0.159  12.620  -0.326  0.00  0.00    -0.540 N 
ATOM     31  C   LIG    1        0.478  11.522  -0.778  0.00  0.00    +0.550 C 
ATOM     32  O   LIG    1        1.404  11.634  -1.554  0.00  0.00    -0.500 OA
ENDBRANCH  20  31
ENDBRANCH  19  20
ENDBRANCH   1  19
TORSDOF 5
