REMARK  Name = ZINCnE000001L6ft.2
REMARK                            x       y       z     vdW  Elec       q    Type
REMARK                         _______ _______ _______ _____ _____    ______ ____
ROOT
ATOM      1  N   LIG    1       -2.927   0.718   1.404  0.00  0.00    -0.460 NA
ATOM      2  C   LIG    1       -4.308   0.173   1.454  0.00  0.00    +0.140 C 
ATOM      3  C   LIG    1       -4.399  -0.533   2.824  0.00  0.00    +0.020 C 
ATOM      4  C   LIG    1       -2.941  -0.875   3.196  0.00  0.00    +0.030 C 
ATOM      5  C   LIG    1       -2.092  -0.346   2.019  0.00  0.00    +0.040 C 
ENDROOT
BRANCH   2   6
ATOM      6  C   LIG    1       -5.317   1.289   1.371  0.00  0.00    -0.060 A 
ATOM      7  C   LIG    1       -5.098   2.471   2.053  0.00  0.00    +0.060 A 
ATOM      8  C   LIG    1       -6.021   3.497   1.972  0.00  0.00    -0.010 A 
ATOM      9  C   LIG    1       -7.169   3.337   1.219  0.00  0.00    -0.020 A 
ATOM     10  C   LIG    1       -7.391   2.152   0.541  0.00  0.00    -0.020 A 
ATOM     11  C   LIG    1       -6.465   1.129   0.617  0.00  0.00    -0.010 A 
ENDBRANCH   2   6
BRANCH   5  12
ATOM     12  C   LIG    1       -0.795   0.230   2.524  0.00  0.00    +0.510 C 
ATOM     13  O   LIG    1        0.210  -0.460   2.550  0.00  0.00    -0.710 OA
ATOM     14  O   LIG    1       -0.749   1.387   2.907  0.00  0.00    -0.660 OA
ENDBRANCH   5  12
BRANCH   1  15
ATOM     15  C   LIG    1       -2.513   0.977   0.019  0.00  0.00    +0.190 C 
BRANCH  15  19
ATOM     16  C   LIG    1        1.155   3.169   0.008  0.00  0.00    +0.120 A 
ATOM     17  C   LIG    1        1.175   1.782   0.000  0.00  0.00    -0.020 A 
ATOM     18  C   LIG    1       -0.013   1.076   0.008  0.00  0.00    +0.080 A 
ATOM     19  C   LIG    1       -1.220   1.750   0.017  0.00  0.00    -0.090 A 
ATOM     20  C   LIG    1       -1.242   3.133   0.031  0.00  0.00    +0.060 A 
ATOM     21  C   LIG    1       -0.057   3.844   0.023  0.00  0.00    -0.090 A 
BRANCH  16  23
ATOM     22  C   LIG    1        2.225   5.292   0.009  0.00  0.00    +0.220 C 
ATOM     23  O   LIG    1        2.322   3.866   0.000  0.00  0.00    -0.320 OA
ENDBRANCH  16  23
ENDBRANCH  15  19
ENDBRANCH   1  15
TORSDOF 5
