REMARK  Name = ZINCrD000002XIi1.0
REMARK                            x       y       z     vdW  Elec       q    Type
REMARK                         _______ _______ _______ _____ _____    ______ ____
ROOT
ATOM      1  C   LIG    1        2.123   3.236  -2.917  0.00  0.00    +0.110 A 
ATOM      2  C   LIG    1        1.345   2.518  -2.035  0.00  0.00    -0.080 A 
ATOM      3  N   LIG    1        2.178   2.139  -0.999  0.00  0.00    -0.550 N 
ATOM      4  H   LIG    1        1.931   1.619  -0.219  0.00  0.00    +0.420 HD
ATOM      5  C   LIG    1        3.411   2.637  -1.282  0.00  0.00    +0.280 A 
ATOM      6  N   LIG    1        3.358   3.289  -2.426  0.00  0.00    -0.470 NA
ENDROOT
BRANCH   2   7
ATOM      7  C   LIG    1       -0.083   2.212  -2.171  0.00  0.00    +0.600 C 
ATOM      8  N   LIG    1       -0.884   2.239  -1.088  0.00  0.00    -0.610 N 
ATOM      9  C   LIG    1       -0.335   2.487   0.255  0.00  0.00    +0.230 C 
ATOM     10  C   LIG    1       -1.155   3.600   0.916  0.00  0.00    +0.210 C 
ATOM     11  O   LIG    1       -2.544   3.263   0.851  0.00  0.00    -0.350 OA
ATOM     12  C   LIG    1       -3.058   3.155  -0.478  0.00  0.00    +0.070 C 
ATOM     13  C   LIG    1       -2.831   4.472  -1.223  0.00  0.00    +0.000 C 
ATOM     14  C   LIG    1       -3.622   5.583  -0.526  0.00  0.00    +0.010 C 
ATOM     15  C   LIG    1       -5.100   5.190  -0.473  0.00  0.00    +0.210 C 
ATOM     16  O   LIG    1       -5.237   3.941   0.208  0.00  0.00    -0.370 OA
ATOM     17  C   LIG    1       -4.557   2.855  -0.425  0.00  0.00    +0.260 C 
ATOM     18  C   LIG    1       -2.334   2.022  -1.213  0.00  0.00    +0.280 C 
ATOM     19  O   LIG    1       -0.544   1.934  -3.263  0.00  0.00    -0.510 OA
ENDBRANCH   2   7
BRANCH   5  20
ATOM     20  C   LIG    1        4.617   2.472  -0.443  0.00  0.00    -0.020 A 
ATOM     21  C   LIG    1        4.544   1.761   0.756  0.00  0.00    +0.030 A 
ATOM     22  C   LIG    1        5.674   1.606   1.532  0.00  0.00    +0.030 A 
ATOM     23  C   LIG    1        6.876   2.164   1.129  0.00  0.00    -0.020 A 
ATOM     24  C   LIG    1        6.952   2.876  -0.056  0.00  0.00    +0.030 A 
ATOM     25 CL   LIG    1        8.292   1.971   2.115  0.00  0.00    -0.060 Cl
ATOM     26  C   LIG    1        5.831   3.033  -0.843  0.00  0.00    +0.090 A 
ENDBRANCH   5  20
BRANCH   1  28
ATOM     27  C   LIG    1        1.172   5.282  -3.946  0.00  0.00    +0.030 C 
ATOM     28  C   LIG    1        1.657   3.855  -4.210  0.00  0.00    +0.120 C 
ENDBRANCH   1  28
TORSDOF 3
