REMARK  Name = ZINCnE000001DA2p.0
REMARK                            x       y       z     vdW  Elec       q    Type
REMARK                         _______ _______ _______ _____ _____    ______ ____
ROOT
ATOM      1  N   LIG    1       -1.811   2.554   7.020  0.00  0.00    -0.700 NA
ATOM      2  C   LIG    1       -2.061   2.597   5.697  0.00  0.00    +0.650 C 
ATOM      3  N   LIG    1       -1.261   1.935   4.837  0.00  0.00    -0.680 N 
ATOM      4  H   LIG    1       -0.553   1.365   5.175  0.00  0.00    +0.400 HD
ATOM      5  O   LIG    1       -3.009   3.234   5.278  0.00  0.00    -0.610 OA
ENDROOT
BRANCH   3   6
ATOM      6  C   LIG    1       -1.454   2.069   3.456  0.00  0.00    +0.190 A 
ATOM      7  C   LIG    1       -1.194   1.001   2.608  0.00  0.00    -0.010 A 
ATOM      8  C   LIG    1       -1.381   1.129   1.241  0.00  0.00    +0.010 A 
ATOM      9  C   LIG    1       -1.835   2.334   0.709  0.00  0.00    +0.090 A 
ATOM     10  N   LIG    1       -2.101   2.707  -0.611  0.00  0.00    -0.660 N 
ATOM     11  H   LIG    1       -1.990   2.116  -1.372  0.00  0.00    +0.410 HD
ATOM     12  C   LIG    1       -2.528   3.977  -0.705  0.00  0.00    +0.530 C 
ATOM     13  C   LIG    1       -2.560   4.542   0.700  0.00  0.00    +0.130 C 
ATOM     14  O   LIG    1       -2.830   4.562  -1.723  0.00  0.00    -0.520 OA
ATOM     15  C   LIG    1       -2.092   3.398   1.570  0.00  0.00    -0.120 A 
ATOM     16  C   LIG    1       -1.905   3.273   2.928  0.00  0.00    +0.070 A 
ENDBRANCH   3   6
BRANCH   1  20
ATOM     17  C   LIG    1       -3.854   4.301   9.762  0.00  0.00    -0.320 A 
ATOM     18  C   LIG    1       -4.341   4.525   8.541  0.00  0.00    +0.230 A 
ATOM     19  N   LIG    1       -3.668   3.942   7.566  0.00  0.00    -0.560 NA
ATOM     20  C   LIG    1       -2.635   3.237   7.906  0.00  0.00    +0.350 A 
ATOM     21  S   LIG    1       -2.440   3.263   9.604  0.00  0.00    +0.020 S 
BRANCH  17  22
ATOM     22  C   LIG    1       -4.418   4.839  11.052  0.00  0.00    +0.110 C 
BRANCH  22  24
ATOM     23  C   LIG    1       -4.747   2.545  11.987  0.00  0.00    +0.010 C 
ATOM     24  C   LIG    1       -5.447   3.853  11.609  0.00  0.00    -0.020 C 
ATOM     25  C   LIG    1       -6.109   4.454  12.851  0.00  0.00    +0.010 C 
ENDBRANCH  22  24
ENDBRANCH  17  22
ENDBRANCH   1  20
TORSDOF 4
