REMARK  Name = ZINCqH0000001Fyu.0
REMARK                            x       y       z     vdW  Elec       q    Type
REMARK                         _______ _______ _______ _____ _____    ______ ____
ROOT
ATOM      1  N   LIG    1       -0.018   1.461   0.010  0.00  0.00    -0.730 N 
ATOM      2  H   LIG    1        0.816   1.957   0.005  0.00  0.00    +0.400 HD
ATOM      3  C   LIG    1       -1.194   2.119   0.019  0.00  0.00    +0.520 C 
ATOM      4  O   LIG    1       -2.236   1.498   0.021  0.00  0.00    -0.510 OA
ENDROOT
BRANCH   1   5
ATOM      5  C   LIG    1        0.002  -0.004   0.002  0.00  0.00    +0.290 C 
BRANCH   5   6
ATOM      6  C   LIG    1        1.302  -0.492   0.588  0.00  0.00    -0.100 A 
ATOM      7  C   LIG    1        2.484   0.157   0.282  0.00  0.00    +0.050 A 
ATOM      8  C   LIG    1        3.676  -0.286   0.823  0.00  0.00    -0.010 A 
ATOM      9  C   LIG    1        3.688  -1.387   1.662  0.00  0.00    +0.100 A 
ATOM     10  C   LIG    1        2.504  -2.040   1.963  0.00  0.00    -0.010 A 
ATOM     11  F   LIG    1        4.853  -1.825   2.187  0.00  0.00    -0.140 F 
ATOM     12  C   LIG    1        1.313  -1.592   1.425  0.00  0.00    +0.060 A 
ENDBRANCH   5   6
BRANCH   5  14
ATOM     13  C   LIG    1        1.099  -0.082  -2.241  0.00  0.00    +0.020 C 
ATOM     14  C   LIG    1       -0.130  -0.508  -1.437  0.00  0.00    -0.020 C 
ATOM     15  C   LIG    1       -0.235  -2.034  -1.435  0.00  0.00    +0.030 C 
ENDBRANCH   5  14
ENDBRANCH   1   5
BRANCH   3  16
ATOM     16  C   LIG    1       -1.214   3.626   0.028  0.00  0.00    +0.150 C 
BRANCH  16  17
ATOM     17  C   LIG    1       -2.642   4.109   0.037  0.00  0.00    +0.080 A 
ATOM     18  C   LIG    1       -3.103   4.948   0.974  0.00  0.00    -0.050 A 
ATOM     19  S   LIG    1       -4.803   5.268   0.636  0.00  0.00    +0.170 S 
ATOM     20  C   LIG    1       -4.718   4.210  -0.770  0.00  0.00    +0.100 A 
ATOM     21  N   LIG    1       -3.508   3.738  -0.874  0.00  0.00    -0.390 NA
BRANCH  20  22
ATOM     22  C   LIG    1       -5.837   3.910  -1.687  0.00  0.00    +0.390 A 
ATOM     23  N   LIG    1       -5.633   3.096  -2.715  0.00  0.00    -0.470 NA
ATOM     24  C   LIG    1       -6.614   2.804  -3.551  0.00  0.00    +0.330 A 
ATOM     25  C   LIG    1       -7.865   3.368  -3.350  0.00  0.00    -0.060 A 
ATOM     26  C   LIG    1       -8.043   4.219  -2.269  0.00  0.00    +0.340 A 
ATOM     27  N   LIG    1       -7.022   4.466  -1.467  0.00  0.00    -0.510 NA
ENDBRANCH  20  22
ENDBRANCH  16  17
ENDBRANCH   3  16
TORSDOF 6
