REMARK  Name = ZINCqH00000373iV.0
REMARK                            x       y       z     vdW  Elec       q    Type
REMARK                         _______ _______ _______ _____ _____    ______ ____
ROOT
ATOM      1  C   LIG    1       -0.014   1.209   0.009  0.00  0.00    +0.500 C 
ATOM      2  N   LIG    1        1.143   1.898   0.001  0.00  0.00    -0.720 N 
ATOM      3  H   LIG    1        1.130   2.868   0.007  0.00  0.00    +0.400 HD
ATOM      4  O   LIG    1        0.002  -0.004   0.002  0.00  0.00    -0.500 OA
ENDROOT
BRANCH   2   5
ATOM      5  C   LIG    1        2.422   1.183  -0.015  0.00  0.00    +0.300 C 
ATOM      6  C   LIG    1        3.505   2.082  -0.611  0.00  0.00    +0.020 C 
ATOM      7  C   LIG    1        4.653   1.251  -1.164  0.00  0.00    +0.020 C 
ATOM      8  C   LIG    1        5.444   0.528  -0.094  0.00  0.00    +0.230 C 
ATOM      9  O   LIG    1        4.638  -0.459   0.559  0.00  0.00    -0.320 OA
ATOM     10  C   LIG    1        3.899  -0.013   1.612  0.00  0.00    +0.070 A 
ATOM     11  C   LIG    1        4.254  -0.373   2.907  0.00  0.00    +0.090 A 
ATOM     12  C   LIG    1        3.527   0.119   3.978  0.00  0.00    +0.000 A 
ATOM     13  C   LIG    1        2.455   0.964   3.761  0.00  0.00    +0.050 A 
ATOM     14  C   LIG    1        2.098   1.315   2.471  0.00  0.00    +0.020 A 
ATOM     15  F   LIG    1        5.301  -1.199   3.120  0.00  0.00    -0.130 F 
ATOM     16  C   LIG    1        2.819   0.819   1.403  0.00  0.00    -0.100 A 
ENDBRANCH   2   5
BRANCH   1  18
ATOM     17  C   LIG    1       -1.429   2.829  -1.225  0.00  0.00    +0.070 C 
ATOM     18  C   LIG    1       -1.330   1.944   0.019  0.00  0.00    +0.250 C 
BRANCH  18  19
ATOM     19  N   LIG    1       -2.430   0.977   0.019  0.00  0.00    -0.480 N 
ATOM     20  C   LIG    1       -2.682   0.043  -0.937  0.00  0.00    +0.500 A 
ATOM     21  N   LIG    1       -3.736  -0.651  -0.618  0.00  0.00    -0.500 NA
ATOM     22  C   LIG    1       -4.238  -0.202   0.561  0.00  0.00    +0.050 A 
ATOM     23  C   LIG    1       -5.333  -0.571   1.345  0.00  0.00    +0.070 A 
ATOM     24  C   LIG    1       -5.588   0.089   2.514  0.00  0.00    +0.000 A 
ATOM     25  C   LIG    1       -4.768   1.127   2.934  0.00  0.00    +0.030 A 
ATOM     26  C   LIG    1       -3.681   1.509   2.176  0.00  0.00    +0.010 A 
ATOM     27  C   LIG    1       -3.407   0.850   0.986  0.00  0.00    +0.050 A 
ENDBRANCH  18  19
ENDBRANCH   1  18
TORSDOF 3
