REMARK  Name = ZINCrD0000074m3s.0
REMARK                            x       y       z     vdW  Elec       q    Type
REMARK                         _______ _______ _______ _____ _____    ______ ____
ROOT
ATOM      1  C   LIG    1       -0.319   3.917   0.522  0.00  0.00    +0.160 C 
ENDROOT
BRANCH   1   4
ATOM      2  C   LIG    1        0.005   1.093   0.014  0.00  0.00    +0.130 C 
ATOM      3  C   LIG    1       -0.709   1.575   1.250  0.00  0.00    +0.050 A 
ATOM      4  C   LIG    1       -0.864   2.902   1.494  0.00  0.00    -0.210 A 
ATOM      5  C   LIG    1       -1.539   3.328   2.656  0.00  0.00    +0.520 A 
ATOM      6  O   LIG    1       -2.033   2.452   3.546  0.00  0.00    -0.270 OA
ATOM      7  C   LIG    1       -1.910   1.120   3.366  0.00  0.00    +0.170 A 
ATOM      8  C   LIG    1       -2.425   0.229   4.295  0.00  0.00    -0.020 A 
ATOM      9  C   LIG    1       -2.286  -1.135   4.091  0.00  0.00    +0.170 A 
ATOM     10  C   LIG    1       -1.633  -1.619   2.960  0.00  0.00    -0.030 A 
ATOM     11  C   LIG    1       -1.119  -0.755   2.035  0.00  0.00    +0.110 A 
ATOM     12  O   LIG    1       -1.674   4.521   2.861  0.00  0.00    -0.460 OA
ATOM     13  C   LIG    1       -1.250   0.625   2.225  0.00  0.00    -0.160 A 
BRANCH   9  14
ATOM     14  O   LIG    1       -2.791  -2.006   5.001  0.00  0.00    -0.490 OA
ATOM     15  H   LIG    1       -2.171  -2.246   5.702  0.00  0.00    +0.400 HD
ENDBRANCH   9  14
ENDBRANCH   1   4
BRANCH   1  16
ATOM     16  C   LIG    1       -1.407   4.333  -0.433  0.00  0.00    +0.520 C 
ATOM     17  N   LIG    1       -1.148   5.239  -1.397  0.00  0.00    -0.670 N 
ATOM     18  H   LIG    1       -0.281   5.673  -1.434  0.00  0.00    +0.420 HD
ATOM     19  O   LIG    1       -2.517   3.853  -0.335  0.00  0.00    -0.500 OA
BRANCH  17  20
ATOM     20  C   LIG    1       -2.131   5.554  -2.344  0.00  0.00    +0.170 A 
ATOM     21  C   LIG    1       -3.468   5.578  -1.975  0.00  0.00    +0.070 A 
ATOM     22  C   LIG    1       -4.439   5.890  -2.909  0.00  0.00    +0.000 A 
ATOM     23  C   LIG    1       -4.079   6.178  -4.217  0.00  0.00    +0.030 A 
ATOM     24  O   LIG    1       -4.829   6.510  -5.309  0.00  0.00    -0.300 OA
ATOM     25  C   LIG    1       -3.904   7.086  -6.250  0.00  0.00    +0.440 C 
ATOM     26  O   LIG    1       -2.647   6.469  -5.914  0.00  0.00    -0.300 OA
ATOM     27  C   LIG    1       -2.737   6.153  -4.589  0.00  0.00    +0.070 A 
ATOM     28 CL   LIG    1       -6.112   5.921  -2.445  0.00  0.00    -0.040 Cl
ATOM     29  C   LIG    1       -1.766   5.847  -3.651  0.00  0.00    +0.030 A 
ENDBRANCH  17  20
ENDBRANCH   1  16
TORSDOF 4
