REMARK  Name = ZINCtV000002JPGb.0
REMARK                            x       y       z     vdW  Elec       q    Type
REMARK                         _______ _______ _______ _____ _____    ______ ____
ROOT
ATOM      1  N   LIG    1       -1.622  -1.407   1.174  0.00  0.00    -0.660 N 
ATOM      2  H   LIG    1       -1.266  -1.063   2.008  0.00  0.00    +0.410 HD
ATOM      3  C   LIG    1       -1.023  -1.097   0.007  0.00  0.00    +0.600 C 
ATOM      4  O   LIG    1       -1.411  -1.602  -1.029  0.00  0.00    -0.480 OA
ENDROOT
BRANCH   1   8
ATOM      5  C   LIG    1       -5.010  -3.837   1.197  0.00  0.00    -0.040 A 
ATOM      6  C   LIG    1       -4.104  -3.892   2.256  0.00  0.00    +0.080 A 
ATOM      7  C   LIG    1       -2.984  -3.087   2.245  0.00  0.00    -0.010 A 
ATOM      8  C   LIG    1       -2.759  -2.222   1.182  0.00  0.00    +0.150 A 
ATOM      9  C   LIG    1       -3.663  -2.162   0.128  0.00  0.00    +0.020 A 
ATOM     10  C   LIG    1       -4.781  -2.968   0.131  0.00  0.00    +0.050 A 
BRANCH   5  14
ATOM     11  C   LIG    1       -8.043  -7.254   3.093  0.00  0.00    +0.180 C 
ATOM     12  C   LIG    1       -7.567  -6.244   2.080  0.00  0.00    +0.050 A 
ATOM     13  N   LIG    1       -6.487  -5.551   2.186  0.00  0.00    -0.470 NA
ATOM     14  C   LIG    1       -6.216  -4.701   1.206  0.00  0.00    +0.110 A 
ATOM     15  C   LIG    1       -7.129  -4.696   0.214  0.00  0.00    -0.080 A 
ATOM     16  S   LIG    1       -8.383  -5.863   0.627  0.00  0.00    +0.130 S 
ENDBRANCH   5  14
ENDBRANCH   1   8
BRANCH   3  17
ATOM     17  C   LIG    1        0.103  -0.149  -0.013  0.00  0.00    -0.240 A 
ATOM     18  C   LIG    1        0.071   1.215  -0.163  0.00  0.00    +0.030 A 
ATOM     19  O   LIG    1        1.338   1.633  -0.116  0.00  0.00    +0.120 OA
ATOM     20  N   LIG    1        2.132   0.739   0.039  0.00  0.00    -0.320 NA
ATOM     21  C   LIG    1       -1.155   2.071  -0.352  0.00  0.00    +0.220 C 
ATOM     22  C   LIG    1        1.548  -0.430   0.123  0.00  0.00    +0.090 A 
BRANCH  22  23
ATOM     23  C   LIG    1        2.196  -1.750   0.314  0.00  0.00    -0.060 A 
ATOM     24  C   LIG    1        1.869  -2.818  -0.522  0.00  0.00    +0.140 A 
ATOM     25  C   LIG    1        2.481  -4.045  -0.341  0.00  0.00    +0.000 A 
ATOM     26  C   LIG    1        3.405  -4.217   0.672  0.00  0.00    +0.090 A 
ATOM     27  C   LIG    1        3.729  -3.163   1.507  0.00  0.00    +0.030 A 
ATOM     28  F   LIG    1        0.961  -2.653  -1.509  0.00  0.00    -0.110 F 
ATOM     29  C   LIG    1        3.130  -1.931   1.334  0.00  0.00    +0.020 A 
ATOM     30 CL   LIG    1        3.538  -0.610   2.384  0.00  0.00    -0.040 Cl
ENDBRANCH  22  23
ENDBRANCH   3  17
TORSDOF 4
