REMARK  Name = ZINCpe00000MJJ3i.0
REMARK                            x       y       z     vdW  Elec       q    Type
REMARK                         _______ _______ _______ _____ _____    ______ ____
ROOT
ATOM      1  N   LIG    1        0.002  -0.004   0.002  0.00  0.00    -0.510 NA
ATOM      2  C   LIG    1        0.559  -0.516  -1.256  0.00  0.00    +0.180 C 
ATOM      3  C   LIG    1        0.700  -2.038  -1.172  0.00  0.00    +0.040 C 
ATOM      4  C   LIG    1       -0.675  -2.658  -0.911  0.00  0.00    +0.000 C 
ATOM      5  C   LIG    1       -1.255  -2.072   0.379  0.00  0.00    +0.230 C 
ATOM      6  C   LIG    1       -1.338  -0.550   0.250  0.00  0.00    +0.220 C 
ENDROOT
BRANCH   5   7
ATOM      7  C   LIG    1       -2.634  -2.634   0.612  0.00  0.00    -0.020 A 
ATOM      8  N   LIG    1       -3.768  -1.972   0.614  0.00  0.00    -0.270 NA
ATOM      9  N   LIG    1       -4.727  -2.797   0.846  0.00  0.00    -0.250 N 
ATOM     10  H   LIG    1       -5.665  -2.552   0.895  0.00  0.00    +0.470 HD
ATOM     11  N   LIG    1       -4.274  -3.989   1.009  0.00  0.00    -0.280 NA
ATOM     12  C   LIG    1       -2.967  -3.965   0.877  0.00  0.00    +0.190 A 
ENDBRANCH   5   7
BRANCH   5  13
ATOM     13  O   LIG    1       -0.409  -2.412   1.480  0.00  0.00    -0.520 OA
ATOM     14  H   LIG    1       -0.310  -3.364   1.621  0.00  0.00    +0.370 HD
ENDBRANCH   5  13
BRANCH   1  15
ATOM     15  C   LIG    1       -0.018   1.465   0.010  0.00  0.00    +0.210 C 
BRANCH  15  18
ATOM     16  C   LIG    1        0.498   4.251   0.020  0.00  0.00    +0.270 C 
ATOM     17  N   LIG    1        1.624   3.315   0.004  0.00  0.00    -0.610 N 
ATOM     18  C   LIG    1        1.396   1.986  -0.001  0.00  0.00    +0.520 C 
ATOM     19  O   LIG    1        2.328   1.211  -0.014  0.00  0.00    -0.510 OA
BRANCH  17  20
ATOM     20  C   LIG    1        2.999   3.822  -0.006  0.00  0.00    +0.350 C 
BRANCH  20  21
ATOM     21  C   LIG    1        3.456   4.003  -1.430  0.00  0.00    -0.140 A 
ATOM     22  C   LIG    1        4.263   3.051  -2.024  0.00  0.00    +0.070 A 
ATOM     23  C   LIG    1        4.678   3.215  -3.333  0.00  0.00    +0.000 A 
ATOM     24  C   LIG    1        4.297   4.336  -4.045  0.00  0.00    +0.040 A 
ATOM     25  C   LIG    1        3.494   5.292  -3.451  0.00  0.00    -0.020 A 
ATOM     26  C   LIG    1        3.073   5.127  -2.143  0.00  0.00    +0.110 A 
ATOM     27  F   LIG    1        2.289   6.061  -1.562  0.00  0.00    -0.140 F 
ENDBRANCH  20  21
ENDBRANCH  17  20
ENDBRANCH  15  18
ENDBRANCH   1  15
TORSDOF 6
