REMARK  Name = ZINCrD00000e0Ip5.0
REMARK                            x       y       z     vdW  Elec       q    Type
REMARK                         _______ _______ _______ _____ _____    ______ ____
ROOT
ATOM      1  N   LIG    1       -1.156  -0.694   0.009  0.00  0.00    -0.720 N 
ATOM      2  H   LIG    1       -2.002  -0.220   0.020  0.00  0.00    +0.400 HD
ATOM      3  C   LIG    1        0.002  -0.004   0.002  0.00  0.00    +0.600 C 
ATOM      4  O   LIG    1        1.063  -0.598  -0.011  0.00  0.00    -0.540 OA
ENDROOT
BRANCH   1   9
ATOM      5  C   LIG    1       -4.070  -3.979   1.540  0.00  0.00    +0.210 C 
ATOM      6  N   LIG    1       -2.715  -4.372   1.130  0.00  0.00    -0.500 N 
ATOM      7  C   LIG    1       -2.527  -4.185  -0.310  0.00  0.00    +0.240 C 
ATOM      8  C   LIG    1       -2.441  -2.682  -0.603  0.00  0.00    -0.010 C 
ATOM      9  C   LIG    1       -1.136  -2.159   0.001  0.00  0.00    +0.290 C 
ATOM     10  C   LIG    1       -0.992  -2.666   1.414  0.00  0.00    -0.140 A 
ATOM     11  C   LIG    1       -0.064  -2.050   2.238  0.00  0.00    +0.040 A 
ATOM     12  C   LIG    1        0.113  -2.480   3.539  0.00  0.00    -0.020 A 
ATOM     13  C   LIG    1       -0.641  -3.533   4.025  0.00  0.00    +0.020 A 
ATOM     14  C   LIG    1       -1.568  -4.149   3.211  0.00  0.00    +0.000 A 
ATOM     15  C   LIG    1       -1.752  -3.717   1.897  0.00  0.00    +0.120 A 
ENDBRANCH   1   9
BRANCH   3  16
ATOM     16  C   LIG    1       -0.018   1.470   0.010  0.00  0.00    -0.300 A 
ATOM     17  C   LIG    1        1.082   2.305   0.004  0.00  0.00    +0.170 A 
ATOM     18  N   LIG    1        0.627   3.568   0.015  0.00  0.00    -0.360 N 
ATOM     19  N   LIG    1       -0.771   3.537   0.028  0.00  0.00    -0.290 NA
ATOM     20  C   LIG    1        1.457   4.776   0.015  0.00  0.00    +0.360 C 
ATOM     21  C   LIG    1       -1.166   2.293   0.019  0.00  0.00    +0.270 A 
BRANCH  17  22
ATOM     22  C   LIG    1        2.526   1.876  -0.012  0.00  0.00    +0.180 C 
BRANCH  22  23
ATOM     23  C   LIG    1        3.021   1.726   1.404  0.00  0.00    -0.080 A 
ATOM     24  C   LIG    1        3.594   2.804   2.054  0.00  0.00    +0.000 A 
ATOM     25  C   LIG    1        4.044   2.667   3.354  0.00  0.00    +0.000 A 
ATOM     26  C   LIG    1        3.929   1.451   4.001  0.00  0.00    +0.000 A 
ATOM     27  C   LIG    1        3.362   0.372   3.349  0.00  0.00    +0.000 A 
ATOM     28  C   LIG    1        2.908   0.510   2.050  0.00  0.00    +0.040 A 
ENDBRANCH  22  23
ENDBRANCH  17  22
ENDBRANCH   3  16
TORSDOF 4
