REMARK  Name = ZINCqH0000035NQG.0
REMARK                            x       y       z     vdW  Elec       q    Type
REMARK                         _______ _______ _______ _____ _____    ______ ____
ROOT
ATOM      1  C   LIG    1        1.649   5.372   2.737  0.00  0.00    +0.110 A 
ATOM      2  C   LIG    1        0.475   4.643   2.729  0.00  0.00    -0.030 A 
ATOM      3  C   LIG    1        0.307   3.581   1.848  0.00  0.00    -0.060 A 
ATOM      4  C   LIG    1        1.317   3.256   0.971  0.00  0.00    -0.100 A 
ATOM      5  C   LIG    1        1.195   2.125  -0.019  0.00  0.00    +0.330 C 
ATOM      6  N   LIG    1        0.009   1.320   0.295  0.00  0.00    -0.620 N 
ATOM      7  C   LIG    1       -1.233   2.044   0.613  0.00  0.00    +0.320 C 
ATOM      8  C   LIG    1        0.054  -0.027   0.286  0.00  0.00    +0.720 C 
ATOM      9  N   LIG    1        1.173  -0.661  -0.114  0.00  0.00    -0.680 N 
ATOM     10  H   LIG    1        1.971  -0.152  -0.325  0.00  0.00    +0.410 HD
ATOM     11  O   LIG    1       -0.916  -0.669   0.640  0.00  0.00    -0.560 OA
ATOM     12  C   LIG    1        2.501   3.984   0.977  0.00  0.00    -0.030 A 
ATOM     13  C   LIG    1       -0.995   2.826   1.909  0.00  0.00    +0.070 C 
ATOM     14  C   LIG    1        2.673   5.038   1.854  0.00  0.00    +0.100 A 
ENDROOT
BRANCH   9  15
ATOM     15  C   LIG    1        1.184  -2.059  -0.228  0.00  0.00    +0.160 A 
ATOM     16  C   LIG    1       -0.011  -2.758  -0.319  0.00  0.00    +0.090 A 
ATOM     17  C   LIG    1        0.000  -4.135  -0.435  0.00  0.00    +0.050 A 
ATOM     18  C   LIG    1        1.203  -4.820  -0.451  0.00  0.00    +0.070 A 
ATOM     19  C   LIG    1        2.399  -4.126  -0.355  0.00  0.00    +0.060 A 
ATOM     20  F   LIG    1        3.572  -4.796  -0.370  0.00  0.00    -0.110 F 
ATOM     21  F   LIG    1        1.210  -6.167  -0.559  0.00  0.00    -0.120 F 
ATOM     22  C   LIG    1        2.392  -2.746  -0.243  0.00  0.00    +0.050 A 
ATOM     23  F   LIG    1        3.557  -2.069  -0.150  0.00  0.00    -0.120 F 
ENDBRANCH   9  15
BRANCH   1  25
ATOM     24  C   LIG    1        0.711   6.692   4.478  0.00  0.00    +0.240 C 
ATOM     25  O   LIG    1        1.804   6.409   3.602  0.00  0.00    -0.300 OA
ENDBRANCH   1  25
BRANCH  14  26
ATOM     26  O   LIG    1        3.835   5.745   1.855  0.00  0.00    -0.300 OA
ATOM     27  C   LIG    1        4.839   5.343   0.921  0.00  0.00    +0.240 C 
ENDBRANCH  14  26
TORSDOF 3
