REMARK  Name = ZINCc70000002xaF.1
REMARK                            x       y       z     vdW  Elec       q    Type
REMARK                         _______ _______ _______ _____ _____    ______ ____
ROOT
ATOM      1  C   LIG    1       -2.190   2.034  -3.211  0.00  0.00    -0.800 A 
ATOM      2  C   LIG    1       -1.296   2.986  -2.939  0.00  0.00    +0.170 A 
ATOM      3  C   LIG    1       -0.500   2.741  -1.834  0.00  0.00    +0.000 A 
ATOM      4  C   LIG    1       -0.742   1.585  -1.213  0.00  0.00    -0.140 A 
ATOM      5  S   LIG    1       -2.046   0.737  -2.033  0.00  0.00    +0.210 S 
ENDROOT
BRANCH   1   6
ATOM      6  S   LIG    1       -3.338   2.071  -4.547  0.00  0.00    +2.720 S 
ATOM      7  O   LIG    1       -3.513   3.439  -4.889  0.00  0.00    -0.950 OA
ATOM      8  O   LIG    1       -4.413   1.219  -4.175  0.00  0.00    -0.950 OA
BRANCH   6  10
ATOM      9  C   LIG    1       -2.251  -0.067  -5.797  0.00  0.00    +0.300 C 
ATOM     10  N   LIG    1       -2.602   1.354  -5.846  0.00  0.00    -1.120 NA
ATOM     11  H   LIG    1       -2.404   1.876  -6.639  0.00  0.00    +0.420 HD
ENDBRANCH   6  10
ENDBRANCH   1   6
BRANCH   4  12
ATOM     12  C   LIG    1       -0.013   1.086   0.008  0.00  0.00    +0.270 C 
BRANCH  12  13
ATOM     13  N   LIG    1       -0.700   1.560   1.217  0.00  0.00    -0.840 NA
ATOM     14  H   LIG    1       -0.230   1.238   2.050  0.00  0.00    +0.350 HD
ATOM     15  H   LIG    1       -1.669   1.277   1.216  0.00  0.00    +0.350 HD
ENDBRANCH  12  13
ENDBRANCH   4  12
TORSDOF 4
