REMARK  Name = ZINCtV000002O83Q.1
REMARK                            x       y       z     vdW  Elec       q    Type
REMARK                         _______ _______ _______ _____ _____    ______ ____
ROOT
ATOM      1  C   LIG    1        1.167   3.081  -0.169  0.00  0.00    -0.170 A 
ATOM      2  C   LIG    1       -0.023   3.813  -0.167  0.00  0.00    +0.070 A 
ATOM      3  C   LIG    1       -1.232   3.160  -0.065  0.00  0.00    +0.000 A 
ATOM      4  C   LIG    1       -1.276   1.779   0.030  0.00  0.00    +0.090 A 
ATOM      5  C   LIG    1       -0.109   1.041   0.034  0.00  0.00    -0.020 A 
ATOM      6  C   LIG    1        1.119   1.682  -0.067  0.00  0.00    +0.220 A 
ENDROOT
BRANCH   1   8
ATOM      7  O   LIG    1        3.497   3.132  -0.278  0.00  0.00    -0.510 OA
ATOM      8  C   LIG    1        2.463   3.773  -0.277  0.00  0.00    +0.570 C 
ATOM      9  N   LIG    1        2.504   5.117  -0.374  0.00  0.00    -0.670 N 
ATOM     10  H   LIG    1        1.689   5.635  -0.284  0.00  0.00    +0.420 HD
BRANCH   9  11
ATOM     11  C   LIG    1        3.722   5.765  -0.605  0.00  0.00    +0.160 A 
ATOM     12  C   LIG    1        3.962   7.014  -0.048  0.00  0.00    +0.010 A 
ATOM     13  C   LIG    1        5.168   7.650  -0.274  0.00  0.00    +0.070 A 
ATOM     14  C   LIG    1        6.132   7.049  -1.063  0.00  0.00    -0.050 A 
ATOM     15  C   LIG    1        5.893   5.805  -1.625  0.00  0.00    -0.010 A 
ATOM     16 CL   LIG    1        7.105   5.054  -2.614  0.00  0.00    -0.040 Cl
ATOM     17 CL   LIG    1        7.643   7.854  -1.349  0.00  0.00    -0.040 Cl
ATOM     18  C   LIG    1        4.691   5.163  -1.398  0.00  0.00    +0.050 A 
ENDBRANCH   9  11
ENDBRANCH   1   8
BRANCH   6  19
ATOM     19  N   LIG    1        2.294   0.941  -0.068  0.00  0.00    -1.040 N 
ATOM     20  H   LIG    1        3.088   1.291   0.366  0.00  0.00    +0.440 HD
BRANCH  19  21
ATOM     21  S   LIG    1        2.340  -0.539  -0.809  0.00  0.00    +2.690 S 
ATOM     22  O   LIG    1        1.272  -1.297  -0.258  0.00  0.00    -0.940 OA
ATOM     23  O   LIG    1        3.695  -0.964  -0.772  0.00  0.00    -0.930 OA
BRANCH  21  24
ATOM     24  C   LIG    1        1.945  -0.284  -2.507  0.00  0.00    -0.670 A 
ATOM     25  C   LIG    1        2.951  -0.025  -3.419  0.00  0.00    +0.160 A 
ATOM     26  C   LIG    1        2.642   0.175  -4.752  0.00  0.00    +0.040 A 
ATOM     27  C   LIG    1        1.326   0.115  -5.174  0.00  0.00    +0.020 A 
ATOM     28  C   LIG    1        0.319  -0.144  -4.260  0.00  0.00    -0.050 A 
ATOM     29 CL   LIG    1       -1.334  -0.220  -4.787  0.00  0.00    -0.030 Cl
ATOM     30 CL   LIG    1        0.938   0.366  -6.847  0.00  0.00    -0.030 Cl
ATOM     31  C   LIG    1        0.630  -0.349  -2.928  0.00  0.00    +0.160 A 
ENDBRANCH  21  24
ENDBRANCH  19  21
ENDBRANCH   6  19
TORSDOF 5
