REMARK  Name = ZINCpk00000KfLwR.0
REMARK                            x       y       z     vdW  Elec       q    Type
REMARK                         _______ _______ _______ _____ _____    ______ ____
ROOT
ATOM      1  N   LIG    1        1.365   1.594  -0.002  0.00  0.00    -0.520 NA
ATOM      2  C   LIG    1        2.057   1.215  -1.242  0.00  0.00    +0.180 C 
ATOM      3  C   LIG    1        3.459   1.829  -1.249  0.00  0.00    +0.190 C 
ATOM      4  N   LIG    1        4.202   1.361  -0.071  0.00  0.00    -0.530 NA
ATOM      5  C   LIG    1        3.510   1.741   1.169  0.00  0.00    +0.190 C 
ATOM      6  C   LIG    1        2.108   1.127   1.176  0.00  0.00    +0.200 C 
ENDROOT
BRANCH   1   7
ATOM      7  C   LIG    1       -0.013   1.086   0.008  0.00  0.00    +0.250 C 
ATOM      8  C   LIG    1       -0.729   1.579   1.267  0.00  0.00    +0.080 C 
BRANCH   7  13
ATOM      9  C   LIG    1       -2.890   1.342  -4.116  0.00  0.00    +0.240 C 
ATOM     10  C   LIG    1       -1.971   1.695  -2.975  0.00  0.00    +0.160 A 
ATOM     11  N   LIG    1       -1.457   2.867  -2.733  0.00  0.00    -0.290 NA
ATOM     12  N   LIG    1       -0.726   2.803  -1.676  0.00  0.00    -0.260 NA
ATOM     13  C   LIG    1       -0.742   1.585  -1.213  0.00  0.00    +0.160 A 
ATOM     14  O   LIG    1       -1.531   0.857  -2.020  0.00  0.00    -0.230 OA
ENDBRANCH   7  13
ENDBRANCH   1   7
BRANCH   4  15
ATOM     15  C   LIG    1        5.580   1.870  -0.081  0.00  0.00    +0.160 C 
BRANCH  15  16
ATOM     16  C   LIG    1        6.185   1.676  -1.473  0.00  0.00    +0.220 C 
BRANCH  16  17
ATOM     17  O   LIG    1        6.188   0.286  -1.802  0.00  0.00    -0.540 OA
ATOM     18  H   LIG    1        6.699  -0.262  -1.190  0.00  0.00    +0.380 HD
ENDBRANCH  16  17
BRANCH  16  19
ATOM     19  C   LIG    1        7.620   2.206  -1.484  0.00  0.00    +0.170 C 
BRANCH  19  20
ATOM     20  O   LIG    1        8.145   2.132  -2.811  0.00  0.00    -0.300 OA
BRANCH  20  21
ATOM     21  C   LIG    1        9.419   2.567  -2.996  0.00  0.00    +0.130 A 
ATOM     22  C   LIG    1       10.148   3.060  -1.923  0.00  0.00    -0.080 A 
ATOM     23  C   LIG    1       11.444   3.496  -2.112  0.00  0.00    +0.040 A 
ATOM     24  C   LIG    1       12.013   3.452  -3.371  0.00  0.00    -0.040 A 
ATOM     25  C   LIG    1       11.287   2.967  -4.443  0.00  0.00    +0.050 A 
ATOM     26  C   LIG    1        9.992   2.524  -4.258  0.00  0.00    -0.020 A 
ENDBRANCH  20  21
ENDBRANCH  19  20
ENDBRANCH  16  19
ENDBRANCH  15  16
ENDBRANCH   4  15
TORSDOF 8
