REMARK  Name = ZINCnE000001Tyhp.0
REMARK                            x       y       z     vdW  Elec       q    Type
REMARK                         _______ _______ _______ _____ _____    ______ ____
ROOT
ATOM      1  C   LIG    1       -5.242   3.402  -3.317  0.00  0.00    -0.020 C 
ATOM      2  C   LIG    1       -5.566   2.435  -2.176  0.00  0.00    +0.020 C 
ATOM      3  C   LIG    1       -5.185   3.082  -0.840  0.00  0.00    +0.270 C 
ATOM      4  N   LIG    1       -3.776   3.494  -0.899  0.00  0.00    -0.610 N 
ATOM      5  C   LIG    1       -3.339   4.356  -2.006  0.00  0.00    +0.250 C 
ATOM      6  C   LIG    1       -2.903   3.094   0.046  0.00  0.00    +0.520 C 
ATOM      7  O   LIG    1       -3.253   2.308   0.901  0.00  0.00    -0.540 OA
ATOM      8  C   LIG    1       -3.739   3.691  -3.331  0.00  0.00    +0.020 C 
ENDROOT
BRANCH   6   9
ATOM      9  C   LIG    1       -1.492   3.623   0.041  0.00  0.00    +0.000 C 
ATOM     10  C   LIG    1       -0.681   2.924   1.134  0.00  0.00    +0.040 C 
ATOM     11  C   LIG    1       -1.323   3.194   2.497  0.00  0.00    +0.040 C 
ATOM     12  C   LIG    1       -1.342   4.701   2.762  0.00  0.00    +0.020 C 
ATOM     13  C   LIG    1       -2.153   5.400   1.669  0.00  0.00    -0.020 C 
ATOM     14  C   LIG    1       -1.512   5.130   0.306  0.00  0.00    +0.060 C 
BRANCH  13  15
ATOM     15  C   LIG    1       -2.172   6.907   1.934  0.00  0.00    +0.450 C 
ATOM     16  F   LIG    1       -2.759   7.154   3.180  0.00  0.00    -0.180 F 
ATOM     17  F   LIG    1       -2.914   7.547   0.935  0.00  0.00    -0.180 F 
ATOM     18  F   LIG    1       -0.863   7.398   1.929  0.00  0.00    -0.180 F 
ENDBRANCH  13  15
ENDBRANCH   6   9
BRANCH   1  19
ATOM     19  C   LIG    1       -5.653   2.774  -4.650  0.00  0.00    +0.030 C 
BRANCH  19  20
ATOM     20  C   LIG    1       -5.445   3.787  -5.777  0.00  0.00    -0.070 C 
BRANCH  20  22
ATOM     21  O   LIG    1       -6.266   2.022  -7.121  0.00  0.00    -0.700 OA
ATOM     22  C   LIG    1       -5.850   3.168  -7.090  0.00  0.00    +0.490 C 
ATOM     23  O   LIG    1       -5.761   3.813  -8.121  0.00  0.00    -0.710 OA
ENDBRANCH  20  22
ENDBRANCH  19  20
ENDBRANCH   1  19
TORSDOF 5
