REMARK  Name = ZINCkj000005iKEB.0
REMARK                            x       y       z     vdW  Elec       q    Type
REMARK                         _______ _______ _______ _____ _____    ______ ____
ROOT
ATOM      1  C   LIG    1       -3.011   4.116  -1.369  0.00  0.00    +0.520 C 
ATOM      2  N   LIG    1       -4.172   4.760  -1.601  0.00  0.00    -0.620 N 
ATOM      3  C   LIG    1       -4.990   5.208  -0.470  0.00  0.00    +0.280 C 
ATOM      4  C   LIG    1       -6.465   4.831  -0.673  0.00  0.00    +0.060 C 
ATOM      5  C   LIG    1       -6.863   5.310  -2.054  0.00  0.00    -0.010 C 
ATOM      6  C   LIG    1       -8.293   5.029  -2.500  0.00  0.00    +0.270 C 
ATOM      7  N   LIG    1       -8.220   4.771  -3.962  0.00  0.00    -0.520 N 
ATOM      8  C   LIG    1       -6.788   4.817  -4.374  0.00  0.00    +0.290 C 
ATOM      9  H   LIG    1       -8.740   5.479  -4.459  0.00  0.00    +0.430 HD
ATOM     10  H   LIG    1       -8.604   3.861  -4.167  0.00  0.00    +0.430 HD
ATOM     11  C   LIG    1       -6.034   4.487  -3.083  0.00  0.00    -0.020 C 
ATOM     12  C   LIG    1       -4.607   5.002  -2.993  0.00  0.00    +0.320 C 
ATOM     13  O   LIG    1       -2.331   3.738  -2.299  0.00  0.00    -0.510 OA
ENDROOT
BRANCH   1  14
ATOM     14  C   LIG    1       -2.559   3.865   0.047  0.00  0.00    +0.120 C 
BRANCH  14  19
ATOM     15  C   LIG    1        1.155   3.169   0.008  0.00  0.00    +0.130 A 
ATOM     16  C   LIG    1        1.175   1.782   0.000  0.00  0.00    -0.070 A 
ATOM     17  C   LIG    1       -0.013   1.076   0.008  0.00  0.00    +0.050 A 
ATOM     18  C   LIG    1       -1.219   1.750   0.017  0.00  0.00    -0.020 A 
ATOM     19  C   LIG    1       -1.242   3.133   0.031  0.00  0.00    -0.040 A 
ATOM     20  C   LIG    1       -0.057   3.844   0.023  0.00  0.00    -0.010 A 
BRANCH  15  22
ATOM     21  C   LIG    1        3.532   3.106  -0.014  0.00  0.00    +0.250 C 
ATOM     22  O   LIG    1        2.322   3.866   0.001  0.00  0.00    -0.320 OA
ENDBRANCH  15  22
ENDBRANCH  14  19
ENDBRANCH   1  14
TORSDOF 3
