REMARK  Name = ZINCnE000001UbEh.0
REMARK                            x       y       z     vdW  Elec       q    Type
REMARK                         _______ _______ _______ _____ _____    ______ ____
ROOT
ATOM      1  C   LIG    1        0.002  -0.004   0.002  0.00  0.00    +0.480 A 
ATOM      2  N   LIG    1       -0.015   1.284   0.009  0.00  0.00    -0.550 NA
ATOM      3  C   LIG    1        1.169   1.931   0.001  0.00  0.00    +0.180 A 
ATOM      4  C   LIG    1        1.414   3.321   0.007  0.00  0.00    +0.050 A 
ATOM      5  C   LIG    1        2.702   3.805  -0.002  0.00  0.00    +0.060 A 
ATOM      6  C   LIG    1        3.785   2.924  -0.017  0.00  0.00    -0.010 A 
ATOM      7  O   LIG    1        4.941   3.653  -0.023  0.00  0.00    -0.310 OA
ATOM      8  C   LIG    1        4.563   4.975   0.403  0.00  0.00    +0.430 C 
ATOM      9  C   LIG    1        3.562   1.562  -0.023  0.00  0.00    +0.100 A 
ATOM     10  O   LIG    1        3.185   5.084   0.001  0.00  0.00    -0.310 OA
ATOM     11  C   LIG    1        2.263   1.062  -0.014  0.00  0.00    -0.180 A 
ATOM     12  S   LIG    1        1.658  -0.594  -0.017  0.00  0.00    -0.120 S 
ENDROOT
BRANCH   1  13
ATOM     13  N   LIG    1       -1.121  -0.808   0.008  0.00  0.00    -1.010 NA
BRANCH  13  15
ATOM     14  O   LIG    1       -0.390  -2.795  -1.259  0.00  0.00    -1.000 OA
ATOM     15  S   LIG    1       -0.960  -2.456  -0.003  0.00  0.00    +2.620 S 
ATOM     16  O   LIG    1       -0.367  -2.809   1.240  0.00  0.00    -1.000 OA
BRANCH  15  17
ATOM     17  C   LIG    1       -2.584  -3.139   0.008  0.00  0.00    -0.610 A 
ATOM     18  C   LIG    1       -3.208  -3.419   1.210  0.00  0.00    +0.130 A 
ATOM     19  C   LIG    1       -4.484  -3.949   1.219  0.00  0.00    +0.010 A 
ATOM     20  C   LIG    1       -5.133  -4.211   0.027  0.00  0.00    +0.070 A 
ATOM     21  C   LIG    1       -4.506  -3.937  -1.176  0.00  0.00    -0.060 A 
ATOM     22 CL   LIG    1       -5.321  -4.265  -2.674  0.00  0.00    -0.070 Cl
ATOM     23  C   LIG    1       -3.231  -3.401  -1.185  0.00  0.00    +0.140 A 
ENDBRANCH  15  17
ENDBRANCH  13  15
ENDBRANCH   1  13
TORSDOF 3
