REMARK  Name = ZINCvU000000076M.0
REMARK                            x       y       z     vdW  Elec       q    Type
REMARK                         _______ _______ _______ _____ _____    ______ ____
ROOT
ATOM      1  C   LIG    1       -0.969  -5.403  -3.267  0.00  0.00    +0.580 C 
ATOM      2  N   LIG    1       -2.024  -5.462  -4.104  0.00  0.00    -0.610 N 
ATOM      3  C   LIG    1       -2.771  -4.304  -4.627  0.00  0.00    +0.250 C 
ATOM      4  C   LIG    1       -3.411  -4.810  -5.946  0.00  0.00    +0.040 C 
ATOM      5  C   LIG    1       -3.782  -6.269  -5.569  0.00  0.00    +0.050 C 
ATOM      6  C   LIG    1       -2.623  -6.692  -4.642  0.00  0.00    +0.270 C 
ATOM      7  O   LIG    1       -0.366  -6.418  -2.977  0.00  0.00    -0.510 OA
ENDROOT
BRANCH   6   8
ATOM      8  C   LIG    1       -3.150  -7.541  -3.514  0.00  0.00    -0.080 A 
ATOM      9  C   LIG    1       -3.790  -6.945  -2.443  0.00  0.00    +0.020 A 
ATOM     10  C   LIG    1       -4.277  -7.719  -1.404  0.00  0.00    +0.020 A 
ATOM     11  C   LIG    1       -4.120  -9.094  -1.440  0.00  0.00    +0.070 A 
ATOM     12  O   LIG    1       -4.596  -9.868  -0.423  0.00  0.00    -0.320 OA
ATOM     13  C   LIG    1       -3.609 -10.508   0.390  0.00  0.00    +0.230 C 
ATOM     14  C   LIG    1       -3.154 -11.813  -0.242  0.00  0.00    -0.020 C 
ATOM     15  C   LIG    1       -2.437 -11.597  -1.566  0.00  0.00    +0.230 C 
ATOM     16  O   LIG    1       -3.326 -11.048  -2.541  0.00  0.00    -0.320 OA
ATOM     17  C   LIG    1       -3.476  -9.692  -2.515  0.00  0.00    +0.070 A 
ATOM     18  C   LIG    1       -2.996  -8.916  -3.555  0.00  0.00    +0.040 A 
ENDBRANCH   6   8
BRANCH   1  21
ATOM     19  C   LIG    1       -1.066  -1.850  -2.053  0.00  0.00    +0.120 A 
ATOM     20  C   LIG    1       -1.465  -3.060  -2.587  0.00  0.00    -0.030 A 
ATOM     21  C   LIG    1       -0.546  -4.107  -2.702  0.00  0.00    -0.090 A 
ATOM     22  C   LIG    1        0.773  -3.924  -2.281  0.00  0.00    +0.070 A 
ATOM     23  C   LIG    1        1.166  -2.711  -1.754  0.00  0.00    -0.030 A 
ATOM     24 CL   LIG    1        2.806  -2.485  -1.231  0.00  0.00    -0.030 Cl
ATOM     25  C   LIG    1        0.253  -1.671  -1.640  0.00  0.00    +0.100 A 
BRANCH  19  27
ATOM     26  C   LIG    1       -3.294  -1.085  -2.379  0.00  0.00    +0.250 C 
ATOM     27  O   LIG    1       -1.960  -0.832  -1.936  0.00  0.00    -0.290 OA
ENDBRANCH  19  27
BRANCH  25  28
ATOM     28  O   LIG    1        0.644  -0.479  -1.120  0.00  0.00    -0.310 OA
BRANCH  28  29
ATOM     29  C   LIG    1        1.147   0.495  -2.037  0.00  0.00    +0.150 C 
ATOM     30  C   LIG    1       -0.008   1.360  -2.545  0.00  0.00    +0.030 C 
ATOM     31  C   LIG    1        2.174   1.380  -1.328  0.00  0.00    +0.060 C 
ENDBRANCH  28  29
ENDBRANCH  25  28
ENDBRANCH   1  21
TORSDOF 5
