REMARK  Name = ZINCrH000004mTGk.0
REMARK                            x       y       z     vdW  Elec       q    Type
REMARK                         _______ _______ _______ _____ _____    ______ ____
ROOT
ATOM      1  N   LIG    1        3.382   1.299  -1.358  0.00  0.00    -1.010 NA
ATOM      2  C   LIG    1        3.117   0.614  -2.656  0.00  0.00    +0.330 C 
ATOM      3  C   LIG    1        4.600   0.709  -2.865  0.00  0.00    -0.010 C 
ATOM      4  C   LIG    1        5.253   1.081  -4.185  0.00  0.00    +0.030 C 
ATOM      5  C   LIG    1        6.612   1.710  -3.831  0.00  0.00    +0.010 C 
ATOM      6  C   LIG    1        6.477   2.907  -2.898  0.00  0.00    +0.010 C 
ATOM      7  C   LIG    1        5.669   2.567  -1.629  0.00  0.00    +0.060 C 
ATOM      8  C   LIG    1        4.332   2.052  -2.119  0.00  0.00    +0.210 C 
ENDROOT
BRANCH   8   9
ATOM      9  C   LIG    1        3.662   3.041  -3.037  0.00  0.00    -0.080 A 
ATOM     10  C   LIG    1        2.406   3.531  -2.728  0.00  0.00    +0.010 A 
ATOM     11  C   LIG    1        1.794   4.442  -3.568  0.00  0.00    +0.000 A 
ATOM     12  C   LIG    1        2.433   4.856  -4.722  0.00  0.00    +0.000 A 
ATOM     13  C   LIG    1        3.686   4.362  -5.034  0.00  0.00    +0.000 A 
ATOM     14  C   LIG    1        4.300   3.455  -4.191  0.00  0.00    +0.030 A 
ENDBRANCH   8   9
BRANCH   1  15
ATOM     15  S   LIG    1        2.844   1.220   0.206  0.00  0.00    +2.720 S 
ATOM     16  O   LIG    1        2.186  -0.032   0.342  0.00  0.00    -0.950 OA
ATOM     17  O   LIG    1        3.934   1.618   1.026  0.00  0.00    -0.930 OA
BRANCH  15  22
ATOM     18  C   LIG    1       -0.688   3.065   0.752  0.00  0.00    +0.070 A 
ATOM     19  C   LIG    1       -0.345   4.407   0.688  0.00  0.00    +0.030 A 
ATOM     20  C   LIG    1        0.970   4.774   0.472  0.00  0.00    -0.050 A 
ATOM     21  C   LIG    1        1.946   3.800   0.325  0.00  0.00    +0.190 A 
ATOM     22  C   LIG    1        1.603   2.458   0.394  0.00  0.00    -0.680 A 
ATOM     23  C   LIG    1        0.289   2.091   0.610  0.00  0.00    +0.140 A 
BRANCH  18  25
ATOM     24  C   LIG    1       -2.937   3.759   1.097  0.00  0.00    +0.240 C 
ATOM     25  O   LIG    1       -1.983   2.703   0.960  0.00  0.00    -0.310 OA
ENDBRANCH  18  25
BRANCH  21  26
ATOM     26  O   LIG    1        3.240   4.161   0.112  0.00  0.00    -0.300 OA
ATOM     27  C   LIG    1        3.521   5.561   0.052  0.00  0.00    +0.260 C 
ENDBRANCH  21  26
ENDBRANCH  15  22
ENDBRANCH   1  15
TORSDOF 5
