REMARK  Name = ZINCqH0000035R2W.0
REMARK                            x       y       z     vdW  Elec       q    Type
REMARK                         _______ _______ _______ _____ _____    ______ ____
ROOT
ATOM      1  C   LIG    1       -4.989  -2.614  -0.151  0.00  0.00    +0.570 C 
ATOM      2  N   LIG    1       -6.093  -1.902   0.150  0.00  0.00    -0.610 N 
ATOM      3  C   LIG    1       -6.041  -0.438   0.158  0.00  0.00    +0.300 C 
ATOM      4  O   LIG    1       -5.053  -3.824  -0.245  0.00  0.00    -0.520 OA
ENDROOT
BRANCH   1   8
ATOM      5  C   LIG    1       -1.287  -0.628  -0.775  0.00  0.00    +0.220 A 
ATOM      6  C   LIG    1       -2.464  -0.067  -1.256  0.00  0.00    -0.060 A 
ATOM      7  C   LIG    1       -3.666  -0.708  -1.056  0.00  0.00    +0.160 A 
ATOM      8  C   LIG    1       -3.702  -1.924  -0.368  0.00  0.00    -0.170 A 
ATOM      9  C   LIG    1       -2.517  -2.484   0.114  0.00  0.00    +0.210 A 
ATOM     10  C   LIG    1       -1.318  -1.840  -0.095  0.00  0.00    -0.090 A 
BRANCH  10  11
ATOM     11  N   LIG    1       -0.060  -2.436   0.410  0.00  0.00    +0.030 N 
ATOM     12  O   LIG    1        1.000  -1.865   0.230  0.00  0.00    -0.130 OA
ATOM     13  O   LIG    1       -0.086  -3.498   1.006  0.00  0.00    -0.170 OA
ENDBRANCH  10  11
BRANCH   5  15
ATOM     14  C   LIG    1       -0.144   1.244  -1.686  0.00  0.00    +0.280 C 
ATOM     15  O   LIG    1       -0.104   0.006  -0.975  0.00  0.00    -0.280 OA
ENDBRANCH   5  15
ENDBRANCH   1   8
BRANCH   2  16
ATOM     16  C   LIG    1       -7.345  -2.592   0.469  0.00  0.00    +0.300 C 
BRANCH  16  17
ATOM     17  C   LIG    1       -7.413  -2.853   1.976  0.00  0.00    +0.020 C 
BRANCH  17  18
ATOM     18  C   LIG    1       -8.721  -3.574   2.309  0.00  0.00    +0.200 C 
BRANCH  18  19
ATOM     19  O   LIG    1       -8.785  -3.818   3.716  0.00  0.00    -0.310 OA
BRANCH  19  20
ATOM     20  C   LIG    1       -9.891  -4.455   4.182  0.00  0.00    +0.140 A 
ATOM     21  C   LIG    1      -10.897  -4.833   3.304  0.00  0.00    -0.060 A 
ATOM     22  C   LIG    1      -12.018  -5.484   3.779  0.00  0.00    +0.070 A 
ATOM     23  C   LIG    1      -12.143  -5.752   5.131  0.00  0.00    -0.070 A 
ATOM     24  C   LIG    1      -11.144  -5.371   6.009  0.00  0.00    +0.070 A 
ATOM     25 CL   LIG    1      -13.557  -6.566   5.726  0.00  0.00    -0.070 Cl
ATOM     26  C   LIG    1      -10.019  -4.724   5.537  0.00  0.00    +0.000 A 
ENDBRANCH  19  20
ENDBRANCH  18  19
ENDBRANCH  17  18
ENDBRANCH  16  17
ENDBRANCH   2  16
TORSDOF 8
