REMARK  Name = ZINCqH0000007Yuh.0
REMARK                            x       y       z     vdW  Elec       q    Type
REMARK                         _______ _______ _______ _____ _____    ______ ____
ROOT
ATOM      1  C   LIG    1        0.533   3.946   4.734  0.00  0.00    +0.560 C 
ATOM      2  N   LIG    1        0.056   4.266   5.953  0.00  0.00    -0.730 N 
ATOM      3  H   LIG    1       -0.853   4.028   6.196  0.00  0.00    +0.400 HD
ATOM      4  O   LIG    1        1.672   4.244   4.430  0.00  0.00    -0.520 OA
ENDROOT
BRANCH   1   7
ATOM      5  C   LIG    1       -0.642   2.232   1.606  0.00  0.00    -0.660 A 
ATOM      6  C   LIG    1        0.167   2.894   2.506  0.00  0.00    +0.220 A 
ATOM      7  C   LIG    1       -0.327   3.232   3.767  0.00  0.00    -0.150 A 
ATOM      8  C   LIG    1       -1.635   2.888   4.114  0.00  0.00    +0.130 A 
ATOM      9  C   LIG    1       -2.433   2.222   3.208  0.00  0.00    +0.020 A 
ATOM     10  C   LIG    1       -1.939   1.894   1.956  0.00  0.00    +0.070 A 
ATOM     11 CL   LIG    1       -2.949   1.054   0.821  0.00  0.00    -0.030 Cl
BRANCH   5  13
ATOM     12  C   LIG    1        0.002  -0.004   0.002  0.00  0.00    -0.240 C 
ATOM     13  S   LIG    1       -0.022   1.810   0.012  0.00  0.00    +2.490 S 
ATOM     14  O   LIG    1       -1.007   2.300  -0.888  0.00  0.00    -0.920 OA
ATOM     15  O   LIG    1        1.301   2.326   0.002  0.00  0.00    -0.930 OA
ENDBRANCH   5  13
ENDBRANCH   1   7
BRANCH   2  16
ATOM     16  C   LIG    1        0.909   4.974   6.911  0.00  0.00    +0.280 C 
BRANCH  16  17
ATOM     17  C   LIG    1        0.131   5.214   8.206  0.00  0.00    +0.080 C 
BRANCH  17  18
ATOM     18  C   LIG    1        1.008   5.941   9.192  0.00  0.00    -0.050 A 
ATOM     19  C   LIG    1        1.795   5.227  10.076  0.00  0.00    +0.030 A 
ATOM     20  C   LIG    1        2.604   5.895  10.976  0.00  0.00    +0.070 A 
ATOM     21  C   LIG    1        2.617   7.277  11.001  0.00  0.00    -0.180 A 
ATOM     22  C   LIG    1        1.826   7.991  10.120  0.00  0.00    +0.070 A 
ATOM     23  C   LIG    1        1.021   7.324   9.216  0.00  0.00    +0.030 A 
BRANCH  21  24
ATOM     24  C   LIG    1        3.494   8.005  11.987  0.00  0.00    +0.510 C 
ATOM     25  F   LIG    1        3.886   9.233  11.444  0.00  0.00    -0.180 F 
ATOM     26  F   LIG    1        4.628   7.232  12.261  0.00  0.00    -0.180 F 
ATOM     27  F   LIG    1        2.782   8.224  13.171  0.00  0.00    -0.180 F 
ENDBRANCH  21  24
ENDBRANCH  17  18
ENDBRANCH  16  17
ENDBRANCH   2  16
TORSDOF 6
