REMARK  Name = ZINCtV000002OATm.0
REMARK                            x       y       z     vdW  Elec       q    Type
REMARK                         _______ _______ _______ _____ _____    ______ ____
ROOT
ATOM      1  O   LIG    1       -3.689   6.267  -3.200  0.00  0.00    -0.510 OA
ATOM      2  C   LIG    1       -3.670   5.850  -2.058  0.00  0.00    +0.560 C 
ATOM      3  N   LIG    1       -2.493   5.639  -1.437  0.00  0.00    -0.660 N 
ATOM      4  H   LIG    1       -2.475   5.231  -0.557  0.00  0.00    +0.410 HD
ENDROOT
BRANCH   2   5
ATOM      5  C   LIG    1       -4.939   5.575  -1.351  0.00  0.00    -0.120 A 
ATOM      6  C   LIG    1       -4.920   5.091  -0.042  0.00  0.00    +0.040 A 
ATOM      7  C   LIG    1       -6.106   4.841   0.618  0.00  0.00    +0.030 A 
ATOM      8  C   LIG    1       -7.314   5.057  -0.018  0.00  0.00    +0.050 A 
ATOM      9  C   LIG    1       -7.343   5.532  -1.322  0.00  0.00    +0.080 A 
ATOM     10  C   LIG    1       -6.159   5.793  -1.991  0.00  0.00    +0.080 A 
BRANCH   9  11
ATOM     11  O   LIG    1       -8.534   5.743  -1.942  0.00  0.00    -0.260 OA
BRANCH  11  12
ATOM     12  C   LIG    1       -8.931   4.846  -2.883  0.00  0.00    +0.120 A 
ATOM     13  C   LIG    1       -8.082   3.816  -3.263  0.00  0.00    -0.070 A 
ATOM     14  C   LIG    1       -8.490   2.903  -4.215  0.00  0.00    +0.050 A 
ATOM     15  C   LIG    1       -9.739   3.020  -4.798  0.00  0.00    -0.020 A 
ATOM     16  C   LIG    1      -10.584   4.049  -4.425  0.00  0.00    +0.050 A 
ATOM     17  C   LIG    1      -10.183   4.962  -3.469  0.00  0.00    -0.010 A 
ENDBRANCH  11  12
ENDBRANCH   9  11
ENDBRANCH   2   5
BRANCH   3  18
ATOM     18  C   LIG    1       -1.297   6.008  -2.061  0.00  0.00    +0.150 A 
ATOM     19  C   LIG    1       -1.294   7.012  -3.020  0.00  0.00    +0.020 A 
ATOM     20  C   LIG    1       -0.111   7.374  -3.635  0.00  0.00    +0.030 A 
ATOM     21  C   LIG    1        1.069   6.737  -3.297  0.00  0.00    -0.010 A 
ATOM     22  C   LIG    1        1.070   5.741  -2.338  0.00  0.00    +0.040 A 
ATOM     23  C   LIG    1       -0.110   5.370  -1.723  0.00  0.00    -0.110 A 
BRANCH  23  24
ATOM     24  C   LIG    1       -0.109   4.280  -0.682  0.00  0.00    +0.120 C 
BRANCH  24  25
ATOM     25  C   LIG    1       -0.461   2.966  -1.331  0.00  0.00    -0.080 A 
ATOM     26  C   LIG    1        0.537   2.159  -1.844  0.00  0.00    +0.010 A 
ATOM     27  C   LIG    1        0.214   0.954  -2.438  0.00  0.00    +0.000 A 
ATOM     28  C   LIG    1       -1.107   0.555  -2.518  0.00  0.00    +0.000 A 
ATOM     29  C   LIG    1       -2.106   1.365  -2.010  0.00  0.00    +0.000 A 
ATOM     30  C   LIG    1       -1.782   2.568  -1.412  0.00  0.00    -0.010 A 
ENDBRANCH  24  25
ENDBRANCH  23  24
ENDBRANCH   3  18
TORSDOF 6
