REMARK  Name = ZINCnE000001Q0Nx.1
REMARK                            x       y       z     vdW  Elec       q    Type
REMARK                         _______ _______ _______ _____ _____    ______ ____
ROOT
ATOM      1  N   LIG    1       -4.818   1.709   0.055  0.00  0.00    -0.680 NA
ATOM      2  C   LIG    1       -5.159   0.405   0.052  0.00  0.00    +0.460 C 
ATOM      3  O   LIG    1       -4.297  -0.448   0.041  0.00  0.00    -0.570 OA
ENDROOT
BRANCH   1  10
ATOM      4  C   LIG    1        2.476   3.913  -0.002  0.00  0.00    +0.080 C 
ATOM      5  C   LIG    1        1.170   3.160   0.007  0.00  0.00    -0.140 A 
ATOM      6  C   LIG    1        1.169   1.774   0.000  0.00  0.00    +0.020 A 
ATOM      7  C   LIG    1       -0.013   1.076   0.008  0.00  0.00    +0.010 A 
ATOM      8  C   LIG    1       -1.246   1.760   0.018  0.00  0.00    +0.150 A 
ATOM      9  N   LIG    1       -2.494   1.250   0.032  0.00  0.00    -0.560 NA
ATOM     10  C   LIG    1       -3.482   2.075   0.045  0.00  0.00    +0.400 A 
ATOM     11  S   LIG    1       -2.897   3.733   0.047  0.00  0.00    -0.030 S 
ATOM     12  C   LIG    1       -1.231   3.158   0.029  0.00  0.00    -0.210 A 
ATOM     13  C   LIG    1       -0.022   3.850   0.022  0.00  0.00    +0.060 A 
ENDBRANCH   1  10
BRANCH   2  14
ATOM     14  C   LIG    1       -6.613   0.006   0.062  0.00  0.00    +0.250 C 
ATOM     15  C   LIG    1       -7.306   0.572  -1.178  0.00  0.00    +0.040 C 
BRANCH  14  16
ATOM     16  N   LIG    1       -6.718  -1.455   0.057  0.00  0.00    -0.700 N 
ATOM     17  H   LIG    1       -5.997  -1.992  -0.307  0.00  0.00    +0.400 HD
ATOM     18  C   LIG    1       -7.817  -2.053   0.557  0.00  0.00    +0.590 C 
ATOM     19  O   LIG    1       -8.723  -1.380   1.013  0.00  0.00    -0.540 OA
BRANCH  18  20
ATOM     20  C   LIG    1       -7.923  -3.515   0.551  0.00  0.00    -0.260 A 
ATOM     21  C   LIG    1       -8.982  -4.236   1.028  0.00  0.00    +0.090 A 
ATOM     22  C   LIG    1       -8.818  -5.594   0.898  0.00  0.00    -0.010 A 
ATOM     23  C   LIG    1       -7.666  -5.976   0.335  0.00  0.00    -0.070 A 
ATOM     24  S   LIG    1       -6.710  -4.623  -0.076  0.00  0.00    +0.210 S 
ENDBRANCH  18  20
ENDBRANCH  14  16
ENDBRANCH   2  14
TORSDOF 4
