REMARK  Name = ZINCrD00000kZGTC.0
REMARK                            x       y       z     vdW  Elec       q    Type
REMARK                         _______ _______ _______ _____ _____    ______ ____
ROOT
ATOM      1  C   LIG    1       -1.944   1.313  -1.576  0.00  0.00    +0.590 C 
ATOM      2  N   LIG    1       -0.679   1.591  -1.200  0.00  0.00    -0.600 N 
ATOM      3  C   LIG    1        0.274   2.430  -1.949  0.00  0.00    +0.260 C 
ATOM      4  C   LIG    1        1.673   1.950  -1.487  0.00  0.00    +0.050 C 
ATOM      5  C   LIG    1        1.420   1.655   0.016  0.00  0.00    +0.060 C 
ATOM      6  C   LIG    1       -0.022   1.107   0.022  0.00  0.00    +0.340 C 
ATOM      7  O   LIG    1       -2.608   0.522  -0.934  0.00  0.00    -0.520 OA
ENDROOT
BRANCH   6   8
ATOM      8  C   LIG    1       -0.757   1.612   1.237  0.00  0.00    +0.130 A 
ATOM      9  N   LIG    1       -1.190   2.831   1.427  0.00  0.00    -0.230 NA
ATOM     10  N   LIG    1       -1.777   2.924   2.569  0.00  0.00    -0.290 NA
ATOM     11  C   LIG    1       -1.740   1.751   3.180  0.00  0.00    +0.200 A 
ATOM     12  C   LIG    1       -2.214   1.292   4.424  0.00  0.00    +0.080 A 
ATOM     13  C   LIG    1       -2.013  -0.008   4.772  0.00  0.00    +0.060 A 
ATOM     14  C   LIG    1       -1.340  -0.870   3.890  0.00  0.00    +0.030 A 
ATOM     15  C   LIG    1       -0.891  -0.416   2.701  0.00  0.00    +0.240 A 
ATOM     16  N   LIG    1       -1.085   0.885   2.339  0.00  0.00    -0.380 N 
ENDBRANCH   6   8
BRANCH   1  19
ATOM     17  C   LIG    1       -4.108   1.977  -4.572  0.00  0.00    +0.120 A 
ATOM     18  C   LIG    1       -3.571   1.360  -3.460  0.00  0.00    +0.010 A 
ATOM     19  C   LIG    1       -2.521   1.968  -2.765  0.00  0.00    -0.080 A 
ATOM     20  C   LIG    1       -2.024   3.200  -3.196  0.00  0.00    +0.050 A 
ATOM     21  C   LIG    1       -2.562   3.809  -4.311  0.00  0.00    -0.030 A 
ATOM     22 CL   LIG    1       -1.940   5.338  -4.849  0.00  0.00    -0.030 Cl
ATOM     23  C   LIG    1       -3.605   3.204  -5.001  0.00  0.00    +0.100 A 
BRANCH  17  25
ATOM     24  C   LIG    1       -5.596   0.130  -4.755  0.00  0.00    +0.250 C 
ATOM     25  O   LIG    1       -5.130   1.387  -5.250  0.00  0.00    -0.300 OA
ENDBRANCH  17  25
BRANCH  23  26
ATOM     26  O   LIG    1       -4.135   3.809  -6.095  0.00  0.00    -0.320 OA
ATOM     27  C   LIG    1       -5.229   4.702  -5.876  0.00  0.00    +0.230 C 
ENDBRANCH  23  26
ENDBRANCH   1  19
TORSDOF 4
