REMARK  Name = ZINCc70000002yZb.0
REMARK                            x       y       z     vdW  Elec       q    Type
REMARK                         _______ _______ _______ _____ _____    ______ ____
ROOT
ATOM      1  C   LIG    1       -1.307   1.933   0.019  0.00  0.00    +0.050 A 
ATOM      2  C   LIG    1       -2.508   1.219   0.021  0.00  0.00    +0.130 A 
ATOM      3  C   LIG    1       -3.694   1.940   0.031  0.00  0.00    +0.110 A 
ATOM      4  C   LIG    1       -3.614   3.335   0.038  0.00  0.00    +0.170 A 
ATOM      5  N   LIG    1       -2.423   3.930   0.036  0.00  0.00    -0.190 NA
ATOM      6  N   LIG    1       -1.326   3.263   0.032  0.00  0.00    -0.170 NA
ENDROOT
BRANCH   1   7
ATOM      7  C   LIG    1       -0.014   1.210   0.009  0.00  0.00    +0.530 C 
ATOM      8  O   LIG    1        0.002  -0.004   0.002  0.00  0.00    -0.480 OA
BRANCH   7  10
ATOM      9  C   LIG    1        2.371   1.125  -0.015  0.00  0.00    +0.280 C 
ATOM     10  O   LIG    1        1.143   1.899   0.001  0.00  0.00    -0.330 OA
ENDBRANCH   7  10
ENDBRANCH   1   7
BRANCH   4  11
ATOM     11  C   LIG    1       -4.809   4.122   0.048  0.00  0.00    +0.260 C 
ATOM     12  N   LIG    1       -5.758   4.747   0.056  0.00  0.00    -0.350 NA
ENDBRANCH   4  11
TORSDOF 3
