REMARK  Name = ZINCpk000000pTm4.0
REMARK                            x       y       z     vdW  Elec       q    Type
REMARK                         _______ _______ _______ _____ _____    ______ ____
ROOT
ATOM      1  C   UNK A  2        3.263   2.590   1.393  0.00  0.00    +0.030 C 
ENDROOT
BRANCH   1   2
ATOM      2  C   UNK A  2        1.873   1.950   1.415  0.00  0.00    +0.030 C 
BRANCH   2   7
ATOM      3  C   UNK A  1       -1.322   3.284   0.033  0.00  0.00    +0.240 C 
ATOM      4  N   UNK A  1       -1.196   1.833   0.018  0.00  0.00    -0.710 N 
ATOM      5  H   UNK A  1       -2.004   1.297   0.018  0.00  0.00    +0.410 HD
ATOM      6  C   UNK A  2       -0.014   1.209   0.009  0.00  0.00    +0.520 C 
ATOM      7  C   UNK A  2        1.291   1.945   0.000  0.00  0.00    +0.260 C 
ATOM      8  N   UNK A  2        1.120   3.320  -0.449  0.00  0.00    -0.710 N 
ATOM      9  H   UNK A  2        1.898   3.804  -0.768  0.00  0.00    +0.410 HD
ATOM     10  O   UNK A  2        0.002  -0.004   0.002  0.00  0.00    -0.530 OA
ATOM     11  C   UNK A  1       -0.062   3.944  -0.439  0.00  0.00    +0.520 C 
ATOM     12  O   UNK A  1       -0.117   5.091  -0.829  0.00  0.00    -0.520 OA
BRANCH   3  14
ATOM     13  C   UNK A  1       -3.788   3.125  -0.340  0.00  0.00    +0.020 C 
ATOM     14  C   UNK A  1       -2.476   3.692  -0.886  0.00  0.00    +0.040 C 
ENDBRANCH   3  14
ENDBRANCH   2   7
ENDBRANCH   1   2
BRANCH   1  15
ATOM     15  C   UNK A  2        3.844   2.595   2.808  0.00  0.00    +0.020 C 
BRANCH  15  16
ATOM     16  C   UNK A  2        5.234   3.234   2.786  0.00  0.00    +0.280 C 
BRANCH  16  17
ATOM     17  N   UNK A  2        5.791   3.239   4.141  0.00  0.00    -0.710 N 
ATOM     18  H   UNK A  2        5.279   2.869   4.877  0.00  0.00    +0.410 HD
ATOM     19  C   UNK A  2        7.015   3.757   4.365  0.00  0.00    +0.650 C 
ATOM     20  O   UNK A  2        7.656   4.221   3.443  0.00  0.00    -0.570 OA
BRANCH  19  21
ATOM     21  O   UNK A  2        7.527   3.762   5.610  0.00  0.00    -0.370 OA
BRANCH  21  22
ATOM     22  C   UNK A  2        8.850   4.336   5.777  0.00  0.00    +0.290 C 
BRANCH  22  23
ATOM     23  C   UNK A  2        9.254   4.253   7.227  0.00  0.00    -0.100 A 
ATOM     24  C   UNK A  2        8.953   5.292   8.088  0.00  0.00    +0.040 A 
ATOM     25  C   UNK A  2        9.320   5.214   9.419  0.00  0.00    +0.010 A 
ATOM     26  C   UNK A  2        9.996   4.102   9.886  0.00  0.00    +0.020 A 
ATOM     27  C   UNK A  2       10.302   3.066   9.023  0.00  0.00    +0.010 A 
ATOM     28  C   UNK A  2        9.931   3.142   7.693  0.00  0.00    +0.040 A 
ENDBRANCH  22  23
ENDBRANCH  21  22
ENDBRANCH  19  21
ENDBRANCH  16  17
ENDBRANCH  15  16
ENDBRANCH   1  15
TORSDOF 9
