REMARK  Name = ZINCqH0000007QuS.0
REMARK                            x       y       z     vdW  Elec       q    Type
REMARK                         _______ _______ _______ _____ _____    ______ ____
ROOT
ATOM      1  C   LIG    1       -2.454   0.994   0.129  0.00  0.00    +0.010 A 
ATOM      2  N   LIG    1       -2.649  -0.307   0.224  0.00  0.00    -0.250 NA
ATOM      3  N   LIG    1       -3.906  -0.561   0.304  0.00  0.00    -0.210 N 
ATOM      4  C   LIG    1       -4.620   0.596   0.264  0.00  0.00    -0.010 A 
ATOM      5  C   LIG    1       -6.028   1.145   0.300  0.00  0.00    +0.130 C 
ATOM      6  C   LIG    1       -5.910   2.590  -0.235  0.00  0.00    +0.060 C 
ATOM      7  C   LIG    1       -4.442   2.936   0.100  0.00  0.00    +0.110 C 
ATOM      8  C   LIG    1       -3.729   1.606   0.159  0.00  0.00    -0.150 A 
ENDROOT
BRANCH   3   9
ATOM      9  C   LIG    1       -4.460  -1.843   0.417  0.00  0.00    +0.120 A 
ATOM     10  C   LIG    1       -5.600  -2.043   1.184  0.00  0.00    +0.060 A 
ATOM     11  C   LIG    1       -6.148  -3.306   1.289  0.00  0.00    +0.020 A 
ATOM     12  C   LIG    1       -5.555  -4.375   0.639  0.00  0.00    +0.110 A 
ATOM     13  C   LIG    1       -4.415  -4.179  -0.122  0.00  0.00    +0.010 A 
ATOM     14  F   LIG    1       -6.090  -5.611   0.748  0.00  0.00    -0.130 F 
ATOM     15  C   LIG    1       -3.867  -2.917  -0.235  0.00  0.00    +0.080 A 
ENDBRANCH   3   9
BRANCH   1  18
ATOM     16  N   LIG    1       -0.011   0.966   0.007  0.00  0.00    -0.650 N 
ATOM     17  H   LIG    1       -0.047  -0.003  -0.011  0.00  0.00    +0.420 HD
ATOM     18  C   LIG    1       -1.153   1.682   0.018  0.00  0.00    +0.610 C 
ATOM     19  O   LIG    1       -1.111   2.894  -0.064  0.00  0.00    -0.510 OA
BRANCH  16  25
ATOM     20  C   LIG    1        2.357   0.986  -0.493  0.00  0.00    +0.100 A 
ATOM     21  C   LIG    1        3.578   1.641  -0.485  0.00  0.00    -0.060 A 
ATOM     22  C   LIG    1        3.675   2.917   0.037  0.00  0.00    +0.030 A 
ATOM     23  C   LIG    1        2.554   3.546   0.547  0.00  0.00    +0.000 A 
ATOM     24  C   LIG    1        1.331   2.902   0.539  0.00  0.00    +0.050 A 
ATOM     25  C   LIG    1        1.227   1.621   0.017  0.00  0.00    +0.120 A 
BRANCH  20  27
ATOM     26  C   LIG    1        3.462  -0.860  -1.506  0.00  0.00    +0.250 C 
ATOM     27  O   LIG    1        2.262  -0.272  -1.001  0.00  0.00    -0.320 OA
ENDBRANCH  20  27
ENDBRANCH  16  25
ENDBRANCH   1  18
TORSDOF 4
