REMARK  Name = ZINCrD000000APTO.0
REMARK                            x       y       z     vdW  Elec       q    Type
REMARK                         _______ _______ _______ _____ _____    ______ ____
ROOT
ATOM      1  O   LIG    1        1.657   1.817  -0.792  0.00  0.00    -0.510 OA
ATOM      2  C   LIG    1        0.543   1.405  -0.532  0.00  0.00    +0.550 C 
ATOM      3  N   LIG    1        0.366   0.114  -0.189  0.00  0.00    -0.730 N 
ATOM      4  H   LIG    1       -0.523  -0.216   0.018  0.00  0.00    +0.400 HD
ENDROOT
BRANCH   2   5
ATOM      5  C   LIG    1       -0.616   2.316  -0.600  0.00  0.00    -0.160 A 
ATOM      6  C   LIG    1       -1.885   1.838  -0.314  0.00  0.00    +0.080 A 
ATOM      7  C   LIG    1       -2.982   2.710  -0.375  0.00  0.00    -0.070 A 
ATOM      8  C   LIG    1       -4.283   2.260  -0.087  0.00  0.00    +0.030 A 
ATOM      9  C   LIG    1       -5.328   3.129  -0.160  0.00  0.00    +0.010 A 
ATOM     10  C   LIG    1       -5.129   4.461  -0.517  0.00  0.00    +0.030 A 
ATOM     11  C   LIG    1       -3.884   4.933  -0.803  0.00  0.00    +0.020 A 
ATOM     12  C   LIG    1       -2.779   4.067  -0.739  0.00  0.00    -0.020 A 
ATOM     13  C   LIG    1       -1.483   4.525  -1.029  0.00  0.00    +0.000 A 
ATOM     14  C   LIG    1       -0.426   3.667  -0.960  0.00  0.00    +0.160 A 
BRANCH  14  15
ATOM     15  O   LIG    1        0.824   4.117  -1.241  0.00  0.00    -0.480 OA
ATOM     16  H   LIG    1        1.070   4.037  -2.173  0.00  0.00    +0.400 HD
ENDBRANCH  14  15
ENDBRANCH   2   5
BRANCH   3  17
ATOM     17  C   LIG    1        1.515  -0.792  -0.128  0.00  0.00    +0.250 C 
BRANCH  17  18
ATOM     18  C   LIG    1        1.025  -2.223   0.106  0.00  0.00    +0.100 C 
ATOM     19  C   LIG    1        0.090  -2.250   1.316  0.00  0.00    +0.030 C 
ATOM     20  C   LIG    1        0.843  -1.760   2.554  0.00  0.00    +0.010 C 
ATOM     21  C   LIG    1        2.042  -2.674   2.816  0.00  0.00    +0.010 C 
ATOM     22  C   LIG    1        2.978  -2.647   1.606  0.00  0.00    +0.020 C 
ATOM     23  C   LIG    1        2.224  -3.136   0.368  0.00  0.00    +0.050 C 
BRANCH  18  24
ATOM     24  N   LIG    1        0.302  -2.693  -1.083  0.00  0.00    -0.520 NA
ATOM     25  C   LIG    1        1.156  -2.633  -2.278  0.00  0.00    +0.150 C 
ATOM     26  C   LIG    1        0.385  -3.186  -3.479  0.00  0.00    +0.220 C 
ATOM     27  O   LIG    1       -0.828  -2.446  -3.642  0.00  0.00    -0.380 OA
ATOM     28  C   LIG    1       -1.684  -2.484  -2.498  0.00  0.00    +0.220 C 
ATOM     29  C   LIG    1       -0.934  -1.923  -1.287  0.00  0.00    +0.150 C 
ENDBRANCH  18  24
ENDBRANCH  17  18
ENDBRANCH   3  17
TORSDOF 5
