REMARK  Name = ZINCrH000004oSlg.0
REMARK                            x       y       z     vdW  Elec       q    Type
REMARK                         _______ _______ _______ _____ _____    ______ ____
ROOT
ATOM      1  C   LIG    1        2.496   2.781   3.968  0.00  0.00    +0.060 C 
ATOM      2  C   LIG    1        1.339   2.450   4.912  0.00  0.00    +0.170 C 
ATOM      3  O   LIG    1        1.850   1.892   6.136  0.00  0.00    -0.360 OA
ATOM      4  C   LIG    1        0.882   0.913   6.586  0.00  0.00    +0.210 C 
ATOM      5  C   LIG    1        0.433   0.216   5.275  0.00  0.00    -0.010 C 
ATOM      6  C   LIG    1        0.429   1.390   4.274  0.00  0.00    +0.080 C 
ATOM      7  C   LIG    1       -0.988   1.933   4.114  0.00  0.00    +0.260 C 
ATOM      8  N   LIG    1       -1.782   0.946   3.363  0.00  0.00    -0.630 N 
ATOM      9  C   LIG    1       -1.217   0.415   2.113  0.00  0.00    +0.290 C 
ATOM     10  C   LIG    1        0.207  -0.079   2.393  0.00  0.00    +0.210 C 
ATOM     11  C   LIG    1       -2.989   0.541   3.808  0.00  0.00    +0.710 C 
ATOM     12  N   LIG    1       -3.442   0.964   5.004  0.00  0.00    -0.650 N 
ATOM     13  H   LIG    1       -2.936   1.617   5.512  0.00  0.00    +0.410 HD
ATOM     14  O   LIG    1       -3.667  -0.206   3.130  0.00  0.00    -0.520 OA
ATOM     15  O   LIG    1        0.953   0.968   3.021  0.00  0.00    -0.350 OA
ENDROOT
BRANCH  12  16
ATOM     16  C   LIG    1       -4.636   0.464   5.511  0.00  0.00    +0.290 A 
ATOM     17  N   LIG    1       -5.386  -0.406   4.918  0.00  0.00    -0.470 NA
ATOM     18  C   LIG    1       -6.499  -0.784   5.535  0.00  0.00    +0.100 A 
ATOM     19  C   LIG    1       -6.678  -0.180   6.723  0.00  0.00    -0.240 A 
ATOM     20  C   LIG    1       -7.849  -0.409   7.649  0.00  0.00    +0.130 C 
ATOM     21  C   LIG    1       -8.562  -1.698   7.225  0.00  0.00    +0.010 C 
ATOM     22  C   LIG    1       -8.815  -1.654   5.715  0.00  0.00    +0.030 C 
ATOM     23  C   LIG    1       -7.485  -1.797   4.972  0.00  0.00    +0.130 C 
ATOM     24  S   LIG    1       -5.324   0.905   7.012  0.00  0.00    +0.120 S 
BRANCH  21  25
ATOM     25  C   LIG    1       -9.897  -1.812   7.965  0.00  0.00    -0.060 C 
ATOM     26  C   LIG    1       -9.643  -1.843   9.473  0.00  0.00    +0.030 C 
ATOM     27  C   LIG    1      -10.607  -3.099   7.541  0.00  0.00    +0.030 C 
ATOM     28  C   LIG    1      -10.775  -0.607   7.620  0.00  0.00    +0.030 C 
ENDBRANCH  21  25
ENDBRANCH  12  16
TORSDOF 2
