REMARK  Name = ZINCqH0000001Zrt.0
REMARK                            x       y       z     vdW  Elec       q    Type
REMARK                         _______ _______ _______ _____ _____    ______ ____
ROOT
ATOM      1  C   LIG    1       -5.742   2.510  -0.886  0.00  0.00    +0.040 C 
ATOM      2  C   LIG    1       -5.428   3.892  -0.311  0.00  0.00    +0.130 C 
ATOM      3  C   LIG    1       -5.043   3.762   1.166  0.00  0.00    +0.230 C 
ATOM      4  O   LIG    1       -3.794   3.072   1.268  0.00  0.00    -0.370 OA
ATOM      5  C   LIG    1       -2.698   3.753   0.653  0.00  0.00    +0.190 C 
ATOM      6  C   LIG    1       -2.963   3.884  -0.851  0.00  0.00    +0.290 C 
ATOM      7  C   LIG    1       -6.655   4.797  -0.446  0.00  0.00    +0.070 C 
ATOM      8  N   LIG    1       -4.293   4.485  -1.037  0.00  0.00    -0.600 N 
ATOM      9  C   LIG    1       -4.467   5.548  -1.847  0.00  0.00    +0.610 C 
ATOM     10  O   LIG    1       -5.548   6.100  -1.902  0.00  0.00    -0.520 OA
ENDROOT
BRANCH   5  11
ATOM     11  C   LIG    1       -1.430   2.968   0.875  0.00  0.00    -0.070 A 
ATOM     12  C   LIG    1       -1.447   1.589   0.786  0.00  0.00    +0.050 A 
ATOM     13  C   LIG    1       -0.286   0.868   0.994  0.00  0.00    +0.020 A 
ATOM     14  C   LIG    1        0.894   1.526   1.280  0.00  0.00    +0.030 A 
ATOM     15  C   LIG    1        0.913   2.908   1.364  0.00  0.00    -0.030 A 
ATOM     16 CL   LIG    1        2.396   3.736   1.725  0.00  0.00    -0.070 Cl
ATOM     17  C   LIG    1       -0.250   3.628   1.161  0.00  0.00    +0.040 A 
ENDBRANCH   5  11
BRANCH   9  18
ATOM     18  C   LIG    1       -3.343   6.041  -2.669  0.00  0.00    -0.010 A 
ATOM     19  N   LIG    1       -2.163   5.470  -2.808  0.00  0.00    -0.250 NA
ATOM     20  N   LIG    1       -1.425   6.167  -3.595  0.00  0.00    -0.290 N 
ATOM     21  C   LIG    1       -2.099   7.257  -4.023  0.00  0.00    +0.180 A 
ATOM     22  C   LIG    1       -3.330   7.213  -3.461  0.00  0.00    +0.000 A 
BRANCH  20  23
ATOM     23  C   LIG    1       -0.051   5.829  -3.975  0.00  0.00    +0.330 C 
BRANCH  23  24
ATOM     24  C   LIG    1        0.795   5.644  -2.714  0.00  0.00    +0.370 C 
ATOM     25  F   LIG    1        2.130   5.434  -3.075  0.00  0.00    -0.190 F 
ATOM     26  F   LIG    1        0.327   4.539  -1.996  0.00  0.00    -0.180 F 
ENDBRANCH  23  24
ENDBRANCH  20  23
ENDBRANCH   9  18
TORSDOF 4
