REMARK  Name = ZINCrD00000hQ5Yq.0
REMARK                            x       y       z     vdW  Elec       q    Type
REMARK                         _______ _______ _______ _____ _____    ______ ____
ROOT
ATOM      1  C   LIG    1       -1.247   0.796   3.733  0.00  0.00    +0.550 C 
ATOM      2  N   LIG    1       -0.837   0.363   4.942  0.00  0.00    -0.590 N 
ATOM      3  C   LIG    1        0.573   0.006   5.189  0.00  0.00    +0.260 C 
ATOM      4  C   LIG    1        1.016   0.696   6.489  0.00  0.00    +0.170 C 
ATOM      5  O   LIG    1        0.117   0.349   7.544  0.00  0.00    -0.360 OA
ATOM      6  C   LIG    1       -1.221   0.821   7.353  0.00  0.00    +0.240 C 
ATOM      7  C   LIG    1       -1.776   0.223   6.060  0.00  0.00    +0.110 C 
ATOM      8  C   LIG    1       -2.332  -1.196   6.223  0.00  0.00    +0.020 C 
ATOM      9  C   LIG    1       -3.466  -0.770   5.274  0.00  0.00    +0.010 C 
ATOM     10  C   LIG    1       -3.201   0.676   5.728  0.00  0.00    +0.050 C 
ATOM     11  O   LIG    1       -2.428   0.968   3.520  0.00  0.00    -0.520 OA
ENDROOT
BRANCH   1  14
ATOM     12  C   LIG    1       -0.767   1.555   1.297  0.00  0.00    +0.010 C 
ATOM     13  C   LIG    1       -0.026   2.521   2.225  0.00  0.00    +0.060 C 
ATOM     14  C   LIG    1       -0.238   1.065   2.647  0.00  0.00    -0.080 C 
BRANCH  12  16
ATOM     15  C   LIG    1       -0.785   1.575  -1.201  0.00  0.00    +0.030 C 
ATOM     16  C   LIG    1       -0.035   1.084   0.039  0.00  0.00    +0.040 C 
ENDBRANCH  12  16
ENDBRANCH   1  14
BRANCH   4  17
ATOM     17  C   LIG    1        2.429   0.236   6.852  0.00  0.00    +0.100 C 
BRANCH  17  18
ATOM     18  C   LIG    1        2.913   1.001   8.056  0.00  0.00    +0.520 C 
ATOM     19  N   LIG    1        4.141   0.761   8.559  0.00  0.00    -0.680 N 
ATOM     20  H   LIG    1        4.742   0.154   8.100  0.00  0.00    +0.410 HD
ATOM     21  O   LIG    1        2.199   1.833   8.574  0.00  0.00    -0.500 OA
BRANCH  19  22
ATOM     22  C   LIG    1        4.548   1.387   9.742  0.00  0.00    +0.180 A 
ATOM     23  C   LIG    1        3.625   1.638  10.749  0.00  0.00    +0.010 A 
ATOM     24  C   LIG    1        4.028   2.256  11.916  0.00  0.00    +0.070 A 
ATOM     25  C   LIG    1        5.349   2.626  12.085  0.00  0.00    -0.030 A 
ATOM     26  C   LIG    1        6.273   2.377  11.083  0.00  0.00    +0.120 A 
ATOM     27  F   LIG    1        7.564   2.739  11.250  0.00  0.00    -0.140 F 
ATOM     28  C   LIG    1        5.876   1.754   9.914  0.00  0.00    -0.040 A 
ENDBRANCH  19  22
ENDBRANCH  17  18
ENDBRANCH   4  17
TORSDOF 5
