REMARK  Name = ZINCvU0000000I4V.0
REMARK                            x       y       z     vdW  Elec       q    Type
REMARK                         _______ _______ _______ _____ _____    ______ ____
ROOT
ATOM      1  C   LIG    1       -0.001   1.177  -0.010  0.00  0.00    +0.570 C 
ATOM      2  N   LIG    1       -1.173   1.841   0.004  0.00  0.00    -0.670 N 
ATOM      3  H   LIG    1       -1.181   2.808   0.083  0.00  0.00    +0.410 HD
ATOM      4  O   LIG    1        0.009  -0.039  -0.025  0.00  0.00    -0.500 OA
ENDROOT
BRANCH   1   8
ATOM      5  C   LIG    1        3.662   3.334  -0.018  0.00  0.00    +0.110 A 
ATOM      6  C   LIG    1        2.453   4.018   0.001  0.00  0.00    -0.030 A 
ATOM      7  C   LIG    1        1.263   3.321  -0.001  0.00  0.00    +0.040 A 
ATOM      8  C   LIG    1        1.272   1.924  -0.012  0.00  0.00    -0.090 A 
ATOM      9  C   LIG    1        2.488   1.236  -0.032  0.00  0.00    +0.030 A 
ATOM     10 CL   LIG    1        2.440   5.754   0.022  0.00  0.00    -0.030 Cl
ATOM     11  C   LIG    1        3.677   1.940  -0.035  0.00  0.00    +0.120 A 
BRANCH   5  12
ATOM     12  O   LIG    1        4.831   4.025  -0.021  0.00  0.00    -0.310 OA
BRANCH  12  13
ATOM     13  C   LIG    1        5.378   4.370  -1.296  0.00  0.00    +0.190 C 
BRANCH  13  15
ATOM     14  C   LIG    1        7.271   5.508  -2.463  0.00  0.00    +0.040 C 
ATOM     15  C   LIG    1        6.686   5.139  -1.098  0.00  0.00    +0.020 C 
ENDBRANCH  13  15
ENDBRANCH  12  13
ENDBRANCH   5  12
BRANCH  11  16
ATOM     16  O   LIG    1        4.862   1.274  -0.055  0.00  0.00    -0.300 OA
BRANCH  16  17
ATOM     17  C   LIG    1        4.803  -0.154  -0.072  0.00  0.00    +0.190 C 
ATOM     18  C   LIG    1        6.223  -0.723  -0.092  0.00  0.00    +0.070 C 
ENDBRANCH  16  17
ENDBRANCH  11  16
ENDBRANCH   1   8
BRANCH   2  19
ATOM     19  C   LIG    1       -2.378   1.137  -0.097  0.00  0.00    +0.180 A 
ATOM     20  C   LIG    1       -2.499  -0.119   0.485  0.00  0.00    +0.060 A 
ATOM     21  C   LIG    1       -3.688  -0.814   0.386  0.00  0.00    +0.080 A 
ATOM     22  C   LIG    1       -4.763  -0.257  -0.295  0.00  0.00    +0.130 A 
ATOM     23  C   LIG    1       -4.642   0.999  -0.876  0.00  0.00    +0.070 A 
ATOM     24  C   LIG    1       -3.455   1.696  -0.773  0.00  0.00    -0.190 A 
BRANCH  22  25
ATOM     25  N   LIG    1       -5.969  -0.962  -0.395  0.00  0.00    -0.670 N 
ATOM     26  H   LIG    1       -6.506  -0.893  -1.201  0.00  0.00    +0.420 HD
ATOM     27  C   LIG    1       -6.384  -1.736   0.627  0.00  0.00    +0.510 C 
ATOM     28  O   LIG    1       -5.675  -1.889   1.599  0.00  0.00    -0.520 OA
ATOM     29  C   LIG    1       -7.729  -2.413   0.562  0.00  0.00    +0.110 C 
ENDBRANCH  22  25
BRANCH  24  30
ATOM     30  C   LIG    1       -3.326   3.061  -1.398  0.00  0.00    +0.510 C 
ATOM     31  F   LIG    1       -2.302   3.043  -2.350  0.00  0.00    -0.170 F 
ATOM     32  F   LIG    1       -3.025   4.001  -0.407  0.00  0.00    -0.180 F 
ATOM     33  F   LIG    1       -4.533   3.406  -2.017  0.00  0.00    -0.170 F 
ENDBRANCH  24  30
ENDBRANCH   2  19
TORSDOF 9
