REMARK  Name = ZINCrg000000shMD.2
REMARK                            x       y       z     vdW  Elec       q    Type
REMARK                         _______ _______ _______ _____ _____    ______ ____
ROOT
ATOM      1  C   LIG    1        4.192   1.662  -2.860  0.00  0.00    +0.500 C 
ATOM      2  N   LIG    1        5.103   1.307  -3.788  0.00  0.00    -0.610 N 
ATOM      3  C   LIG    1        5.054  -0.017  -4.427  0.00  0.00    +0.270 C 
ATOM      4  C   LIG    1        6.440  -0.661  -4.319  0.00  0.00    +0.170 C 
ATOM      5  N   LIG    1        7.447   0.256  -4.868  0.00  0.00    -0.520 NA
ATOM      6  C   LIG    1        7.514   1.501  -4.091  0.00  0.00    +0.120 C 
ATOM      7  C   LIG    1        8.625   2.393  -4.649  0.00  0.00    +0.040 C 
ATOM      8  C   LIG    1        6.169   2.236  -4.194  0.00  0.00    +0.310 C 
ATOM      9  O   LIG    1        4.248   2.758  -2.344  0.00  0.00    -0.520 OA
ENDROOT
BRANCH   1  10
ATOM     10  C   LIG    1        3.105   0.696  -2.464  0.00  0.00    +0.340 C 
BRANCH  10  11
ATOM     11  N   LIG    1        2.312   1.274  -1.376  0.00  0.00    -0.930 N 
BRANCH  11  18
ATOM     12  C   LIG    1       -0.293   0.153  -1.603  0.00  0.00    +0.090 C 
ATOM     13  C   LIG    1       -0.040   1.628  -1.785  0.00  0.00    -0.090 A 
ATOM     14  C   LIG    1       -1.089   2.479  -2.072  0.00  0.00    +0.010 A 
ATOM     15  C   LIG    1       -0.857   3.832  -2.240  0.00  0.00    +0.030 A 
ATOM     16  C   LIG    1        0.424   4.338  -2.116  0.00  0.00    +0.010 A 
ATOM     17  C   LIG    1        1.478   3.491  -1.835  0.00  0.00    +0.060 A 
ATOM     18  C   LIG    1        1.249   2.132  -1.666  0.00  0.00    +0.130 A 
ENDBRANCH  11  18
BRANCH  11  19
ATOM     19  S   LIG    1        2.676   0.909   0.198  0.00  0.00    +2.600 S 
ATOM     20  O   LIG    1        2.058   1.944   0.950  0.00  0.00    -0.930 OA
ATOM     21  O   LIG    1        4.088   0.743   0.202  0.00  0.00    -0.940 OA
ATOM     22  C   LIG    1        1.848  -0.677   0.498  0.00  0.00    -0.280 C 
ENDBRANCH  11  19
ENDBRANCH  10  11
ENDBRANCH   1  10
BRANCH   5  23
ATOM     23  C   LIG    1        8.764  -0.390  -4.941  0.00  0.00    +0.150 C 
BRANCH  23  24
ATOM     24  C   LIG    1        8.730  -1.499  -5.995  0.00  0.00    +0.130 C 
ATOM     25  C   LIG    1       10.146  -2.036  -6.216  0.00  0.00    +0.020 C 
ATOM     26  C   LIG    1        8.187  -0.937  -7.310  0.00  0.00    +0.060 C 
BRANCH  24  27
ATOM     27  O   LIG    1        7.884  -2.559  -5.544  0.00  0.00    -0.550 OA
ATOM     28  H   LIG    1        8.129  -2.918  -4.680  0.00  0.00    +0.370 HD
ENDBRANCH  24  27
ENDBRANCH  23  24
ENDBRANCH   5  23
TORSDOF 7
