REMARK  Name = ZINCpk000000nZiE.0
REMARK                            x       y       z     vdW  Elec       q    Type
REMARK                         _______ _______ _______ _____ _____    ______ ____
ROOT
ATOM      1  C   LIG    1        4.867   5.804   1.181  0.00  0.00    +0.040 C 
ATOM      2  C   LIG    1        3.455   6.044   0.644  0.00  0.00    +0.160 C 
ATOM      3  C   LIG    1        2.500   4.952   1.173  0.00  0.00    +0.050 C 
ATOM      4  C   LIG    1        2.451   3.937   0.001  0.00  0.00    +0.030 C 
ATOM      5  C   LIG    1        2.531   4.876  -1.228  0.00  0.00    +0.280 C 
ATOM      6  C   LIG    1        2.961   7.426   1.078  0.00  0.00    +0.040 C 
ATOM      7  N   LIG    1        3.455   5.950  -0.823  0.00  0.00    -0.600 N 
ATOM      8  C   LIG    1        4.181   6.720  -1.659  0.00  0.00    +0.610 C 
ATOM      9  O   LIG    1        4.913   7.580  -1.211  0.00  0.00    -0.490 OA
ENDROOT
BRANCH   8  10
ATOM     10  C   LIG    1        4.085   6.517  -3.121  0.00  0.00    +0.020 A 
ATOM     11  C   LIG    1        4.746   7.213  -4.102  0.00  0.00    -0.030 A 
ATOM     12  C   LIG    1        5.714   8.323  -4.053  0.00  0.00    +0.590 C 
ATOM     13  N   LIG    1        5.956   8.957  -5.228  0.00  0.00    -0.740 N 
ATOM     14  H   LIG    1        6.662   9.622  -5.270  0.00  0.00    +0.420 HD
ATOM     15  C   LIG    1        5.183   8.664  -6.429  0.00  0.00    +0.300 C 
ATOM     16  C   LIG    1        4.858   7.174  -6.572  0.00  0.00    +0.340 C 
ATOM     17  O   LIG    1        6.264   8.653  -3.020  0.00  0.00    -0.450 OA
ATOM     18  N   LIG    1        4.342   6.669  -5.297  0.00  0.00    -0.270 N 
ATOM     19  N   LIG    1        3.508   5.740  -5.043  0.00  0.00    -0.040 NA
ATOM     20  N   LIG    1        3.325   5.614  -3.773  0.00  0.00    -0.240 NA
ENDBRANCH   8  10
BRANCH   4  21
ATOM     21  C   LIG    1        1.156   3.165   0.008  0.00  0.00    -0.070 A 
ATOM     22  C   LIG    1        1.175   1.783   0.000  0.00  0.00    +0.010 A 
ATOM     23  C   LIG    1       -0.013   1.076   0.008  0.00  0.00    +0.000 A 
ATOM     24  C   LIG    1       -1.219   1.751   0.017  0.00  0.00    +0.000 A 
ATOM     25  C   LIG    1       -1.238   3.133   0.029  0.00  0.00    +0.000 A 
ATOM     26  C   LIG    1       -0.050   3.840   0.023  0.00  0.00    +0.010 A 
ENDBRANCH   4  21
TORSDOF 2
