REMARK  Name = ZINCpe00000VVGHJ.0
REMARK                            x       y       z     vdW  Elec       q    Type
REMARK                         _______ _______ _______ _____ _____    ______ ____
ROOT
ATOM      1  C   LIG    1        1.147   1.655   0.000  0.00  0.00    +0.580 C 
ATOM      2  N   LIG    1       -0.012   0.967   0.024  0.00  0.00    -0.710 N 
ATOM      3  H   LIG    1        0.001  -0.003   0.029  0.00  0.00    +0.420 HD
ATOM      4  O   LIG    1        1.132   2.868  -0.100  0.00  0.00    -0.530 OA
ENDROOT
BRANCH   1  12
ATOM      5  O   LIG    1        1.432  -1.117   0.015  0.00  0.00    -0.510 OA
ATOM      6  C   LIG    1        2.467  -0.477   0.094  0.00  0.00    +0.540 A 
ATOM      7  N   LIG    1        3.650  -1.115   0.176  0.00  0.00    -0.580 N 
ATOM      8  H   LIG    1        3.671  -2.085   0.172  0.00  0.00    +0.440 HD
ATOM      9  C   LIG    1        4.811  -0.424   0.271  0.00  0.00    +0.470 A 
ATOM     10  C   LIG    1        4.824   0.933   0.281  0.00  0.00    -0.160 A 
ATOM     11  C   LIG    1        3.627   1.645   0.193  0.00  0.00    +0.270 A 
ATOM     12  C   LIG    1        2.429   0.941   0.095  0.00  0.00    -0.250 A 
BRANCH  10  13
ATOM     13  N   LIG    1        6.109   1.659   0.386  0.00  0.00    +0.040 N 
ATOM     14  O   LIG    1        6.122   2.877   0.394  0.00  0.00    -0.140 OA
ATOM     15  O   LIG    1        7.154   1.039   0.463  0.00  0.00    -0.160 OA
ENDBRANCH  10  13
ENDBRANCH   1  12
BRANCH   2  16
ATOM     16  C   LIG    1       -1.289   1.684   0.036  0.00  0.00    +0.250 C 
ATOM     17  C   LIG    1       -2.368   0.795   0.663  0.00  0.00    +0.020 C 
ATOM     18  C   LIG    1       -3.712   1.527   0.616  0.00  0.00    +0.050 C 
ATOM     19  C   LIG    1       -4.045   1.882  -0.835  0.00  0.00    +0.190 C 
ATOM     20  N   LIG    1       -2.984   2.734  -1.387  0.00  0.00    -0.460 N 
ATOM     21  C   LIG    1       -1.693   2.034  -1.398  0.00  0.00    +0.200 C 
BRANCH  20  22
ATOM     22  C   LIG    1       -3.318   3.183  -2.660  0.00  0.00    +0.260 A 
ATOM     23  C   LIG    1       -4.510   3.874  -2.869  0.00  0.00    +0.020 A 
ATOM     24  C   LIG    1       -4.796   4.300  -4.156  0.00  0.00    +0.050 A 
ATOM     25  C   LIG    1       -3.880   4.012  -5.158  0.00  0.00    +0.180 A 
ATOM     26  N   LIG    1       -2.775   3.352  -4.871  0.00  0.00    -0.220 NA
ATOM     27  N   LIG    1       -2.501   2.959  -3.680  0.00  0.00    -0.280 NA
ENDBRANCH  20  22
ENDBRANCH   2  16
TORSDOF 4
