REMARK  Name = ZINCrH000004tKjn.0
REMARK                            x       y       z     vdW  Elec       q    Type
REMARK                         _______ _______ _______ _____ _____    ______ ____
ROOT
ATOM      1  C   LIG    1       -0.108   6.262   0.046  0.00  0.00    +0.450 A 
ATOM      2  N   LIG    1        1.178   6.063   0.041  0.00  0.00    -0.590 NA
ATOM      3  C   LIG    1        1.736   4.832   0.038  0.00  0.00    +0.560 A 
ATOM      4  C   LIG    1        0.784   3.700   0.041  0.00  0.00    -0.230 A 
ATOM      5  C   LIG    1       -0.579   3.975   0.046  0.00  0.00    +0.050 A 
ATOM      6  S   LIG    1       -1.483   2.484   0.054  0.00  0.00    +0.180 S 
ATOM      7  C   LIG    1       -0.017   1.513   0.041  0.00  0.00    -0.200 A 
ATOM      8  C   LIG    1        0.004  -0.004   0.038  0.00  0.00    +0.120 C 
ATOM      9  C   LIG    1        1.396  -0.480  -0.382  0.00  0.00    +0.030 C 
ATOM     10  C   LIG    1        2.445   0.254   0.460  0.00  0.00    +0.020 C 
ATOM     11  C   LIG    1        2.493   1.721   0.032  0.00  0.00    +0.110 C 
ATOM     12  C   LIG    1        1.077   2.285   0.038  0.00  0.00    -0.030 A 
ATOM     13  O   LIG    1        2.945   4.666   0.035  0.00  0.00    -0.480 OA
ATOM     14  N   LIG    1       -1.033   5.277   0.049  0.00  0.00    -0.590 N 
ATOM     15  H   LIG    1       -1.982   5.479   0.053  0.00  0.00    +0.430 HD
ENDROOT
BRANCH   1  16
ATOM     16  C   LIG    1       -0.598   7.687   0.048  0.00  0.00    +0.150 C 
BRANCH  16  17
ATOM     17  C   LIG    1        0.600   8.638   0.043  0.00  0.00    +0.120 C 
BRANCH  17  19
ATOM     18  O   LIG    1       -1.082  10.295   0.050  0.00  0.00    -0.520 OA
ATOM     19  C   LIG    1        0.109  10.063   0.045  0.00  0.00    +0.520 C 
ATOM     20  N   LIG    1        0.993  11.080   0.042  0.00  0.00    -0.670 N 
ATOM     21  H   LIG    1        1.944  10.897   0.106  0.00  0.00    +0.420 HD
BRANCH  20  22
ATOM     22  C   LIG    1        0.540  12.402  -0.054  0.00  0.00    +0.160 A 
ATOM     23  C   LIG    1       -0.653  12.773   0.551  0.00  0.00    +0.060 A 
ATOM     24  C   LIG    1       -1.099  14.077   0.456  0.00  0.00    +0.040 A 
ATOM     25  C   LIG    1       -0.358  15.014  -0.242  0.00  0.00    +0.050 A 
ATOM     26  C   LIG    1        0.834  14.646  -0.848  0.00  0.00    +0.090 A 
ATOM     27  F   LIG    1        1.556  15.563  -1.530  0.00  0.00    -0.120 F 
ATOM     28  F   LIG    1       -0.797  16.289  -0.334  0.00  0.00    -0.130 F 
ATOM     29  C   LIG    1        1.286  13.344  -0.750  0.00  0.00    +0.000 A 
ENDBRANCH  20  22
ENDBRANCH  17  19
ENDBRANCH  16  17
ENDBRANCH   1  16
TORSDOF 4
