REMARK  Name = ZINCpk00000y6unf.0
REMARK                            x       y       z     vdW  Elec       q    Type
REMARK                         _______ _______ _______ _____ _____    ______ ____
ROOT
ATOM      1  C   LIG    1       -3.024   4.311  -1.731  0.00  0.00    +0.520 C 
ATOM      2  N   LIG    1       -3.237   4.257  -3.061  0.00  0.00    -0.600 N 
ATOM      3  C   LIG    1       -3.666   2.977  -3.658  0.00  0.00    +0.250 C 
ATOM      4  C   LIG    1       -2.948   2.681  -4.983  0.00  0.00    +0.020 C 
ATOM      5  C   LIG    1       -1.492   3.062  -4.876  0.00  0.00    -0.010 C 
ATOM      6  C   LIG    1       -1.309   4.500  -5.352  0.00  0.00    +0.170 C 
ATOM      7  C   LIG    1       -1.557   5.517  -4.318  0.00  0.00    +0.030 C 
ATOM      8  C   LIG    1       -3.030   5.454  -3.845  0.00  0.00    +0.290 C 
ATOM      9  O   LIG    1       -2.747   5.367  -1.203  0.00  0.00    -0.510 OA
ENDROOT
BRANCH   1  14
ATOM     10  C   LIG    1       -1.879   2.377   2.460  0.00  0.00    +0.060 C 
ATOM     11  C   LIG    1       -2.580   2.118   1.125  0.00  0.00    +0.140 C 
ATOM     12  C   LIG    1       -1.606   1.458   0.125  0.00  0.00    +0.010 C 
ATOM     13  C   LIG    1       -1.974   2.090  -1.236  0.00  0.00    +0.030 C 
ATOM     14  C   LIG    1       -3.130   3.058  -0.900  0.00  0.00    +0.150 C 
ATOM     15  O   LIG    1       -2.957   3.367   0.500  0.00  0.00    -0.340 OA
ENDBRANCH   1  14
BRANCH   6  16
ATOM     16  N   LIG    1        0.067   4.658  -5.841  0.00  0.00    -0.530 NA
ATOM     17  C   LIG    1        1.040   4.289  -4.805  0.00  0.00    +0.190 C 
BRANCH  16  18
ATOM     18  C   LIG    1        0.283   3.878  -7.067  0.00  0.00    +0.280 C 
BRANCH  18  19
ATOM     19  C   LIG    1        1.532   4.361  -7.757  0.00  0.00    +0.370 A 
ATOM     20  N   LIG    1        1.439   5.326  -8.650  0.00  0.00    -0.540 NA
ATOM     21  C   LIG    1        2.514   5.783  -9.276  0.00  0.00    +0.350 A 
ATOM     22  C   LIG    1        3.746   5.229  -8.992  0.00  0.00    -0.160 A 
ATOM     23  C   LIG    1        3.809   4.205  -8.044  0.00  0.00    +0.440 A 
ATOM     24  N   LIG    1        2.687   3.803  -7.455  0.00  0.00    -0.580 NA
BRANCH  23  25
ATOM     25  N   LIG    1        5.022   3.617  -7.724  0.00  0.00    -0.840 N 
ATOM     26  H   LIG    1        5.836   3.915  -8.158  0.00  0.00    +0.410 HD
ATOM     27  H   LIG    1        5.057   2.906  -7.064  0.00  0.00    +0.410 HD
ENDBRANCH  23  25
ENDBRANCH  18  19
ENDBRANCH  16  18
ENDBRANCH   6  16
TORSDOF 5
