REMARK  Name = ZINCpk00000ebj0n.0
REMARK                            x       y       z     vdW  Elec       q    Type
REMARK                         _______ _______ _______ _____ _____    ______ ____
ROOT
ATOM      1  C   LIG    1        1.207  -1.057  -0.085  0.00  0.00    +0.070 C 
ATOM      2  C   LIG    1        1.699  -1.262  -1.519  0.00  0.00    +0.040 C 
ATOM      3  C   LIG    1        3.042  -0.547  -1.702  0.00  0.00    +0.270 C 
ATOM      4  N   LIG    1        3.974  -1.024  -0.670  0.00  0.00    -0.610 N 
ATOM      5  C   LIG    1        3.563  -0.957   0.739  0.00  0.00    +0.280 C 
ATOM      6  C   LIG    1        5.183  -1.512  -1.011  0.00  0.00    +0.570 C 
ATOM      7  O   LIG    1        5.972  -1.838  -0.146  0.00  0.00    -0.520 OA
ATOM      8  C   LIG    1        2.214  -1.666   0.893  0.00  0.00    +0.040 C 
ENDROOT
BRANCH   1  14
ATOM      9  C   LIG    1       -1.583   0.268  -0.355  0.00  0.00    +0.360 C 
ATOM     10  N   LIG    1       -1.339  -1.140  -0.032  0.00  0.00    -0.370 N 
ATOM     11  N   LIG    1       -2.318  -2.113   0.206  0.00  0.00    -0.300 NA
ATOM     12  C   LIG    1       -1.716  -3.247   0.454  0.00  0.00    +0.230 A 
ATOM     13  C   LIG    1       -0.335  -3.032   0.392  0.00  0.00    -0.120 A 
ATOM     14  C   LIG    1       -0.131  -1.729   0.088  0.00  0.00    +0.090 A 
ENDBRANCH   1  14
BRANCH   6  15
ATOM     15  C   LIG    1        5.549  -1.652  -2.435  0.00  0.00    -0.190 A 
ATOM     16  C   LIG    1        6.064  -2.861  -2.922  0.00  0.00    +0.160 A 
ATOM     17  C   LIG    1        6.387  -2.944  -4.261  0.00  0.00    +0.000 A 
ATOM     18  C   LIG    1        6.202  -1.832  -5.076  0.00  0.00    +0.380 A 
ATOM     19  N   LIG    1        5.717  -0.701  -4.584  0.00  0.00    -0.500 NA
ATOM     20  C   LIG    1        5.392  -0.580  -3.315  0.00  0.00    +0.350 A 
BRANCH  18  21
ATOM     21  N   LIG    1        6.531  -1.908  -6.430  0.00  0.00    -0.340 N 
ATOM     22  C   LIG    1        6.407  -0.929  -7.349  0.00  0.00    +0.530 A 
ATOM     23  N   LIG    1        6.824  -1.396  -8.497  0.00  0.00    -0.540 NA
ATOM     24  C   LIG    1        7.212  -2.664  -8.355  0.00  0.00    +0.450 A 
ATOM     25  N   LIG    1        7.051  -3.022  -7.109  0.00  0.00    -0.310 NA
ENDBRANCH  18  21
ENDBRANCH   6  15
TORSDOF 3
