REMARK  Name = ZINCrg00001JduVJ.0
REMARK                            x       y       z     vdW  Elec       q    Type
REMARK                         _______ _______ _______ _____ _____    ______ ____
ROOT
ATOM      1  C   LIG    1        0.350  -0.945  -4.001  0.00  0.00    -0.060 A 
ATOM      2  C   LIG    1        1.425  -0.266  -4.575  0.00  0.00    +0.120 A 
ATOM      3  C   LIG    1        1.817   0.956  -4.067  0.00  0.00    +0.000 A 
ATOM      4  C   LIG    1        1.144   1.510  -2.993  0.00  0.00    +0.030 A 
ATOM      5  C   LIG    1        0.080   0.839  -2.415  0.00  0.00    -0.190 A 
ATOM      6  C   LIG    1       -0.322  -0.382  -2.914  0.00  0.00    +0.080 A 
ENDROOT
BRANCH   1   8
ATOM      7  N   LIG    1        0.575  -2.794  -5.590  0.00  0.00    -1.120 NA
ATOM      8  C   LIG    1       -0.075  -2.254  -4.540  0.00  0.00    +0.550 C 
ATOM      9  O   LIG    1       -1.012  -2.843  -4.037  0.00  0.00    -0.620 OA
BRANCH   7  10
ATOM     10  S   LIG    1        0.099  -4.260  -6.194  0.00  0.00    +2.570 S 
ATOM     11  O   LIG    1       -1.216  -4.028  -6.681  0.00  0.00    -1.010 OA
ATOM     12  O   LIG    1        0.336  -5.171  -5.130  0.00  0.00    -1.010 OA
BRANCH  10  13
ATOM     13  C   LIG    1        1.240  -4.575  -7.569  0.00  0.00    -0.360 C 
BRANCH  13  15
ATOM     14  C   LIG    1       -0.491  -5.839  -8.854  0.00  0.00    +0.020 C 
ATOM     15  C   LIG    1        0.898  -5.918  -8.217  0.00  0.00    -0.010 C 
ATOM     16  C   LIG    1        1.935  -6.243  -9.294  0.00  0.00    +0.040 C 
ENDBRANCH  13  15
ENDBRANCH  10  13
ENDBRANCH   7  10
ENDBRANCH   1   8
BRANCH   5  17
ATOM     17  C   LIG    1       -0.644   1.448  -1.242  0.00  0.00    +0.310 C 
BRANCH  17  18
ATOM     18  N   LIG    1       -0.012   1.005   0.008  0.00  0.00    -0.380 N 
ATOM     19  C   LIG    1        1.359   1.466  -0.003  0.00  0.00    +0.260 C 
ATOM     20  C   LIG    1        2.202   0.703   1.033  0.00  0.00    +0.210 C 
ATOM     21  C   LIG    1        1.895   1.321   2.386  0.00  0.00    +0.140 A 
ATOM     22  N   LIG    1        2.700   1.953   3.183  0.00  0.00    -0.260 NA
ATOM     23  N   LIG    1        2.052   2.328   4.234  0.00  0.00    -0.290 NA
ATOM     24  C   LIG    1        0.803   1.944   4.143  0.00  0.00    +0.410 A 
ATOM     25  N   LIG    1        0.679   1.295   2.971  0.00  0.00    -0.490 N 
ATOM     26  C   LIG    1       -0.517   0.657   2.390  0.00  0.00    +0.360 C 
ATOM     27  C   LIG    1       -0.853   1.429   1.103  0.00  0.00    +0.270 C 
ATOM     28  H   LIG    1        0.002  -0.004   0.002  0.00  0.00    +0.420 HD
ENDBRANCH  17  18
ENDBRANCH   5  17
TORSDOF 6
