REMARK  Name = ZINCrg00001JduVJ.1
REMARK                            x       y       z     vdW  Elec       q    Type
REMARK                         _______ _______ _______ _____ _____    ______ ____
ROOT
ATOM      1  C   LIG    1       -5.008   2.434   4.146  0.00  0.00    -0.060 A 
ATOM      2  C   LIG    1       -4.206   3.136   5.047  0.00  0.00    +0.120 A 
ATOM      3  C   LIG    1       -4.753   3.629   6.214  0.00  0.00    +0.000 A 
ATOM      4  C   LIG    1       -6.092   3.421   6.495  0.00  0.00    +0.030 A 
ATOM      5  C   LIG    1       -6.891   2.722   5.608  0.00  0.00    -0.190 A 
ATOM      6  C   LIG    1       -6.357   2.227   4.436  0.00  0.00    +0.070 A 
ENDROOT
BRANCH   1   8
ATOM      7  N   LIG    1       -3.125   2.107   2.615  0.00  0.00    -1.120 NA
ATOM      8  C   LIG    1       -4.429   1.906   2.892  0.00  0.00    +0.550 C 
ATOM      9  O   LIG    1       -5.128   1.291   2.112  0.00  0.00    -0.620 OA
BRANCH   7  10
ATOM     10  S   LIG    1       -2.477   1.516   1.210  0.00  0.00    +2.570 S 
ATOM     11  O   LIG    1       -2.593   0.105   1.337  0.00  0.00    -1.010 OA
ATOM     12  O   LIG    1       -3.164   2.218   0.184  0.00  0.00    -1.010 OA
BRANCH  10  13
ATOM     13  C   LIG    1       -0.735   2.019   1.269  0.00  0.00    -0.360 C 
BRANCH  13  15
ATOM     14  C   LIG    1        0.002  -0.004   0.002  0.00  0.00    +0.020 C 
ATOM     15  C   LIG    1       -0.019   1.526   0.010  0.00  0.00    -0.010 C 
ATOM     16  C   LIG    1        1.417   2.055  -0.000  0.00  0.00    +0.040 C 
ENDBRANCH  13  15
ENDBRANCH  10  13
ENDBRANCH   7  10
ENDBRANCH   1   8
BRANCH   5  17
ATOM     17  C   LIG    1       -8.348   2.500   5.923  0.00  0.00    +0.320 C 
BRANCH  17  18
ATOM     18  N   LIG    1       -8.501   1.244   6.671  0.00  0.00    -0.380 N 
ATOM     19  C   LIG    1       -7.934   0.181   5.871  0.00  0.00    +0.270 C 
ATOM     20  C   LIG    1       -7.663  -1.065   6.730  0.00  0.00    +0.220 C 
ATOM     21  C   LIG    1       -8.996  -1.770   6.910  0.00  0.00    +0.150 A 
ATOM     22  N   LIG    1       -9.345  -2.949   6.496  0.00  0.00    -0.260 NA
ATOM     23  N   LIG    1      -10.566  -3.179   6.845  0.00  0.00    -0.290 NA
ATOM     24  C   LIG    1      -11.040  -2.148   7.500  0.00  0.00    +0.400 A 
ATOM     25  N   LIG    1      -10.054  -1.236   7.557  0.00  0.00    -0.490 N 
ATOM     26  C   LIG    1      -10.063   0.098   8.186  0.00  0.00    +0.360 C 
ATOM     27  C   LIG    1       -9.889   1.126   7.056  0.00  0.00    +0.270 C 
ATOM     28  H   LIG    1       -7.952   1.322   7.514  0.00  0.00    +0.420 HD
ENDBRANCH  17  18
ENDBRANCH   5  17
TORSDOF 6
