REMARK  Name = ZINCnE00000f7pMK.0
REMARK                            x       y       z     vdW  Elec       q    Type
REMARK                         _______ _______ _______ _____ _____    ______ ____
ROOT
ATOM      1  N   LIG    1       -4.573   3.501   0.240  0.00  0.00    -0.440 NA
ATOM      2  C   LIG    1       -3.625   3.240  -0.865  0.00  0.00    +0.150 C 
ATOM      3  C   LIG    1       -2.553   3.869   0.044  0.00  0.00    +0.040 C 
ATOM      4  C   LIG    1       -3.466   3.481   1.221  0.00  0.00    +0.060 C 
ENDROOT
BRANCH   3   5
ATOM      5  C   LIG    1       -1.238   3.133   0.029  0.00  0.00    -0.050 A 
ATOM      6  C   LIG    1       -1.219   1.751   0.017  0.00  0.00    -0.010 A 
ATOM      7  C   LIG    1       -0.013   1.076   0.008  0.00  0.00    +0.000 A 
ATOM      8  C   LIG    1        1.175   1.783   0.000  0.00  0.00    -0.010 A 
ATOM      9  C   LIG    1        1.156   3.165   0.008  0.00  0.00    +0.000 A 
ATOM     10  C   LIG    1       -0.050   3.840   0.022  0.00  0.00    +0.010 A 
ENDBRANCH   3   5
BRANCH   4  11
ATOM     11  C   LIG    1       -3.575   4.547   2.281  0.00  0.00    +0.510 C 
ATOM     12  O   LIG    1       -2.619   4.798   2.994  0.00  0.00    -0.700 OA
ATOM     13  O   LIG    1       -4.620   5.159   2.425  0.00  0.00    -0.680 OA
ENDBRANCH   4  11
BRANCH   1  14
ATOM     14  C   LIG    1       -5.474   2.358   0.441  0.00  0.00    +0.240 C 
BRANCH  14  18
ATOM     15  C   LIG    1       -8.909   3.060  -1.388  0.00  0.00    +0.030 A 
ATOM     16  N   LIG    1       -8.083   2.424  -2.149  0.00  0.00    -0.470 NA
ATOM     17  C   LIG    1       -6.901   2.134  -1.643  0.00  0.00    +0.190 A 
ATOM     18  C   LIG    1       -6.720   2.549  -0.385  0.00  0.00    -0.190 A 
ATOM     19  S   LIG    1       -8.198   3.354   0.139  0.00  0.00    +0.160 S 
BRANCH  15  21
ATOM     20  C   LIG    1      -11.121   2.240  -2.150  0.00  0.00    +0.040 C 
ATOM     21  C   LIG    1      -10.300   3.479  -1.786  0.00  0.00    +0.010 C 
ATOM     22  C   LIG    1      -10.226   4.414  -2.995  0.00  0.00    +0.050 C 
ATOM     23  C   LIG    1      -10.967   4.208  -0.618  0.00  0.00    +0.050 C 
ENDBRANCH  15  21
ENDBRANCH  14  18
ENDBRANCH   1  14
TORSDOF 5
