REMARK  Name = ZINCrD00000l7ieU.0
REMARK                            x       y       z     vdW  Elec       q    Type
REMARK                         _______ _______ _______ _____ _____    ______ ____
ROOT
ATOM      1  O   LIG    1       -2.704  11.257   0.786  0.00  0.00    -0.590 OA
ATOM      2  C   LIG    1       -2.218  10.617   1.699  0.00  0.00    +0.710 C 
ATOM      3  N   LIG    1       -1.556   9.472   1.441  0.00  0.00    -0.740 N 
ATOM      4  H   LIG    1       -1.168   8.961   2.170  0.00  0.00    +0.400 HD
ATOM      5  N   LIG    1       -2.342  11.053   2.968  0.00  0.00    -0.740 N 
ATOM      6  H   LIG    1       -1.954  10.543   3.696  0.00  0.00    +0.400 HD
ENDROOT
BRANCH   3   7
ATOM      7  C   LIG    1       -1.421   8.998   0.062  0.00  0.00    +0.400 C 
BRANCH   7   8
ATOM      8  C   LIG    1       -0.645   7.706   0.048  0.00  0.00    +0.000 A 
ATOM      9  N   LIG    1        0.652   7.577   0.035  0.00  0.00    -0.340 NA
ATOM     10  O   LIG    1        0.990   6.417   0.026  0.00  0.00    +0.120 OA
ATOM     11  C   LIG    1       -0.074   5.594   0.032  0.00  0.00    +0.020 A 
ATOM     12  C   LIG    1       -1.179   6.402   0.042  0.00  0.00    -0.020 A 
BRANCH  11  13
ATOM     13  C   LIG    1       -0.054   4.116   0.025  0.00  0.00    -0.040 A 
ATOM     14  C   LIG    1        1.163   3.433   0.009  0.00  0.00    +0.080 A 
ATOM     15  C   LIG    1        1.176   2.054   0.002  0.00  0.00    +0.000 A 
ATOM     16  C   LIG    1       -0.016   1.347   0.009  0.00  0.00    +0.120 A 
ATOM     17  C   LIG    1       -1.227   2.021   0.019  0.00  0.00    +0.000 A 
ATOM     18  F   LIG    1        0.002  -0.004   0.002  0.00  0.00    -0.130 F 
ATOM     19  C   LIG    1       -1.252   3.400   0.032  0.00  0.00    +0.080 A 
ENDBRANCH  11  13
ENDBRANCH   7   8
ENDBRANCH   3   7
BRANCH   5  20
ATOM     20  C   LIG    1       -3.061  12.299   3.248  0.00  0.00    +0.340 C 
BRANCH  20  21
ATOM     21  C   LIG    1       -3.055  12.559   4.732  0.00  0.00    -0.040 A 
ATOM     22  C   LIG    1       -4.146  12.261   5.482  0.00  0.00    +0.000 A 
ATOM     23  C   LIG    1       -4.173  12.485   6.861  0.00  0.00    +0.050 A 
ATOM     24  C   LIG    1       -3.115  13.022   7.518  0.00  0.00    +0.040 A 
ATOM     25  C   LIG    1       -1.948  13.363   6.801  0.00  0.00    +0.100 A 
ATOM     26  N   LIG    1       -0.779  13.886   7.124  0.00  0.00    -0.300 NA
ATOM     27  N   LIG    1        0.004  13.998   5.970  0.00  0.00    -0.420 N 
ATOM     28  H   LIG    1        0.906  14.353   5.941  0.00  0.00    +0.450 HD
ATOM     29  C   LIG    1       -0.677  13.541   4.910  0.00  0.00    +0.280 A 
ATOM     30  C   LIG    1       -1.918  13.122   5.350  0.00  0.00    -0.200 A 
ENDBRANCH  20  21
ENDBRANCH   5  20
TORSDOF 5
