REMARK  Name = ZINCpe000000TAHx.0
REMARK                            x       y       z     vdW  Elec       q    Type
REMARK                         _______ _______ _______ _____ _____    ______ ____
ROOT
ATOM      1  N   LIG    1       -1.347  -6.048   0.525  0.00  0.00    -0.520 NA
ATOM      2  C   LIG    1       -0.586  -6.445   1.716  0.00  0.00    +0.170 C 
ATOM      3  C   LIG    1        0.752  -5.703   1.738  0.00  0.00    +0.050 C 
ATOM      4  C   LIG    1        0.493  -4.194   1.755  0.00  0.00    +0.030 C 
ATOM      5  C   LIG    1       -0.343  -3.814   0.530  0.00  0.00    +0.010 C 
ATOM      6  C   LIG    1       -1.650  -4.611   0.542  0.00  0.00    +0.210 C 
ENDROOT
BRANCH   5   7
ATOM      7  C   LIG    1       -0.653  -2.340   0.570  0.00  0.00    +0.510 C 
ATOM      8  N   LIG    1        0.350  -1.440   0.566  0.00  0.00    -0.660 N 
ATOM      9  H   LIG    1        1.268  -1.737   0.473  0.00  0.00    +0.420 HD
ATOM     10  O   LIG    1       -1.806  -1.963   0.605  0.00  0.00    -0.470 OA
BRANCH   8  11
ATOM     11  C   LIG    1        0.068  -0.081   0.698  0.00  0.00    +0.360 A 
ATOM     12  C   LIG    1        1.110   0.830   0.823  0.00  0.00    -0.080 A 
ATOM     13  C   LIG    1        0.816   2.176   0.953  0.00  0.00    +0.100 A 
ATOM     14  C   LIG    1       -0.516   2.566   0.953  0.00  0.00    -0.070 A 
ATOM     15  C   LIG    1       -1.502   1.606   0.825  0.00  0.00    +0.160 A 
ATOM     16  C   LIG    1       -2.950   2.023   0.825  0.00  0.00    +0.140 C 
ATOM     17  N   LIG    1       -1.191   0.330   0.703  0.00  0.00    -0.480 NA
ENDBRANCH   8  11
ENDBRANCH   5   7
BRANCH   1  18
ATOM     18  C   LIG    1       -2.576  -6.843   0.397  0.00  0.00    +0.230 C 
BRANCH  18  24
ATOM     19  N   LIG    1       -6.166  -7.418  -2.749  0.00  0.00    -0.740 N 
ATOM     20  H   LIG    1       -6.634  -7.957  -2.091  0.00  0.00    +0.400 HD
ATOM     21  C   LIG    1       -4.960  -6.894  -2.455  0.00  0.00    +0.690 C 
ATOM     22  N   LIG    1       -4.404  -7.117  -1.247  0.00  0.00    -0.690 N 
ATOM     23  H   LIG    1       -4.872  -7.656  -0.590  0.00  0.00    +0.410 HD
ATOM     24  C   LIG    1       -3.198  -6.593  -0.953  0.00  0.00    +0.510 C 
ATOM     25  O   LIG    1       -2.612  -5.920  -1.775  0.00  0.00    -0.440 OA
ATOM     26  O   LIG    1       -4.373  -6.220  -3.278  0.00  0.00    -0.530 OA
BRANCH  19  28
ATOM     27  C   LIG    1       -8.128  -7.877  -4.135  0.00  0.00    +0.030 C 
ATOM     28  C   LIG    1       -6.770  -7.175  -4.061  0.00  0.00    +0.270 C 
ENDBRANCH  19  28
ENDBRANCH  18  24
ENDBRANCH   1  18
TORSDOF 5
