REMARK  Name = ZINCpe000000YO9s.0
REMARK                            x       y       z     vdW  Elec       q    Type
REMARK                         _______ _______ _______ _____ _____    ______ ____
ROOT
ATOM      1  C   LIG    1       -3.775   3.387  -3.636  0.00  0.00    +0.590 C 
ATOM      2  N   LIG    1       -3.120   3.038  -2.510  0.00  0.00    -0.600 N 
ATOM      3  C   LIG    1       -2.134   3.946  -1.907  0.00  0.00    +0.280 C 
ATOM      4  C   LIG    1       -0.804   3.197  -1.760  0.00  0.00    +0.300 C 
ATOM      5  N   LIG    1       -1.063   1.902  -1.115  0.00  0.00    -1.000 NA
ATOM      6  C   LIG    1       -2.045   0.992  -1.721  0.00  0.00    +0.290 C 
ATOM      7  C   LIG    1       -3.379   1.744  -1.865  0.00  0.00    +0.270 C 
ATOM      8  O   LIG    1       -3.620   4.496  -4.110  0.00  0.00    -0.520 OA
ENDROOT
BRANCH   1  14
ATOM      9  C   LIG    1       -4.276   1.759  -5.463  0.00  0.00    +0.400 A 
ATOM     10  N   LIG    1       -5.096   0.891  -6.043  0.00  0.00    -0.500 NA
ATOM     11  C   LIG    1       -6.289   0.661  -5.524  0.00  0.00    +0.310 A 
ATOM     12  C   LIG    1       -6.689   1.320  -4.370  0.00  0.00    +0.160 A 
ATOM     13  N   LIG    1       -5.884   2.181  -3.782  0.00  0.00    -0.370 NA
ATOM     14  C   LIG    1       -4.680   2.422  -4.293  0.00  0.00    -0.030 A 
BRANCH   9  15
ATOM     15  N   LIG    1       -3.029   2.006  -6.006  0.00  0.00    -0.830 N 
ATOM     16  H   LIG    1       -2.780   1.604  -6.853  0.00  0.00    +0.410 HD
ATOM     17  H   LIG    1       -2.402   2.582  -5.541  0.00  0.00    +0.410 HD
ENDBRANCH   9  15
ENDBRANCH   1  14
BRANCH   5  18
ATOM     18  S   LIG    1       -0.257   1.473   0.267  0.00  0.00    +2.690 S 
ATOM     19  O   LIG    1        0.946   2.229   0.281  0.00  0.00    -0.950 OA
ATOM     20  O   LIG    1       -0.284   0.054   0.323  0.00  0.00    -0.950 OA
BRANCH  18  21
ATOM     21  C   LIG    1       -1.219   2.043   1.629  0.00  0.00    -0.680 A 
ATOM     22  C   LIG    1       -1.003   3.307   2.147  0.00  0.00    +0.140 A 
ATOM     23  C   LIG    1       -1.760   3.757   3.212  0.00  0.00    +0.020 A 
ATOM     24  C   LIG    1       -2.728   2.938   3.767  0.00  0.00    +0.020 A 
ATOM     25  C   LIG    1       -2.940   1.671   3.252  0.00  0.00    +0.020 A 
ATOM     26 CL   LIG    1       -3.675   3.500   5.108  0.00  0.00    -0.050 Cl
ATOM     27  C   LIG    1       -2.185   1.225   2.183  0.00  0.00    +0.140 A 
ENDBRANCH  18  21
ENDBRANCH   5  18
TORSDOF 4
