REMARK  Name = ZINCpe00000JKrXw.1
REMARK                            x       y       z     vdW  Elec       q    Type
REMARK                         _______ _______ _______ _____ _____    ______ ____
ROOT
ATOM      1  O   LIG    1       -2.198  -0.226   0.153  0.00  0.00    -0.530 OA
ATOM      2  C   LIG    1       -1.247  -0.812  -0.328  0.00  0.00    +0.570 C 
ATOM      3  N   LIG    1       -1.273  -2.154  -0.447  0.00  0.00    -0.710 N 
ATOM      4  H   LIG    1       -0.515  -2.622  -0.831  0.00  0.00    +0.400 HD
ENDROOT
BRANCH   2   5
ATOM      5  C   LIG    1       -0.065  -0.052  -0.783  0.00  0.00    -0.040 A 
ATOM      6  C   LIG    1       -0.012   1.350  -0.670  0.00  0.00    -0.100 A 
ATOM      7  C   LIG    1       -0.929   2.369  -0.169  0.00  0.00    -0.020 A 
ATOM      8  C   LIG    1       -0.315   3.556  -0.322  0.00  0.00    +0.240 A 
ATOM      9  N   LIG    1        0.916   3.375  -0.888  0.00  0.00    -0.580 N 
ATOM     10  H   LIG    1        1.541   4.086  -1.099  0.00  0.00    +0.420 HD
ATOM     11  C   LIG    1        1.136   2.037  -1.116  0.00  0.00    +0.280 A 
ATOM     12  N   LIG    1        2.150   1.360  -1.634  0.00  0.00    -0.480 NA
ATOM     13  C   LIG    1        2.127   0.049  -1.751  0.00  0.00    +0.300 A 
ATOM     14  C   LIG    1        1.040  -0.701  -1.339  0.00  0.00    -0.020 A 
ENDBRANCH   2   5
BRANCH   3  15
ATOM     15  C   LIG    1       -2.446  -2.908   0.004  0.00  0.00    +0.280 C 
BRANCH  15  16
ATOM     16  C   LIG    1       -2.167  -4.407  -0.119  0.00  0.00    +0.220 C 
ATOM     17  C   LIG    1       -3.316  -5.295   0.393  0.00  0.00    +0.050 C 
ATOM     18  C   LIG    1       -2.222  -6.168   1.034  0.00  0.00    +0.280 C 
ATOM     19  N   LIG    1       -1.374  -4.958   0.997  0.00  0.00    -0.650 N 
ATOM     20  C   LIG    1       -0.307  -4.529   1.700  0.00  0.00    +0.530 C 
ATOM     21  O   LIG    1        0.141  -3.419   1.505  0.00  0.00    -0.510 OA
BRANCH  20  22
ATOM     22  C   LIG    1        0.331  -5.429   2.727  0.00  0.00    +0.160 C 
BRANCH  22  23
ATOM     23  C   LIG    1        1.495  -4.716   3.365  0.00  0.00    -0.010 A 
ATOM     24  C   LIG    1        1.442  -3.865   4.407  0.00  0.00    +0.170 A 
ATOM     25  N   LIG    1        2.691  -3.451   4.669  0.00  0.00    -0.490 NA
ATOM     26  C   LIG    1        3.516  -4.014   3.829  0.00  0.00    +0.400 A 
ATOM     27  N   LIG    1        2.811  -4.816   3.001  0.00  0.00    -0.560 N 
ATOM     28  H   LIG    1        3.170  -5.359   2.282  0.00  0.00    +0.420 HD
ENDBRANCH  22  23
ENDBRANCH  20  22
ENDBRANCH  15  16
ENDBRANCH   3  15
TORSDOF 5
