REMARK  Name = ZINCpe00000JKrXw.0
REMARK                            x       y       z     vdW  Elec       q    Type
REMARK                         _______ _______ _______ _____ _____    ______ ____
ROOT
ATOM      1  O   LIG    1       -1.166   3.768   3.360  0.00  0.00    -0.520 OA
ATOM      2  C   LIG    1       -0.668   4.309   2.393  0.00  0.00    +0.560 C 
ATOM      3  N   LIG    1       -0.341   3.580   1.307  0.00  0.00    -0.710 N 
ATOM      4  H   LIG    1        0.056   4.013   0.535  0.00  0.00    +0.400 HD
ENDROOT
BRANCH   2   5
ATOM      5  C   LIG    1       -0.421   5.772   2.406  0.00  0.00    +0.010 A 
ATOM      6  C   LIG    1       -0.755   6.547   3.525  0.00  0.00    -0.100 A 
ATOM      7  C   LIG    1       -1.323   6.306   4.789  0.00  0.00    -0.070 A 
ATOM      8  C   LIG    1       -1.381   7.508   5.425  0.00  0.00    +0.230 A 
ATOM      9  N   LIG    1       -0.891   8.478   4.652  0.00  0.00    -0.540 NA
ATOM     10  C   LIG    1       -0.489   7.994   3.489  0.00  0.00    +0.250 A 
ATOM     11  N   LIG    1        0.072   8.530   2.366  0.00  0.00    -0.480 N 
ATOM     12  H   LIG    1        0.253   9.482   2.328  0.00  0.00    +0.430 HD
ATOM     13  C   LIG    1        0.378   7.756   1.315  0.00  0.00    +0.310 A 
ATOM     14  C   LIG    1        0.156   6.413   1.304  0.00  0.00    -0.040 A 
ENDBRANCH   2   5
BRANCH   3  15
ATOM     15  C   LIG    1       -0.585   2.136   1.294  0.00  0.00    +0.280 C 
BRANCH  15  16
ATOM     16  C   LIG    1       -0.012   1.534   0.009  0.00  0.00    +0.220 C 
ATOM     17  C   LIG    1       -0.156   0.004  -0.077  0.00  0.00    +0.050 C 
ATOM     18  C   LIG    1        1.281  -0.001  -0.628  0.00  0.00    +0.280 C 
ATOM     19  N   LIG    1        1.443   1.293   0.063  0.00  0.00    -0.650 N 
ATOM     20  C   LIG    1        2.497   1.979   0.549  0.00  0.00    +0.530 C 
ATOM     21  O   LIG    1        2.318   3.009   1.165  0.00  0.00    -0.510 OA
BRANCH  20  22
ATOM     22  C   LIG    1        3.897   1.467   0.327  0.00  0.00    +0.160 C 
BRANCH  22  23
ATOM     23  C   LIG    1        4.884   2.410   0.965  0.00  0.00    -0.010 A 
ATOM     24  C   LIG    1        5.402   3.524   0.413  0.00  0.00    +0.170 A 
ATOM     25  N   LIG    1        6.236   4.080   1.304  0.00  0.00    -0.490 NA
ATOM     26  C   LIG    1        6.261   3.348   2.385  0.00  0.00    +0.400 A 
ATOM     27  N   LIG    1        5.431   2.296   2.214  0.00  0.00    -0.560 N 
ATOM     28  H   LIG    1        5.255   1.592   2.857  0.00  0.00    +0.420 HD
ENDBRANCH  22  23
ENDBRANCH  20  22
ENDBRANCH  15  16
ENDBRANCH   3  15
TORSDOF 5
