REMARK  Name = ZINCrg000000rwrP.0
REMARK                            x       y       z     vdW  Elec       q    Type
REMARK                         _______ _______ _______ _____ _____    ______ ____
ROOT
ATOM      1  C   LIG    1       -0.828   1.904  -1.233  0.00  0.00    -0.080 A 
ATOM      2  C   LIG    1       -0.156   2.339  -2.361  0.00  0.00    +0.020 A 
ATOM      3  C   LIG    1       -0.845   2.978  -3.376  0.00  0.00    +0.040 A 
ATOM      4  C   LIG    1       -2.206   3.183  -3.266  0.00  0.00    +0.030 A 
ATOM      5  C   LIG    1       -2.883   2.747  -2.134  0.00  0.00    +0.150 A 
ATOM      6  C   LIG    1       -2.190   2.102  -1.119  0.00  0.00    +0.010 A 
ENDROOT
BRANCH   1   8
ATOM      7  C   LIG    1       -0.062  -0.305  -0.359  0.00  0.00    +0.090 C 
ATOM      8  C   LIG    1       -0.073   1.208  -0.130  0.00  0.00    +0.170 C 
ATOM      9  N   LIG    1       -0.657   1.528   1.184  0.00  0.00    -0.720 N 
ATOM     10  H   LIG    1       -1.560   1.331   1.481  0.00  0.00    +0.440 HD
ATOM     11  C   LIG    1        0.304   2.148   1.892  0.00  0.00    +0.710 C 
ATOM     12  N   LIG    1        1.445   2.272   1.204  0.00  0.00    -0.680 N 
ATOM     13  H   LIG    1        2.248   2.693   1.551  0.00  0.00    +0.440 HD
ATOM     14  O   LIG    1        0.154   2.549   3.029  0.00  0.00    -0.540 OA
ATOM     15  C   LIG    1        1.341   1.742  -0.031  0.00  0.00    +0.540 C 
ATOM     16  O   LIG    1        2.201   1.702  -0.884  0.00  0.00    -0.450 OA
ENDBRANCH   1   8
BRANCH   5  17
ATOM     17  N   LIG    1       -4.263   2.953  -2.020  0.00  0.00    -0.670 N 
ATOM     18  H   LIG    1       -4.658   3.116  -1.150  0.00  0.00    +0.410 HD
ATOM     19  C   LIG    1       -5.041   2.925  -3.120  0.00  0.00    +0.520 C 
ATOM     20  O   LIG    1       -4.564   2.627  -4.194  0.00  0.00    -0.510 OA
BRANCH  19  21
ATOM     21  C   LIG    1       -6.506   3.264  -3.015  0.00  0.00    +0.070 C 
BRANCH  21  22
ATOM     22  C   LIG    1       -7.155   3.156  -4.396  0.00  0.00    +0.290 C 
BRANCH  22  23
ATOM     23  N   LIG    1       -8.579   3.485  -4.294  0.00  0.00    -0.720 N 
ATOM     24  H   LIG    1       -8.961   3.724  -3.435  0.00  0.00    +0.410 HD
ATOM     25  C   LIG    1       -9.358   3.457  -5.393  0.00  0.00    +0.610 C 
ATOM     26  O   LIG    1       -8.878   3.158  -6.471  0.00  0.00    -0.510 OA
BRANCH  25  27
ATOM     27  C   LIG    1      -10.783   3.787  -5.291  0.00  0.00    -0.090 A 
ATOM     28  C   LIG    1      -11.679   3.802  -6.321  0.00  0.00    +0.050 A 
ATOM     29  C   LIG    1      -12.919   4.165  -5.773  0.00  0.00    -0.060 A 
ATOM     30  C   LIG    1      -12.726   4.363  -4.450  0.00  0.00    +0.210 A 
ATOM     31  O   LIG    1      -11.437   4.133  -4.163  0.00  0.00    -0.170 OA
ENDBRANCH  25  27
ENDBRANCH  22  23
ENDBRANCH  21  22
ENDBRANCH  19  21
ENDBRANCH   5  17
TORSDOF 6
