REMARK  Name = ZINCrD0000075K56.0
REMARK                            x       y       z     vdW  Elec       q    Type
REMARK                         _______ _______ _______ _____ _____    ______ ____
ROOT
ATOM      1  C   LIG    1       -3.544   3.572   0.041  0.00  0.00    +0.380 A 
ATOM      2  C   LIG    1       -3.595   2.182   0.035  0.00  0.00    -0.060 A 
ATOM      3  C   LIG    1       -2.416   1.463   0.028  0.00  0.00    +0.120 A 
ATOM      4  C   LIG    1       -1.206   2.169   0.025  0.00  0.00    -0.120 A 
ATOM      5  C   LIG    1       -1.236   3.564   0.037  0.00  0.00    +0.360 A 
ATOM      6  N   LIG    1       -2.383   4.210   0.038  0.00  0.00    -0.480 NA
ENDROOT
BRANCH   4   7
ATOM      7  C   LIG    1        0.084   1.447   0.017  0.00  0.00    +0.170 A 
ATOM      8  N   LIG    1        1.244   2.011   0.014  0.00  0.00    -0.460 NA
ATOM      9  C   LIG    1        2.330   1.218   0.012  0.00  0.00    +0.090 A 
ATOM     10  C   LIG    1        3.694   1.586   0.009  0.00  0.00    +0.080 A 
ATOM     11  C   LIG    1        4.667   0.633   0.008  0.00  0.00    +0.030 A 
ATOM     12  C   LIG    1        4.340  -0.715   0.009  0.00  0.00    +0.040 A 
ATOM     13  C   LIG    1        3.019  -1.104   0.011  0.00  0.00    +0.060 A 
ATOM     14  C   LIG    1        2.009  -0.144   0.013  0.00  0.00    -0.170 A 
ATOM     15  S   LIG    1        0.255  -0.303   0.017  0.00  0.00    +0.060 S 
ENDBRANCH   4   7
BRANCH   1  18
ATOM     16  O   LIG    1       -3.626   6.225   0.156  0.00  0.00    -0.440 OA
ATOM     17  C   LIG    1       -4.692   5.646   0.158  0.00  0.00    +0.490 C 
ATOM     18  N   LIG    1       -4.729   4.303   0.049  0.00  0.00    -0.660 N 
ATOM     19  H   LIG    1       -5.581   3.845  -0.024  0.00  0.00    +0.420 HD
BRANCH  17  20
ATOM     20  C   LIG    1       -5.974   6.427   0.282  0.00  0.00    +0.180 C 
ATOM     21  O   LIG    1       -5.688   7.831   0.315  0.00  0.00    -0.350 OA
ATOM     22  C   LIG    1       -6.154   8.399   1.554  0.00  0.00    +0.230 C 
ATOM     23  C   LIG    1       -7.260   7.438   2.027  0.00  0.00    -0.050 C 
ATOM     24  C   LIG    1       -7.531   7.549   3.508  0.00  0.00    +0.230 C 
ATOM     25  O   LIG    1       -6.416   7.112   4.285  0.00  0.00    -0.370 OA
ATOM     26  C   LIG    1       -6.075   5.744   4.033  0.00  0.00    +0.220 C 
ATOM     27  C   LIG    1       -5.588   5.630   2.590  0.00  0.00    -0.010 C 
ATOM     28  C   LIG    1       -6.684   6.067   1.615  0.00  0.00    +0.000 C 
ENDBRANCH  17  20
ENDBRANCH   1  18
TORSDOF 3
