REMARK  Name = ZINCqH0000051bDo.0
REMARK                            x       y       z     vdW  Elec       q    Type
REMARK                         _______ _______ _______ _____ _____    ______ ____
ROOT
ATOM      1  C   LIG    1       -1.520   7.379  -0.158  0.00  0.00    +0.240 C 
ENDROOT
BRANCH   1   3
ATOM      2  O   LIG    1       -2.436   5.206  -0.049  0.00  0.00    -0.490 OA
ATOM      3  C   LIG    1       -1.426   5.878  -0.054  0.00  0.00    +0.520 C 
ATOM      4  N   LIG    1       -0.220   5.283   0.033  0.00  0.00    -0.660 N 
ATOM      5  H   LIG    1        0.583   5.823   0.110  0.00  0.00    +0.420 HD
BRANCH   4   6
ATOM      6  C   LIG    1       -0.125   3.890   0.013  0.00  0.00    +0.190 A 
ATOM      7  C   LIG    1       -1.101   3.147  -0.581  0.00  0.00    +0.040 A 
ATOM      8  C   LIG    1       -1.033   1.756  -0.622  0.00  0.00    +0.070 A 
ATOM      9  C   LIG    1       -0.001   1.077  -0.064  0.00  0.00    +0.050 A 
ATOM     10  C   LIG    1        1.053   1.783   0.572  0.00  0.00    +0.100 A 
ATOM     11  N   LIG    1        2.149   1.350   1.173  0.00  0.00    -0.590 NA
ATOM     12  S   LIG    1        2.964   2.565   1.700  0.00  0.00    +0.810 S 
ATOM     13  N   LIG    1        2.046   3.733   1.240  0.00  0.00    -0.600 NA
ATOM     14  C   LIG    1        0.990   3.241   0.613  0.00  0.00    +0.060 A 
ENDBRANCH   4   6
ENDBRANCH   1   3
BRANCH   1  15
ATOM     15  O   LIG    1       -2.894   7.765  -0.238  0.00  0.00    -0.290 OA
BRANCH  15  16
ATOM     16  C   LIG    1       -3.156   9.095  -0.337  0.00  0.00    +0.130 A 
ATOM     17  C   LIG    1       -2.111  10.008  -0.357  0.00  0.00    -0.070 A 
ATOM     18  C   LIG    1       -2.373  11.362  -0.459  0.00  0.00    +0.050 A 
ATOM     19  C   LIG    1       -3.675  11.813  -0.540  0.00  0.00    -0.010 A 
ATOM     20  C   LIG    1       -4.730  10.902  -0.520  0.00  0.00    -0.010 A 
ATOM     21  C   LIG    1       -4.466   9.538  -0.424  0.00  0.00    +0.010 A 
BRANCH  20  22
ATOM     22  C   LIG    1       -6.131  11.384  -0.609  0.00  0.00    -0.000 A 
ATOM     23  C   LIG    1       -7.201  10.485  -0.596  0.00  0.00    -0.020 A 
ATOM     24  C   LIG    1       -8.488  10.976  -0.676  0.00  0.00    +0.260 A 
ATOM     25  N   LIG    1       -8.713  12.273  -0.772  0.00  0.00    -0.490 NA
ATOM     26  C   LIG    1       -7.732  13.153  -0.792  0.00  0.00    +0.260 A 
ATOM     27  C   LIG    1       -6.415  12.748  -0.712  0.00  0.00    -0.020 A 
ENDBRANCH  20  22
ENDBRANCH  15  16
ENDBRANCH   1  15
TORSDOF 5
