REMARK  Name = ZINCpe00000z3Tu8.1
REMARK                            x       y       z     vdW  Elec       q    Type
REMARK                         _______ _______ _______ _____ _____    ______ ____
ROOT
ATOM      1  C   LIG    1        5.694   5.742  -1.209  0.00  0.00    +0.520 C 
ATOM      2  N   LIG    1        4.522   5.078  -1.272  0.00  0.00    -0.610 N 
ATOM      3  C   LIG    1        3.253   5.809  -1.380  0.00  0.00    +0.270 C 
ATOM      4  C   LIG    1        2.334   5.369  -0.234  0.00  0.00    +0.270 C 
ATOM      5  N   LIG    1        2.303   3.900  -0.195  0.00  0.00    -0.630 N 
ATOM      6  C   LIG    1        3.573   3.168  -0.082  0.00  0.00    +0.300 C 
ATOM      7  C   LIG    1        4.492   3.609  -1.233  0.00  0.00    +0.280 C 
ATOM      8  O   LIG    1        5.701   6.952  -1.140  0.00  0.00    -0.530 OA
ENDROOT
BRANCH   1  13
ATOM      9  C   LIG    1       10.829   6.425  -3.339  0.00  0.00    +0.140 C 
ATOM     10  C   LIG    1       10.584   5.395  -2.267  0.00  0.00    +0.100 A 
ATOM     11  C   LIG    1        9.416   5.164  -1.640  0.00  0.00    -0.240 A 
ATOM     12  C   LIG    1        8.090   5.853  -1.847  0.00  0.00    +0.140 C 
ATOM     13  C   LIG    1        6.994   4.979  -1.225  0.00  0.00    +0.000 C 
ATOM     14  C   LIG    1        7.382   4.606   0.207  0.00  0.00    +0.060 C 
ATOM     15  C   LIG    1        8.530   3.590   0.185  0.00  0.00    +0.140 C 
ATOM     16  C   LIG    1        9.618   4.127  -0.714  0.00  0.00    +0.080 A 
ATOM     17  N   LIG    1       10.861   3.751  -0.788  0.00  0.00    -0.290 NA
ATOM     18  N   LIG    1       11.497   4.535  -1.762  0.00  0.00    -0.480 N 
ATOM     19  H   LIG    1       12.428   4.472  -2.027  0.00  0.00    +0.440 HD
ENDBRANCH   1  13
BRANCH   5  20
ATOM     20  C   LIG    1        1.108   3.222  -0.259  0.00  0.00    +0.440 A 
ATOM     21  C   LIG    1        0.959   2.031   0.419  0.00  0.00    -0.160 A 
ATOM     22  C   LIG    1       -0.253   1.346   0.354  0.00  0.00    +0.160 A 
ATOM     23  C   LIG    1       -1.288   1.878  -0.387  0.00  0.00    -0.150 A 
ATOM     24  C   LIG    1       -1.100   3.087  -1.066  0.00  0.00    +0.530 A 
ATOM     25  O   LIG    1       -2.011   3.561  -1.726  0.00  0.00    -0.560 OA
ATOM     26  N   LIG    1        0.079   3.733  -0.990  0.00  0.00    -0.620 N 
ATOM     27  H   LIG    1        0.196   4.572  -1.462  0.00  0.00    +0.410 HD
ENDBRANCH   5  20
TORSDOF 2
