REMARK  Name = ZINCpe00000z3Tu8.0
REMARK                            x       y       z     vdW  Elec       q    Type
REMARK                         _______ _______ _______ _____ _____    ______ ____
ROOT
ATOM      1  C   LIG    1        5.694   5.742  -1.209  0.00  0.00    +0.520 C 
ATOM      2  N   LIG    1        4.522   5.078  -1.274  0.00  0.00    -0.610 N 
ATOM      3  C   LIG    1        3.253   5.810  -1.382  0.00  0.00    +0.270 C 
ATOM      4  C   LIG    1        2.333   5.367  -0.237  0.00  0.00    +0.270 C 
ATOM      5  N   LIG    1        2.303   3.898  -0.200  0.00  0.00    -0.630 N 
ATOM      6  C   LIG    1        3.572   3.167  -0.086  0.00  0.00    +0.300 C 
ATOM      7  C   LIG    1        4.492   3.609  -1.236  0.00  0.00    +0.270 C 
ATOM      8  O   LIG    1        5.701   6.952  -1.139  0.00  0.00    -0.530 OA
ENDROOT
BRANCH   1  17
ATOM      9  C   LIG    1       10.857   6.459  -3.344  0.00  0.00    +0.150 C 
ATOM     10  C   LIG    1       10.628   5.428  -2.269  0.00  0.00    +0.090 A 
ATOM     11  N   LIG    1       11.530   4.613  -1.779  0.00  0.00    -0.290 NA
ATOM     12  N   LIG    1       10.917   3.814  -0.802  0.00  0.00    -0.470 N 
ATOM     13  H   LIG    1       11.349   3.122  -0.277  0.00  0.00    +0.440 HD
ATOM     14  C   LIG    1        9.627   4.178  -0.724  0.00  0.00    +0.080 A 
ATOM     15  C   LIG    1        8.556   3.618   0.179  0.00  0.00    +0.120 C 
ATOM     16  C   LIG    1        7.383   4.605   0.208  0.00  0.00    +0.060 C 
ATOM     17  C   LIG    1        6.994   4.979  -1.225  0.00  0.00    -0.010 C 
ATOM     18  C   LIG    1        8.092   5.854  -1.842  0.00  0.00    +0.140 C 
ATOM     19  C   LIG    1        9.421   5.175  -1.622  0.00  0.00    -0.230 A 
ENDBRANCH   1  17
BRANCH   5  20
ATOM     20  C   LIG    1        1.107   3.221  -0.265  0.00  0.00    +0.440 A 
ATOM     21  C   LIG    1        0.958   2.029   0.412  0.00  0.00    -0.160 A 
ATOM     22  C   LIG    1       -0.254   1.344   0.345  0.00  0.00    +0.160 A 
ATOM     23  C   LIG    1       -1.288   1.877  -0.396  0.00  0.00    -0.150 A 
ATOM     24  C   LIG    1       -1.100   3.087  -1.074  0.00  0.00    +0.530 A 
ATOM     25  O   LIG    1       -2.011   3.561  -1.734  0.00  0.00    -0.560 OA
ATOM     26  N   LIG    1        0.078   3.732  -0.996  0.00  0.00    -0.620 N 
ATOM     27  H   LIG    1        0.196   4.572  -1.467  0.00  0.00    +0.410 HD
ENDBRANCH   5  20
TORSDOF 2
