REMARK  Name = ZINCpe000000UCp5.0
REMARK                            x       y       z     vdW  Elec       q    Type
REMARK                         _______ _______ _______ _____ _____    ______ ____
ROOT
ATOM      1  C   LIG    1        4.479  -0.958   2.156  0.00  0.00    +0.210 C 
ENDROOT
BRANCH   1   2
ATOM      2  O   LIG    1        5.351  -1.141   1.039  0.00  0.00    -0.550 OA
ATOM      3  H   LIG    1        6.207  -0.702   1.132  0.00  0.00    +0.370 HD
ENDBRANCH   1   2
BRANCH   1   4
ATOM      4  C   LIG    1        4.201   0.535   2.346  0.00  0.00    +0.280 C 
BRANCH   4   6
ATOM      5  C   LIG    1        4.187   1.578   0.033  0.00  0.00    +0.290 C 
ATOM      6  N   LIG    1        3.462   1.045   1.189  0.00  0.00    -0.610 N 
ATOM      7  C   LIG    1        2.114   1.025   1.188  0.00  0.00    +0.520 C 
ATOM      8  O   LIG    1        1.514   0.584   2.145  0.00  0.00    -0.510 OA
BRANCH   7   9
ATOM      9  C   LIG    1        1.354   1.550  -0.003  0.00  0.00    +0.100 C 
ATOM     10  C   LIG    1        1.287   3.078   0.067  0.00  0.00    +0.250 C 
ATOM     11  O   LIG    1        0.501   3.566  -1.024  0.00  0.00    -0.380 OA
ATOM     12  C   LIG    1       -0.835   3.056  -1.044  0.00  0.00    +0.220 C 
ATOM     13  C   LIG    1       -0.790   1.527  -1.125  0.00  0.00    +0.150 C 
ATOM     14  N   LIG    1       -0.012   1.005   0.008  0.00  0.00    -0.670 NA
ATOM     15  H   LIG    1        0.002  -0.004   0.002  0.00  0.00    +0.350 HD
ENDBRANCH   7   9
ENDBRANCH   4   6
ENDBRANCH   1   4
BRANCH   1  16
ATOM     16  C   LIG    1        5.140  -1.518   3.417  0.00  0.00    +0.180 C 
BRANCH  16  17
ATOM     17  O   LIG    1        5.293  -2.933   3.286  0.00  0.00    -0.300 OA
BRANCH  17  18
ATOM     18  C   LIG    1        5.868  -3.590   4.327  0.00  0.00    +0.160 A 
ATOM     19  C   LIG    1        6.282  -2.887   5.449  0.00  0.00    -0.070 A 
ATOM     20  C   LIG    1        6.860  -3.559   6.508  0.00  0.00    +0.110 A 
ATOM     21  C   LIG    1        7.039  -4.929   6.446  0.00  0.00    -0.220 A 
ATOM     22  C   LIG    1        6.633  -5.630   5.326  0.00  0.00    +0.110 A 
ATOM     23  C   LIG    1        6.048  -4.965   4.266  0.00  0.00    -0.010 A 
BRANCH  21  24
ATOM     24  C   LIG    1        7.676  -5.658   7.600  0.00  0.00    +0.510 C 
ATOM     25  F   LIG    1        7.171  -6.960   7.666  0.00  0.00    -0.180 F 
ATOM     26  F   LIG    1        7.388  -4.985   8.793  0.00  0.00    -0.180 F 
ATOM     27  F   LIG    1        9.062  -5.704   7.414  0.00  0.00    -0.180 F 
ENDBRANCH  21  24
ENDBRANCH  17  18
ENDBRANCH  16  17
ENDBRANCH   1  16
TORSDOF 8
