REMARK  Name = ZINCvU00000008Yy.0
REMARK                            x       y       z     vdW  Elec       q    Type
REMARK                         _______ _______ _______ _____ _____    ______ ____
ROOT
ATOM      1  C   LIG    1        1.993   6.319  -0.069  0.00  0.00    +0.100 C 
ENDROOT
BRANCH   1   2
ATOM      2  C   LIG    1        2.105   7.584   0.743  0.00  0.00    +0.470 C 
ATOM      3  O   LIG    1        2.452   7.530   1.899  0.00  0.00    -0.480 OA
BRANCH   2   4
ATOM      4  O   LIG    1        1.819   8.770   0.182  0.00  0.00    -0.290 OA
BRANCH   4  12
ATOM      5  C   LIG    1        3.214  13.879   3.957  0.00  0.00    +0.130 C 
ATOM      6  C   LIG    1        1.916  13.248   3.525  0.00  0.00    +0.030 A 
ATOM      7  C   LIG    1        0.724  13.752   3.936  0.00  0.00    -0.080 A 
ATOM      8  C   LIG    1       -0.477  13.143   3.518  0.00  0.00    +0.510 A 
ATOM      9  O   LIG    1       -0.480  12.067   2.716  0.00  0.00    -0.270 OA
ATOM     10  C   LIG    1        0.670  11.517   2.271  0.00  0.00    +0.160 A 
ATOM     11  C   LIG    1        0.649  10.409   1.437  0.00  0.00    +0.020 A 
ATOM     12  C   LIG    1        1.841   9.857   0.995  0.00  0.00    +0.140 A 
ATOM     13  C   LIG    1        3.061  10.413   1.373  0.00  0.00    +0.000 A 
ATOM     14  C   LIG    1        3.099  11.507   2.189  0.00  0.00    +0.110 A 
ATOM     15  O   LIG    1       -1.539  13.605   3.895  0.00  0.00    -0.460 OA
ATOM     16  C   LIG    1        1.905  12.074   2.649  0.00  0.00    -0.150 A 
ENDBRANCH   4  12
ENDBRANCH   2   4
ENDBRANCH   1   2
BRANCH   1  17
ATOM     17  C   LIG    1        2.372   5.119   0.801  0.00  0.00    +0.340 C 
BRANCH  17  18
ATOM     18  N   LIG    1        2.263   3.890   0.011  0.00  0.00    -0.580 N 
ATOM     19  C   LIG    1        1.047   3.198  -0.013  0.00  0.00    +0.190 A 
ATOM     20  C   LIG    1       -0.152   3.893  -0.034  0.00  0.00    -0.020 A 
ATOM     21  C   LIG    1       -1.351   3.202  -0.063  0.00  0.00    +0.050 A 
ATOM     22  C   LIG    1       -1.362   1.821  -0.077  0.00  0.00    +0.000 A 
ATOM     23  C   LIG    1       -0.170   1.117  -0.049  0.00  0.00    +0.080 A 
ATOM     24  C   LIG    1        1.031   1.801  -0.020  0.00  0.00    -0.150 A 
ATOM     25  S   LIG    1        2.563   0.926   0.011  0.00  0.00    +0.010 S 
ATOM     26  C   LIG    1        3.644   2.066  -0.794  0.00  0.00    -0.150 A 
ATOM     27  C   LIG    1        4.740   1.614  -1.505  0.00  0.00    +0.080 A 
ATOM     28  C   LIG    1        5.579   2.524  -2.127  0.00  0.00    +0.000 A 
ATOM     29  C   LIG    1        5.320   3.878  -2.038  0.00  0.00    +0.050 A 
ATOM     30  C   LIG    1        4.223   4.336  -1.329  0.00  0.00    -0.020 A 
ATOM     31  C   LIG    1        3.377   3.434  -0.702  0.00  0.00    +0.190 A 
ENDBRANCH  17  18
ENDBRANCH   1  17
TORSDOF 5
