REMARK  Name = ZINCpk00000xVpdd.0
REMARK                            x       y       z     vdW  Elec       q    Type
REMARK                         _______ _______ _______ _____ _____    ______ ____
ROOT
ATOM      1  C   LIG    1       -1.022  -5.145  -0.016  0.00  0.00    +0.520 C 
ATOM      2  N   LIG    1       -1.099  -6.491  -0.023  0.00  0.00    -0.690 N 
ATOM      3  H   LIG    1       -0.288  -7.023  -0.034  0.00  0.00    +0.410 HD
ATOM      4  C   LIG    1       -2.302  -7.097  -0.015  0.00  0.00    +0.690 C 
ATOM      5  N   LIG    1       -2.379  -8.442  -0.021  0.00  0.00    -0.730 N 
ATOM      6  H   LIG    1       -1.568  -8.975  -0.032  0.00  0.00    +0.400 HD
ATOM      7  O   LIG    1       -3.318  -6.430  -0.001  0.00  0.00    -0.520 OA
ATOM      8  O   LIG    1       -2.035  -4.480  -0.003  0.00  0.00    -0.450 OA
ENDROOT
BRANCH   5   9
ATOM      9  C   LIG    1       -3.688  -9.101  -0.012  0.00  0.00    +0.200 C 
ATOM     10  C   LIG    1       -4.455  -8.694   1.247  0.00  0.00    +0.030 C 
ATOM     11  C   LIG    1       -5.822  -9.382   1.257  0.00  0.00    -0.010 C 
ATOM     12  C   LIG    1       -6.614  -8.960   0.018  0.00  0.00    +0.020 C 
ATOM     13  C   LIG    1       -5.846  -9.368  -1.242  0.00  0.00    -0.010 C 
ATOM     14  C   LIG    1       -5.653 -10.886  -1.252  0.00  0.00    +0.020 C 
ATOM     15  C   LIG    1       -4.861 -11.307  -0.013  0.00  0.00    +0.000 C 
ATOM     16  C   LIG    1       -5.628 -10.899   1.246  0.00  0.00    +0.020 C 
ATOM     17  C   LIG    1       -4.480  -8.680  -1.251  0.00  0.00    +0.030 C 
ATOM     18  C   LIG    1       -3.494 -10.619  -0.022  0.00  0.00    +0.030 C 
ENDBRANCH   5   9
BRANCH   1  19
ATOM     19  C   LIG    1        0.324  -4.467  -0.026  0.00  0.00    +0.090 C 
BRANCH  19  20
ATOM     20  C   LIG    1        0.131  -2.950  -0.015  0.00  0.00    +0.120 C 
BRANCH  20  21
ATOM     21  S   LIG    1        1.747  -2.135  -0.027  0.00  0.00    +0.040 S 
BRANCH  21  27
ATOM     22  C   LIG    1        3.517   0.651  -0.028  0.00  0.00    +0.390 C 
ATOM     23  N   LIG    1        2.052   0.636  -0.014  0.00  0.00    -0.360 N 
ATOM     24  N   LIG    1        1.187   1.744   0.000  0.00  0.00    -0.080 NA
ATOM     25  N   LIG    1       -0.015   1.280   0.009  0.00  0.00    -0.030 NA
ATOM     26  N   LIG    1        0.002  -0.004   0.002  0.00  0.00    -0.330 NA
ATOM     27  C   LIG    1        1.240  -0.448  -0.012  0.00  0.00    +0.210 A 
ENDBRANCH  21  27
ENDBRANCH  20  21
ENDBRANCH  19  20
ENDBRANCH   1  19
TORSDOF 5
