REMARK  Name = ZINCpe00000MJIJg.2
REMARK                            x       y       z     vdW  Elec       q    Type
REMARK                         _______ _______ _______ _____ _____    ______ ____
ROOT
ATOM      1  C   LIG    1        3.496   2.772   0.010  0.00  0.00    +0.120 C 
ATOM      2  C   LIG    1        2.487   1.605  -0.014  0.00  0.00    +0.270 C 
ATOM      3  N   LIG    1        1.139   2.192   0.003  0.00  0.00    -0.620 N 
ATOM      4  C   LIG    1        1.265   3.661   0.004  0.00  0.00    +0.280 C 
ATOM      5  C   LIG    1       -0.018   1.503   0.010  0.00  0.00    +0.530 C 
ATOM      6  O   LIG    1       -1.077   2.095   0.018  0.00  0.00    -0.520 OA
ATOM      7  C   LIG    1        2.666   3.937   0.609  0.00  0.00    +0.030 C 
ENDROOT
BRANCH   1  10
ATOM      8  C   LIG    1        6.708   2.091   1.524  0.00  0.00    +0.290 A 
ATOM      9  N   LIG    1        5.945   2.405   0.508  0.00  0.00    -0.530 NA
ATOM     10  C   LIG    1        4.671   2.443   0.895  0.00  0.00    +0.240 A 
ATOM     11  N   LIG    1        4.604   2.144   2.166  0.00  0.00    -0.310 NA
ATOM     12  N   LIG    1        5.920   1.911   2.597  0.00  0.00    -0.460 N 
ATOM     13  H   LIG    1        6.203   1.667   3.492  0.00  0.00    +0.450 HD
BRANCH   8  14
ATOM     14  C   LIG    1        8.208   1.950   1.493  0.00  0.00    +0.320 C 
BRANCH  14  16
ATOM     15  C   LIG    1       10.097   1.430   2.874  0.00  0.00    +0.230 C 
ATOM     16  O   LIG    1        8.679   1.590   2.793  0.00  0.00    -0.400 OA
ENDBRANCH  14  16
ENDBRANCH   8  14
ENDBRANCH   1  10
BRANCH   7  17
ATOM     17  C   LIG    1        3.206   5.291   0.143  0.00  0.00    -0.040 C 
ATOM     18  C   LIG    1        3.879   6.181   1.190  0.00  0.00    +0.010 C 
ATOM     19  C   LIG    1        2.495   6.547   0.650  0.00  0.00    +0.030 C 
ENDBRANCH   7  17
BRANCH   5  20
ATOM     20  C   LIG    1        0.002  -0.004   0.002  0.00  0.00    +0.140 C 
BRANCH  20  21
ATOM     21  C   LIG    1       -1.412  -0.526   0.013  0.00  0.00    +0.100 A 
ATOM     22  C   LIG    1       -2.206  -0.701  -1.069  0.00  0.00    -0.100 A 
ATOM     23  C   LIG    1       -3.433  -1.203  -0.625  0.00  0.00    +0.230 A 
ATOM     24  N   LIG    1       -3.381  -1.318   0.677  0.00  0.00    -0.290 NA
ATOM     25  N   LIG    1       -2.115  -0.896   1.103  0.00  0.00    -0.370 N 
ATOM     26  C   LIG    1       -1.639  -0.863   2.488  0.00  0.00    +0.350 C 
ENDBRANCH  20  21
ENDBRANCH   5  20
TORSDOF 6
