REMARK  Name = ZINCpe00000MJIJg.0
REMARK                            x       y       z     vdW  Elec       q    Type
REMARK                         _______ _______ _______ _____ _____    ______ ____
ROOT
ATOM      1  C   LIG    1        1.482  -0.442   0.013  0.00  0.00    +0.110 C 
ATOM      2  C   LIG    1        0.002  -0.004   0.002  0.00  0.00    +0.260 C 
ATOM      3  N   LIG    1       -0.018   1.466   0.010  0.00  0.00    -0.620 N 
ATOM      4  C   LIG    1        1.372   1.958  -0.001  0.00  0.00    +0.280 C 
ATOM      5  C   LIG    1       -1.124   2.236   0.020  0.00  0.00    +0.530 C 
ATOM      6  O   LIG    1       -1.021   3.445   0.025  0.00  0.00    -0.510 OA
ATOM      7  C   LIG    1        2.207   0.798   0.598  0.00  0.00    +0.030 C 
ENDROOT
BRANCH   1  12
ATOM      8  C   LIG    1        2.434  -3.506   1.693  0.00  0.00    +0.230 A 
ATOM      9  N   LIG    1        1.505  -3.118   2.527  0.00  0.00    -0.290 NA
ATOM     10  N   LIG    1        0.997  -1.905   2.033  0.00  0.00    -0.480 N 
ATOM     11  H   LIG    1        0.294  -1.365   2.428  0.00  0.00    +0.440 HD
ATOM     12  C   LIG    1        1.676  -1.642   0.903  0.00  0.00    +0.300 A 
ATOM     13  N   LIG    1        2.531  -2.613   0.709  0.00  0.00    -0.510 NA
BRANCH   8  14
ATOM     14  C   LIG    1        3.256  -4.762   1.821  0.00  0.00    +0.320 C 
BRANCH  14  16
ATOM     15  C   LIG    1        3.294  -7.079   1.211  0.00  0.00    +0.220 C 
ATOM     16  O   LIG    1        2.594  -5.835   1.150  0.00  0.00    -0.390 OA
ENDBRANCH  14  16
ENDBRANCH   8  14
ENDBRANCH   1  12
BRANCH   7  17
ATOM     17  C   LIG    1        3.658   0.863   0.116  0.00  0.00    -0.020 C 
ATOM     18  C   LIG    1        4.758   0.622   1.152  0.00  0.00    +0.020 C 
ATOM     19  C   LIG    1        4.514   2.032   0.607  0.00  0.00    +0.010 C 
ENDBRANCH   7  17
BRANCH   5  20
ATOM     20  C   LIG    1       -2.488   1.597   0.024  0.00  0.00    +0.140 C 
BRANCH  20  21
ATOM     21  C   LIG    1       -3.546   2.670   0.034  0.00  0.00    +0.090 A 
ATOM     22  C   LIG    1       -4.044   3.310  -1.049  0.00  0.00    -0.100 A 
ATOM     23  C   LIG    1       -5.003   4.226  -0.604  0.00  0.00    +0.240 A 
ATOM     24  N   LIG    1       -5.077   4.139   0.700  0.00  0.00    -0.290 NA
ATOM     25  N   LIG    1       -4.171   3.160   1.125  0.00  0.00    -0.370 N 
ATOM     26  C   LIG    1       -3.939   2.744   2.511  0.00  0.00    +0.350 C 
ENDBRANCH  20  21
ENDBRANCH   5  20
TORSDOF 6
