REMARK  Name = ZINCBI0000000b5X.0
REMARK                            x       y       z     vdW  Elec       q    Type
REMARK                         _______ _______ _______ _____ _____    ______ ____
ROOT
ATOM      1  C   LIG    1       -1.020   7.861   0.579  0.00  0.00    +0.560 C 
ATOM      2  N   LIG    1       -1.206   9.148   0.225  0.00  0.00    -0.580 N 
ATOM      3  O   LIG    1       -1.970   7.103   0.638  0.00  0.00    -0.490 OA
ENDROOT
BRANCH   1   9
ATOM      4  O   LIG    1       -0.327   3.883   4.043  0.00  0.00    -0.470 OA
ATOM      5  C   LIG    1        0.386   4.590   3.356  0.00  0.00    +0.570 A 
ATOM      6  N   LIG    1       -0.146   5.540   2.559  0.00  0.00    -0.630 N 
ATOM      7  H   LIG    1       -1.109   5.660   2.537  0.00  0.00    +0.430 HD
ATOM      8  C   LIG    1        0.654   6.343   1.778  0.00  0.00    +0.400 A 
ATOM      9  C   LIG    1        0.329   7.373   0.893  0.00  0.00    -0.340 A 
ATOM     10  C   LIG    1        1.543   7.857   0.357  0.00  0.00    +0.320 A 
ATOM     11  N   LIG    1        2.521   7.173   0.879  0.00  0.00    -0.250 NA
ATOM     12  N   LIG    1        1.999   6.222   1.768  0.00  0.00    -0.310 N 
ATOM     13  C   LIG    1        2.628   5.267   2.559  0.00  0.00    +0.180 A 
ATOM     14  C   LIG    1        4.009   5.133   2.558  0.00  0.00    +0.030 A 
ATOM     15  C   LIG    1        4.606   4.175   3.353  0.00  0.00    +0.100 A 
ATOM     16  C   LIG    1        3.839   3.345   4.156  0.00  0.00    +0.030 A 
ATOM     17  C   LIG    1        2.465   3.461   4.167  0.00  0.00    +0.140 A 
ATOM     18  C   LIG    1        1.851   4.427   3.372  0.00  0.00    -0.170 A 
ENDBRANCH   1   9
BRANCH   2  19
ATOM     19  C   LIG    1       -2.563   9.684   0.098  0.00  0.00    +0.270 C 
ATOM     20  C   LIG    1       -3.296   8.959  -1.034  0.00  0.00    +0.040 C 
ATOM     21  C   LIG    1       -3.428   7.475  -0.676  0.00  0.00    +0.070 C 
ATOM     22  C   LIG    1       -4.154   7.343   0.664  0.00  0.00    +0.260 C 
ATOM     23  N   LIG    1       -3.391   8.034   1.710  0.00  0.00    -0.390 N 
ATOM     24  H   LIG    1       -2.457   7.655   1.749  0.00  0.00    +0.410 HD
ATOM     25  C   LIG    1       -3.322   9.470   1.409  0.00  0.00    +0.230 C 
BRANCH  23  26
ATOM     26  C   LIG    1       -4.052   7.840   3.007  0.00  0.00    +0.270 C 
BRANCH  26  27
ATOM     27  C   LIG    1       -4.008   6.380   3.380  0.00  0.00    -0.140 A 
ATOM     28  C   LIG    1       -5.035   5.538   2.997  0.00  0.00    +0.030 A 
ATOM     29  C   LIG    1       -4.992   4.198   3.334  0.00  0.00    +0.020 A 
ATOM     30  C   LIG    1       -3.926   3.703   4.064  0.00  0.00    +0.040 A 
ATOM     31  C   LIG    1       -2.902   4.546   4.451  0.00  0.00    +0.050 A 
ATOM     32  C   LIG    1       -2.943   5.885   4.109  0.00  0.00    +0.000 A 
ENDBRANCH  26  27
ENDBRANCH  23  26
ENDBRANCH   2  19
BRANCH   2  33
ATOM     33  C   LIG    1       -0.051  10.011  -0.034  0.00  0.00    +0.350 C 
BRANCH  33  34
ATOM     34  C   LIG    1        0.256  10.012  -1.509  0.00  0.00    -0.080 A 
ATOM     35  C   LIG    1        0.606   8.840  -2.162  0.00  0.00    -0.040 A 
ATOM     36  C   LIG    1        0.875   8.879  -3.517  0.00  0.00    +0.270 A 
ATOM     37  N   LIG    1        0.812  10.014  -4.185  0.00  0.00    -0.470 NA
ATOM     38  C   LIG    1        0.487  11.148  -3.596  0.00  0.00    +0.270 A 
ATOM     39  C   LIG    1        0.200  11.185  -2.245  0.00  0.00    -0.010 A 
ENDBRANCH  33  34
ENDBRANCH   2  33
TORSDOF 6
