REMARK  Name = ZINCBI0000000b5X.1
REMARK                            x       y       z     vdW  Elec       q    Type
REMARK                         _______ _______ _______ _____ _____    ______ ____
ROOT
ATOM      1  C   LIG    1       -1.620   8.117   0.498  0.00  0.00    +0.610 C 
ATOM      2  N   LIG    1       -1.397   9.392   0.124  0.00  0.00    -0.600 N 
ATOM      3  O   LIG    1       -2.727   7.629   0.368  0.00  0.00    -0.540 OA
ENDROOT
BRANCH   1   9
ATOM      4  O   LIG    1       -2.598   4.491   4.266  0.00  0.00    -0.480 OA
ATOM      5  C   LIG    1       -1.623   4.899   3.665  0.00  0.00    +0.560 A 
ATOM      6  N   LIG    1       -1.740   5.868   2.734  0.00  0.00    -0.620 N 
ATOM      7  H   LIG    1       -2.614   6.243   2.544  0.00  0.00    +0.430 HD
ATOM      8  C   LIG    1       -0.640   6.335   2.050  0.00  0.00    +0.400 A 
ATOM      9  C   LIG    1       -0.526   7.315   1.062  0.00  0.00    -0.330 A 
ATOM     10  C   LIG    1        0.839   7.390   0.709  0.00  0.00    +0.310 A 
ATOM     11  N   LIG    1        1.495   6.523   1.428  0.00  0.00    -0.250 NA
ATOM     12  N   LIG    1        0.601   5.851   2.272  0.00  0.00    -0.320 N 
ATOM     13  C   LIG    1        0.810   4.848   3.215  0.00  0.00    +0.180 A 
ATOM     14  C   LIG    1        2.079   4.343   3.452  0.00  0.00    +0.030 A 
ATOM     15  C   LIG    1        2.257   3.348   4.393  0.00  0.00    +0.100 A 
ATOM     16  C   LIG    1        1.177   2.848   5.104  0.00  0.00    +0.030 A 
ATOM     17  C   LIG    1       -0.093   3.335   4.878  0.00  0.00    +0.130 A 
ATOM     18  C   LIG    1       -0.284   4.343   3.935  0.00  0.00    -0.170 A 
ENDBRANCH   1   9
BRANCH   2  19
ATOM     19  C   LIG    1       -2.514  10.235  -0.309  0.00  0.00    +0.250 C 
ATOM     20  C   LIG    1       -3.186   9.603  -1.532  0.00  0.00    +0.040 C 
ATOM     21  C   LIG    1       -4.399  10.449  -1.929  0.00  0.00    +0.070 C 
ATOM     22  C   LIG    1       -5.351  10.558  -0.736  0.00  0.00    +0.250 C 
ATOM     23  N   LIG    1       -4.658  11.193   0.391  0.00  0.00    -0.370 N 
ATOM     24  H   LIG    1       -4.309  12.095   0.105  0.00  0.00    +0.420 HD
ATOM     25  C   LIG    1       -3.536  10.351   0.824  0.00  0.00    +0.250 C 
BRANCH  23  26
ATOM     26  C   LIG    1       -5.597  11.365   1.507  0.00  0.00    +0.330 C 
BRANCH  26  27
ATOM     27  C   LIG    1       -6.680  12.334   1.107  0.00  0.00    -0.160 A 
ATOM     28  C   LIG    1       -6.519  13.687   1.344  0.00  0.00    +0.040 A 
ATOM     29  C   LIG    1       -7.510  14.576   0.972  0.00  0.00    +0.030 A 
ATOM     30  C   LIG    1       -8.666  14.112   0.374  0.00  0.00    +0.060 A 
ATOM     31  C   LIG    1       -8.829  12.759   0.142  0.00  0.00    +0.030 A 
ATOM     32  C   LIG    1       -7.836  11.870   0.509  0.00  0.00    +0.030 A 
ENDBRANCH  26  27
ENDBRANCH  23  26
ENDBRANCH   2  19
BRANCH   2  33
ATOM     33  C   LIG    1       -0.037   9.936   0.151  0.00  0.00    +0.350 C 
BRANCH  33  34
ATOM     34  C   LIG    1        0.393  10.284  -1.251  0.00  0.00    -0.070 A 
ATOM     35  C   LIG    1        0.929   9.318  -2.089  0.00  0.00    -0.020 A 
ATOM     36  C   LIG    1        1.308   9.674  -3.370  0.00  0.00    +0.270 A 
ATOM     37  N   LIG    1        1.174  10.915  -3.793  0.00  0.00    -0.470 NA
ATOM     38  C   LIG    1        0.673  11.861  -3.022  0.00  0.00    +0.270 A 
ATOM     39  C   LIG    1        0.268  11.579  -1.731  0.00  0.00    -0.030 A 
ENDBRANCH  33  34
ENDBRANCH   2  33
TORSDOF 6
