REMARK  Name = ZINCrH000004v5Rb.0
REMARK                            x       y       z     vdW  Elec       q    Type
REMARK                         _______ _______ _______ _____ _____    ______ ____
ROOT
ATOM      1  C   LIG    1        4.838   1.067  -0.253  0.00  0.00    -0.160 A 
ATOM      2  C   LIG    1        4.858  -0.329  -0.255  0.00  0.00    +0.110 A 
ATOM      3  C   LIG    1        6.058  -0.999  -0.380  0.00  0.00    +0.010 A 
ATOM      4  C   LIG    1        7.240  -0.290  -0.491  0.00  0.00    +0.160 A 
ATOM      5  C   LIG    1        7.229   1.093  -0.484  0.00  0.00    -0.690 A 
ATOM      6  C   LIG    1        6.036   1.776  -0.366  0.00  0.00    +0.210 A 
ENDROOT
BRANCH   1   8
ATOM      7  O   LIG    1        3.543   3.007  -0.118  0.00  0.00    -0.500 OA
ATOM      8  C   LIG    1        3.556   1.791  -0.124  0.00  0.00    +0.560 C 
ATOM      9  N   LIG    1        2.402   1.104  -0.015  0.00  0.00    -0.670 N 
ATOM     10  H   LIG    1        2.418   0.136   0.047  0.00  0.00    +0.420 HD
BRANCH   9  11
ATOM     11  C   LIG    1        1.181   1.787   0.008  0.00  0.00    +0.160 A 
ATOM     12  C   LIG    1        0.059   1.225  -0.586  0.00  0.00    +0.030 A 
ATOM     13  C   LIG    1       -1.145   1.903  -0.568  0.00  0.00    +0.050 A 
ATOM     14  C   LIG    1       -1.237   3.136   0.053  0.00  0.00    +0.060 A 
ATOM     15  C   LIG    1       -0.118   3.700   0.647  0.00  0.00    +0.090 A 
ATOM     16  F   LIG    1       -0.208   4.907   1.248  0.00  0.00    -0.120 F 
ATOM     17  F   LIG    1       -2.417   3.794   0.075  0.00  0.00    -0.130 F 
ATOM     18  C   LIG    1        1.090   3.027   0.626  0.00  0.00    +0.030 A 
ENDBRANCH   9  11
ENDBRANCH   1   8
BRANCH   5  19
ATOM     19  S   LIG    1        8.741   1.986  -0.627  0.00  0.00    +2.700 S 
ATOM     20  O   LIG    1        8.404   3.269  -1.135  0.00  0.00    -0.950 OA
ATOM     21  O   LIG    1        9.663   1.114  -1.267  0.00  0.00    -0.950 OA
BRANCH  19  22
ATOM     22  N   LIG    1        9.315   2.227   0.908  0.00  0.00    -1.110 NA
ATOM     23  H   LIG    1        9.380   3.126   1.266  0.00  0.00    +0.420 HD
BRANCH  22  24
ATOM     24  C   LIG    1        9.723   1.082   1.726  0.00  0.00    +0.370 C 
BRANCH  24  25
ATOM     25  C   LIG    1       10.533   1.567   2.900  0.00  0.00    -0.210 A 
ATOM     26  C   LIG    1       10.034   1.910   4.089  0.00  0.00    +0.030 A 
ATOM     27  C   LIG    1       10.973   2.326   5.017  0.00  0.00    +0.000 A 
ATOM     28  C   LIG    1       12.234   2.321   4.582  0.00  0.00    -0.030 A 
ATOM     29  S   LIG    1       12.281   1.760   2.916  0.00  0.00    +0.120 S 
ENDBRANCH  24  25
ENDBRANCH  22  24
ENDBRANCH  19  22
ENDBRANCH   5  19
TORSDOF 6
