REMARK  Name = ZINCpk00000ebDX0.2
REMARK                            x       y       z     vdW  Elec       q    Type
REMARK                         _______ _______ _______ _____ _____    ______ ____
ROOT
ATOM      1  O   LIG    1        1.048   4.241  -3.319  0.00  0.00    -0.510 OA
ATOM      2  C   LIG    1       -0.128   4.545  -3.333  0.00  0.00    +0.600 C 
ATOM      3  N   LIG    1       -0.913   4.250  -2.277  0.00  0.00    -0.710 N 
ATOM      4  H   LIG    1       -1.852   4.493  -2.288  0.00  0.00    +0.410 HD
ENDROOT
BRANCH   3   5
ATOM      5  C   LIG    1       -0.348   3.561  -1.114  0.00  0.00    +0.250 C 
ATOM      6  C   LIG    1       -0.359   2.050  -1.359  0.00  0.00    +0.000 C 
ATOM      7  C   LIG    1        0.177   1.335  -0.116  0.00  0.00    +0.040 C 
ATOM      8  C   LIG    1       -0.677   1.717   1.095  0.00  0.00    +0.160 C 
ATOM      9  N   LIG    1       -0.633   3.172   1.287  0.00  0.00    -0.520 NA
ATOM     10  C   LIG    1       -1.187   3.879   0.125  0.00  0.00    +0.170 C 
BRANCH   9  11
ATOM     11  C   LIG    1       -1.329   3.562   2.521  0.00  0.00    +0.200 C 
BRANCH  11  12
ATOM     12  C   LIG    1       -0.788   2.740   3.693  0.00  0.00    +0.170 C 
BRANCH  12  13
ATOM     13  O   LIG    1        0.601   3.025   3.873  0.00  0.00    -0.560 OA
ATOM     14  H   LIG    1        1.011   2.538   4.600  0.00  0.00    +0.380 HD
ENDBRANCH  12  13
ENDBRANCH  11  12
ENDBRANCH   9  11
ENDBRANCH   3   5
BRANCH   2  15
ATOM     15  C   LIG    1       -0.700   5.242  -4.510  0.00  0.00    -0.030 A 
ATOM     16  N   LIG    1       -1.941   5.631  -4.668  0.00  0.00    -0.320 NA
ATOM     17  O   LIG    1       -2.101   6.174  -5.737  0.00  0.00    +0.140 OA
ATOM     18  C   LIG    1       -0.966   6.219  -6.448  0.00  0.00    -0.040 A 
ATOM     19  C   LIG    1       -0.011   5.628  -5.693  0.00  0.00    +0.040 A 
BRANCH  18  20
ATOM     20  C   LIG    1       -0.787   6.817  -7.820  0.00  0.00    +0.330 C 
BRANCH  20  21
ATOM     21  O   LIG    1       -1.032   5.817  -8.811  0.00  0.00    -0.310 OA
BRANCH  21  22
ATOM     22  C   LIG    1       -0.912   6.194 -10.111  0.00  0.00    +0.130 A 
ATOM     23  C   LIG    1       -0.571   7.501 -10.427  0.00  0.00    -0.080 A 
ATOM     24  C   LIG    1       -0.443   7.881 -11.749  0.00  0.00    +0.050 A 
ATOM     25  C   LIG    1       -0.668   6.962 -12.758  0.00  0.00    -0.020 A 
ATOM     26  C   LIG    1       -1.014   5.660 -12.446  0.00  0.00    +0.050 A 
ATOM     27  C   LIG    1       -1.137   5.274 -11.125  0.00  0.00    -0.020 A 
ENDBRANCH  21  22
ENDBRANCH  20  21
ENDBRANCH  18  20
ENDBRANCH   2  15
TORSDOF 8
