REMARK  Name = ZINCrD00000F5LHO.0
REMARK                            x       y       z     vdW  Elec       q    Type
REMARK                         _______ _______ _______ _____ _____    ______ ____
ROOT
ATOM      1  N   LIG    1        6.120   4.000  -0.035  0.00  0.00    -0.590 NA
ATOM      2  C   LIG    1        6.990   5.008  -0.039  0.00  0.00    +0.380 A 
ATOM      3  S   LIG    1        8.708   4.896  -0.049  0.00  0.00    +0.170 S 
ATOM      4  C   LIG    1        8.973   6.649  -0.050  0.00  0.00    -0.080 A 
ATOM      5  C   LIG    1        7.761   7.190  -0.035  0.00  0.00    +0.250 A 
ATOM      6  N   LIG    1        6.706   6.333  -0.029  0.00  0.00    -0.470 N 
ENDROOT
BRANCH   1   7
ATOM      7  C   LIG    1        6.559   2.738  -0.046  0.00  0.00    +0.560 C 
ATOM      8  O   LIG    1        7.757   2.509  -0.059  0.00  0.00    -0.530 OA
BRANCH   7  11
ATOM      9  C   LIG    1        3.551   0.740  -0.028  0.00  0.00    +0.140 A 
ATOM     10  N   LIG    1        4.281   1.815  -0.029  0.00  0.00    -0.420 NA
ATOM     11  C   LIG    1        5.593   1.620  -0.043  0.00  0.00    +0.050 A 
ATOM     12  C   LIG    1        5.983   0.329  -0.053  0.00  0.00    -0.040 A 
ATOM     13  S   LIG    1        4.599  -0.675  -0.038  0.00  0.00    +0.150 S 
BRANCH   9  17
ATOM     14  C   LIG    1       -1.173  -0.878   0.008  0.00  0.00    +0.360 C 
ATOM     15  N   LIG    1        0.002  -0.004   0.002  0.00  0.00    -0.360 N 
ATOM     16  C   LIG    1        1.287  -0.409  -0.012  0.00  0.00    +0.270 A 
ATOM     17  C   LIG    1        2.072   0.709  -0.014  0.00  0.00    -0.180 A 
ATOM     18  C   LIG    1        1.215   1.829   0.000  0.00  0.00    +0.290 A 
ATOM     19  N   LIG    1       -0.017   1.396   0.010  0.00  0.00    -0.290 NA
ENDBRANCH   9  17
ENDBRANCH   7  11
ENDBRANCH   1   7
BRANCH   6  20
ATOM     20  C   LIG    1        5.324   6.820  -0.012  0.00  0.00    +0.370 C 
BRANCH  20  21
ATOM     21  C   LIG    1        4.865   6.979   1.415  0.00  0.00    -0.150 A 
ATOM     22  C   LIG    1        4.073   6.010   1.998  0.00  0.00    +0.100 A 
ATOM     23  C   LIG    1        3.657   6.153   3.309  0.00  0.00    +0.000 A 
ATOM     24  C   LIG    1        4.022   7.272   4.033  0.00  0.00    +0.050 A 
ATOM     25  C   LIG    1        4.810   8.246   3.449  0.00  0.00    -0.020 A 
ATOM     26  C   LIG    1        5.233   8.101   2.139  0.00  0.00    +0.110 A 
ATOM     27  F   LIG    1        6.003   9.053   1.567  0.00  0.00    -0.140 F 
ENDBRANCH  20  21
ENDBRANCH   6  20
TORSDOF 5
