REMARK  Name = ZINCvU00000006b4.0
REMARK                            x       y       z     vdW  Elec       q    Type
REMARK                         _______ _______ _______ _____ _____    ______ ____
ROOT
ATOM      1  C   LIG    1        4.864   1.058  -0.252  0.00  0.00    +0.240 C 
ENDROOT
BRANCH   1   2
ATOM      2  C   LIG    1        5.072   0.188   0.961  0.00  0.00    -0.130 A 
ATOM      3  C   LIG    1        5.546   0.742   2.136  0.00  0.00    +0.040 A 
ATOM      4  C   LIG    1        5.733  -0.055   3.249  0.00  0.00    +0.010 A 
ATOM      5  C   LIG    1        5.455  -1.407   3.186  0.00  0.00    +0.030 A 
ATOM      6  C   LIG    1        4.986  -1.962   2.010  0.00  0.00    +0.010 A 
ATOM      7  C   LIG    1        4.795  -1.165   0.898  0.00  0.00    +0.030 A 
ENDBRANCH   1   2
BRANCH   1  10
ATOM      8  N   LIG    1        2.402   1.106  -0.014  0.00  0.00    -0.660 N 
ATOM      9  H   LIG    1        2.419   0.139   0.049  0.00  0.00    +0.410 HD
ATOM     10  C   LIG    1        3.556   1.795  -0.123  0.00  0.00    +0.530 C 
ATOM     11  O   LIG    1        3.541   3.008  -0.117  0.00  0.00    -0.490 OA
BRANCH   8  17
ATOM     12  C   LIG    1       -0.224   5.044   1.316  0.00  0.00    +0.100 C 
ATOM     13  C   LIG    1       -0.121   3.698   0.646  0.00  0.00    -0.060 A 
ATOM     14  C   LIG    1       -1.236   3.135   0.053  0.00  0.00    -0.010 A 
ATOM     15  C   LIG    1       -1.145   1.902  -0.566  0.00  0.00    -0.060 A 
ATOM     16  C   LIG    1        0.059   1.225  -0.586  0.00  0.00    -0.020 A 
ATOM     17  C   LIG    1        1.181   1.788   0.009  0.00  0.00    +0.150 A 
ATOM     18  C   LIG    1       -2.361   1.294  -1.216  0.00  0.00    +0.100 C 
ATOM     19  C   LIG    1        1.087   3.028   0.626  0.00  0.00    +0.010 A 
ENDBRANCH   8  17
ENDBRANCH   1  10
BRANCH   1  20
ATOM     20  O   LIG    1        5.951   2.015  -0.354  0.00  0.00    -0.320 OA
BRANCH  20  21
ATOM     21  C   LIG    1        7.029   1.640  -1.060  0.00  0.00    +0.470 C 
ATOM     22  O   LIG    1        7.064   0.548  -1.576  0.00  0.00    -0.470 OA
BRANCH  21  23
ATOM     23  C   LIG    1        8.197   2.581  -1.209  0.00  0.00    +0.290 C 
BRANCH  23  24
ATOM     24  O   LIG    1        9.213   1.958  -1.998  0.00  0.00    -0.290 OA
BRANCH  24  25
ATOM     25  C   LIG    1       10.342   2.678  -2.229  0.00  0.00    +0.130 A 
ATOM     26  C   LIG    1       10.468   3.959  -1.712  0.00  0.00    -0.090 A 
ATOM     27  C   LIG    1       11.619   4.687  -1.945  0.00  0.00    -0.040 A 
ATOM     28  C   LIG    1       12.641   4.143  -2.700  0.00  0.00    -0.030 A 
ATOM     29  C   LIG    1       12.516   2.868  -3.221  0.00  0.00    -0.040 A 
ATOM     30  C   LIG    1       13.633   2.278  -4.044  0.00  0.00    +0.100 C 
ATOM     31  C   LIG    1       11.758   6.076  -1.379  0.00  0.00    +0.090 C 
ATOM     32  C   LIG    1       11.369   2.135  -2.987  0.00  0.00    -0.020 A 
ENDBRANCH  24  25
ENDBRANCH  23  24
ENDBRANCH  21  23
ENDBRANCH  20  21
ENDBRANCH   1  20
TORSDOF 8
