REMARK  Name = ZINCpe00000gMPtQ.0
REMARK                            x       y       z     vdW  Elec       q    Type
REMARK                         _______ _______ _______ _____ _____    ______ ____
ROOT
ATOM      1  O   LIG    1       -0.302  -0.371  -5.613  0.00  0.00    -0.330 OA
ENDROOT
BRANCH   1   2
ATOM      2  C   LIG    1        0.310  -0.635  -6.779  0.00  0.00    +0.470 C 
ATOM      3  O   LIG    1        1.400  -0.166  -7.009  0.00  0.00    -0.480 OA
BRANCH   2   4
ATOM      4  C   LIG    1       -0.362  -1.516  -7.800  0.00  0.00    +0.290 C 
BRANCH   4   5
ATOM      5  O   LIG    1        0.482  -1.646  -8.946  0.00  0.00    -0.300 OA
BRANCH   5  11
ATOM      6  C   LIG    1       -3.031  -4.480 -10.803  0.00  0.00    +0.090 C 
ATOM      7  C   LIG    1       -1.685  -3.811 -10.909  0.00  0.00    -0.040 A 
ATOM      8  C   LIG    1       -0.918  -3.979 -12.047  0.00  0.00    -0.030 A 
ATOM      9  C   LIG    1        0.317  -3.366 -12.148  0.00  0.00    -0.040 A 
ATOM     10  C   LIG    1        0.788  -2.584 -11.111  0.00  0.00    -0.020 A 
ATOM     11  C   LIG    1        0.021  -2.415  -9.967  0.00  0.00    +0.130 A 
ATOM     12  C   LIG    1        1.150  -3.550 -13.390  0.00  0.00    +0.100 C 
ATOM     13  C   LIG    1       -1.216  -3.036  -9.866  0.00  0.00    -0.090 A 
ENDBRANCH   5  11
ENDBRANCH   4   5
ENDBRANCH   2   4
ENDBRANCH   1   2
BRANCH   1  14
ATOM     14  C   LIG    1        0.405   0.486  -4.677  0.00  0.00    +0.270 C 
BRANCH  14  15
ATOM     15  C   LIG    1       -0.430   0.669  -3.436  0.00  0.00    +0.520 C 
ATOM     16  N   LIG    1        0.027   1.431  -2.423  0.00  0.00    -0.600 N 
ATOM     17  C   LIG    1        1.336   2.081  -2.528  0.00  0.00    +0.290 C 
ATOM     18  O   LIG    1       -1.514   0.131  -3.349  0.00  0.00    -0.510 OA
BRANCH  16  19
ATOM     19  C   LIG    1       -0.784   1.609  -1.216  0.00  0.00    +0.280 C 
ATOM     20  C   LIG    1       -0.013   1.086   0.008  0.00  0.00    +0.070 C 
ATOM     21  C   LIG    1       -0.766   1.600   1.262  0.00  0.00    -0.290 C 
ATOM     22  S   LIG    1       -1.166   3.330   0.805  0.00  0.00    +2.390 S 
ATOM     23  O   LIG    1       -2.504   3.623   1.183  0.00  0.00    -0.930 OA
ATOM     24  O   LIG    1       -0.110   4.183   1.224  0.00  0.00    -0.930 OA
ATOM     25  C   LIG    1       -1.083   3.107  -1.009  0.00  0.00    -0.330 C 
ENDBRANCH  16  19
ENDBRANCH  14  15
ENDBRANCH   1  14
TORSDOF 7
