REMARK  Name = ZINCpe00000gM3wI.0
REMARK                            x       y       z     vdW  Elec       q    Type
REMARK                         _______ _______ _______ _____ _____    ______ ____
ROOT
ATOM      1  C   LIG    1        1.524   6.399   7.107  0.00  0.00    +0.520 C 
ATOM      2  N   LIG    1        1.013   5.878   5.973  0.00  0.00    -0.520 N 
ATOM      3  H   LIG    1        0.899   6.439   5.190  0.00  0.00    +0.440 HD
ATOM      4  O   LIG    1        1.667   5.697   8.086  0.00  0.00    -0.510 OA
ENDROOT
BRANCH   2   5
ATOM      5  N   LIG    1        0.646   4.527   5.926  0.00  0.00    -0.520 N 
ATOM      6  H   LIG    1        0.760   3.966   6.709  0.00  0.00    +0.440 HD
ATOM      7  C   LIG    1        0.136   4.006   4.793  0.00  0.00    +0.520 C 
ATOM      8  O   LIG    1       -0.007   4.708   3.814  0.00  0.00    -0.520 OA
BRANCH   7   9
ATOM      9  C   LIG    1       -0.259   2.553   4.742  0.00  0.00    +0.210 C 
BRANCH   9  10
ATOM     10  C   LIG    1       -0.798   2.226   3.373  0.00  0.00    +0.060 A 
ATOM     11  N   LIG    1       -0.087   1.812   2.379  0.00  0.00    -0.460 NA
ATOM     12  C   LIG    1       -0.718   1.572   1.248  0.00  0.00    +0.070 A 
ATOM     13  C   LIG    1       -2.034   1.800   1.288  0.00  0.00    -0.080 A 
ATOM     14  C   LIG    1       -0.013   1.086   0.008  0.00  0.00    +0.160 C 
ATOM     15  S   LIG    1       -2.440   2.349   2.913  0.00  0.00    +0.140 S 
ENDBRANCH   9  10
ENDBRANCH   7   9
ENDBRANCH   2   5
BRANCH   1  16
ATOM     16  C   LIG    1        1.919   7.852   7.157  0.00  0.00    +0.280 C 
BRANCH  16  17
ATOM     17  O   LIG    1        2.438   8.167   8.476  0.00  0.00    -0.320 OA
BRANCH  17  18
ATOM     18  C   LIG    1        2.838   9.436   8.689  0.00  0.00    +0.560 C 
ATOM     19  O   LIG    1        2.756  10.257   7.797  0.00  0.00    -0.480 OA
BRANCH  18  25
ATOM     20  C   LIG    1        4.770   9.791  10.472  0.00  0.00    +0.070 A 
ATOM     21  N   LIG    1        4.734  10.238  11.692  0.00  0.00    -0.350 NA
ATOM     22  O   LIG    1        3.615  10.521  12.044  0.00  0.00    +0.100 OA
ATOM     23  C   LIG    1        2.698  10.313  11.096  0.00  0.00    +0.040 A 
ATOM     24  C   LIG    1        1.215  10.561  11.203  0.00  0.00    +0.200 C 
ATOM     25  C   LIG    1        3.376   9.828  10.003  0.00  0.00    -0.240 A 
BRANCH  20  27
ATOM     26  C   LIG    1        6.590  10.526   8.957  0.00  0.00    +0.040 C 
ATOM     27  C   LIG    1        5.982   9.336   9.701  0.00  0.00    +0.130 C 
ENDBRANCH  20  27
ENDBRANCH  18  25
ENDBRANCH  17  18
ENDBRANCH  16  17
ENDBRANCH   1  16
TORSDOF 8
