REMARK  Name = ZINCvU00000006zV.0
REMARK                            x       y       z     vdW  Elec       q    Type
REMARK                         _______ _______ _______ _____ _____    ______ ____
ROOT
ATOM      1  C   LIG    1        1.448  -1.398  -0.311  0.00  0.00    +0.520 C 
ATOM      2  N   LIG    1        0.334  -1.448   0.446  0.00  0.00    -0.730 N 
ATOM      3  H   LIG    1       -0.342  -2.122   0.271  0.00  0.00    +0.400 HD
ATOM      4  O   LIG    1        2.292  -0.555  -0.093  0.00  0.00    -0.520 OA
ENDROOT
BRANCH   1   9
ATOM      5  C   LIG    1        3.980  -5.391  -2.981  0.00  0.00    +0.530 C 
ATOM      6  N   LIG    1        3.020  -4.471  -2.762  0.00  0.00    -0.610 N 
ATOM      7  C   LIG    1        3.160  -3.104  -3.281  0.00  0.00    +0.280 C 
ATOM      8  C   LIG    1        2.979  -2.116  -2.125  0.00  0.00    +0.060 C 
ATOM      9  C   LIG    1        1.644  -2.390  -1.429  0.00  0.00    -0.010 C 
ATOM     10  C   LIG    1        1.648  -3.809  -0.856  0.00  0.00    +0.030 C 
ATOM     11  C   LIG    1        1.813  -4.816  -1.998  0.00  0.00    +0.280 C 
ATOM     12  O   LIG    1        4.928  -5.122  -3.689  0.00  0.00    -0.530 OA
BRANCH   5  14
ATOM     13  C   LIG    1        5.109  -7.583  -2.717  0.00  0.00    +0.050 C 
ATOM     14  C   LIG    1        3.877  -6.754  -2.347  0.00  0.00    -0.090 C 
ATOM     15  C   LIG    1        2.617  -7.459  -2.855  0.00  0.00    +0.040 C 
ATOM     16  C   LIG    1        3.800  -6.605  -0.827  0.00  0.00    +0.040 C 
ENDBRANCH   5  14
ENDBRANCH   1   9
BRANCH   2  17
ATOM     17  C   LIG    1        0.142  -0.483   1.532  0.00  0.00    +0.370 C 
BRANCH  17  18
ATOM     18  C   LIG    1       -1.330  -0.323   1.808  0.00  0.00    -0.090 A 
ATOM     19  C   LIG    1       -2.164  -1.425   1.786  0.00  0.00    +0.010 A 
ATOM     20  C   LIG    1       -3.513  -1.269   2.031  0.00  0.00    +0.010 A 
ATOM     21  C   LIG    1       -4.038  -0.014   2.311  0.00  0.00    -0.070 A 
ATOM     22  C   LIG    1       -5.519   0.085   2.567  0.00  0.00    +0.080 C 
ATOM     23  C   LIG    1       -5.856   1.400   3.267  0.00  0.00    +0.020 C 
ATOM     24  C   LIG    1       -5.222   2.547   2.472  0.00  0.00    +0.020 C 
ATOM     25  C   LIG    1       -3.706   2.471   2.642  0.00  0.00    +0.080 C 
ATOM     26  C   LIG    1       -3.207   1.083   2.337  0.00  0.00    -0.070 A 
ATOM     27  C   LIG    1       -1.851   0.925   2.081  0.00  0.00    +0.020 A 
ENDBRANCH  17  18
BRANCH  17  28
ATOM     28  C   LIG    1        0.835  -0.982   2.774  0.00  0.00    -0.180 A 
ATOM     29  C   LIG    1        1.527  -0.224   3.626  0.00  0.00    +0.020 A 
ATOM     30  C   LIG    1        2.073  -0.904   4.701  0.00  0.00    +0.010 A 
ATOM     31  C   LIG    1        1.832  -2.216   4.717  0.00  0.00    -0.050 A 
ATOM     32  S   LIG    1        0.860  -2.654   3.319  0.00  0.00    +0.100 S 
ENDBRANCH  17  28
ENDBRANCH   2  17
TORSDOF 5
