REMARK  Name = ZINCnE000001SQAl.0
REMARK                            x       y       z     vdW  Elec       q    Type
REMARK                         _______ _______ _______ _____ _____    ______ ____
ROOT
ATOM      1  O   LIG    1        6.326  -0.134  -3.266  0.00  0.00    -0.530 OA
ATOM      2  C   LIG    1        6.572  -0.954  -2.401  0.00  0.00    +0.580 C 
ATOM      3  N   LIG    1        5.719  -1.123  -1.371  0.00  0.00    -0.710 N 
ATOM      4  H   LIG    1        5.915  -1.777  -0.682  0.00  0.00    +0.400 HD
ENDROOT
BRANCH   2   5
ATOM      5  C   LIG    1        7.799  -1.759  -2.479  0.00  0.00    -0.210 A 
ATOM      6  C   LIG    1        8.708  -1.668  -3.455  0.00  0.00    +0.100 A 
ATOM      7  C   LIG    1        9.810  -2.530  -3.340  0.00  0.00    -0.080 A 
ATOM      8  C   LIG    1       10.924  -2.668  -4.203  0.00  0.00    +0.060 A 
ATOM      9  C   LIG    1       11.905  -3.567  -3.925  0.00  0.00    +0.000 A 
ATOM     10  C   LIG    1       11.835  -4.365  -2.790  0.00  0.00    +0.030 A 
ATOM     11  C   LIG    1       10.766  -4.255  -1.933  0.00  0.00    +0.040 A 
ATOM     12  C   LIG    1        9.744  -3.338  -2.198  0.00  0.00    -0.140 A 
ATOM     13  S   LIG    1        8.277  -2.967  -1.299  0.00  0.00    +0.140 S 
ENDBRANCH   2   5
BRANCH   3  14
ATOM     14  C   LIG    1        4.496  -0.321  -1.294  0.00  0.00    +0.290 C 
BRANCH  14  15
ATOM     15  C   LIG    1        3.711  -0.707  -0.038  0.00  0.00    -0.060 C 
BRANCH  15  16
ATOM     16  C   LIG    1        2.396   0.029  -0.022  0.00  0.00    -0.040 A 
ATOM     17  C   LIG    1        1.208  -0.679  -0.013  0.00  0.00    +0.000 A 
ATOM     18  C   LIG    1        0.002  -0.004   0.002  0.00  0.00    -0.020 A 
ATOM     19  C   LIG    1       -0.017   1.378   0.010  0.00  0.00    -0.030 A 
ATOM     20  C   LIG    1        1.171   2.086   0.002  0.00  0.00    -0.010 A 
ATOM     21  C   LIG    1        2.377   1.411  -0.015  0.00  0.00    +0.050 A 
ENDBRANCH  15  16
BRANCH  15  22
ATOM     22  C   LIG    1        4.509  -0.338   1.186  0.00  0.00    +0.500 C 
ATOM     23  O   LIG    1        4.823   0.824   1.381  0.00  0.00    -0.680 OA
ATOM     24  O   LIG    1        4.839  -1.201   1.981  0.00  0.00    -0.690 OA
ENDBRANCH  15  22
ENDBRANCH  14  15
ENDBRANCH   3  14
TORSDOF 5
