REMARK  Name = ZINCtV000002wYHV.0
REMARK                            x       y       z     vdW  Elec       q    Type
REMARK                         _______ _______ _______ _____ _____    ______ ____
ROOT
ATOM      1  S   LIG    1        0.155  -4.560  -0.022  0.00  0.00    +2.670 S 
ATOM      2  O   LIG    1       -1.019  -5.015   0.638  0.00  0.00    -0.920 OA
ATOM      3  O   LIG    1        1.467  -4.909   0.398  0.00  0.00    -0.950 OA
ENDROOT
BRANCH   1   7
ATOM      4  C   LIG    1        0.002  -0.004   0.004  0.00  0.00    +0.220 A 
ATOM      5  C   LIG    1        1.191  -0.676   0.049  0.00  0.00    -0.120 A 
ATOM      6  C   LIG    1        1.227  -2.068   0.041  0.00  0.00    +0.190 A 
ATOM      7  C   LIG    1        0.080  -2.800  -0.013  0.00  0.00    -0.710 A 
ATOM      8  C   LIG    1       -1.164  -2.147  -0.061  0.00  0.00    +0.080 A 
ATOM      9  C   LIG    1       -2.366  -2.871  -0.118  0.00  0.00    +0.010 A 
ATOM     10  C   LIG    1       -3.552  -2.204  -0.164  0.00  0.00    +0.050 A 
ATOM     11  C   LIG    1       -3.593  -0.811  -0.156  0.00  0.00    +0.000 A 
ATOM     12  C   LIG    1       -2.447  -0.077  -0.102  0.00  0.00    +0.050 A 
ATOM     13  C   LIG    1       -1.206  -0.730  -0.046  0.00  0.00    -0.090 A 
BRANCH   4  14
ATOM     14  O   LIG    1       -0.017   1.354   0.014  0.00  0.00    -0.300 OA
BRANCH  14  16
ATOM     15  C   LIG    1        1.026   3.533   0.074  0.00  0.00    +0.070 C 
ATOM     16  C   LIG    1        1.247   2.019   0.072  0.00  0.00    +0.190 C 
ENDBRANCH  14  16
ENDBRANCH   4  14
ENDBRANCH   1   7
BRANCH   1  17
ATOM     17  O   LIG    1        0.034  -5.009  -1.471  0.00  0.00    -0.640 OA
BRANCH  17  18
ATOM     18  C   LIG    1        1.160  -4.814  -2.206  0.00  0.00    +0.130 A 
ATOM     19  C   LIG    1        2.120  -5.798  -2.277  0.00  0.00    -0.050 A 
ATOM     20  C   LIG    1        3.280  -5.612  -3.026  0.00  0.00    +0.120 A 
ATOM     21  C   LIG    1        3.495  -4.453  -3.707  0.00  0.00    -0.050 A 
ATOM     22  C   LIG    1        2.538  -3.425  -3.659  0.00  0.00    -0.070 A 
ATOM     23  C   LIG    1        2.728  -2.215  -4.351  0.00  0.00    +0.110 A 
ATOM     24  C   LIG    1        1.749  -1.266  -4.273  0.00  0.00    +0.000 A 
ATOM     25  C   LIG    1        0.609  -1.505  -3.509  0.00  0.00    +0.320 A 
ATOM     26  N   LIG    1        0.437  -2.631  -2.861  0.00  0.00    -0.450 NA
ATOM     27 BR   LIG    1        5.077  -4.226  -4.717  0.00  0.00    -0.000 Br
ATOM     28 BR   LIG    1        1.861  -7.423  -1.345  0.00  0.00    +0.010 Br
ATOM     29  C   LIG    1        1.351  -3.604  -2.905  0.00  0.00    +0.130 A 
ENDBRANCH  17  18
ENDBRANCH   1  17
TORSDOF 5
