REMARK  Name = ZINCvU00000004Zc.0
REMARK                            x       y       z     vdW  Elec       q    Type
REMARK                         _______ _______ _______ _____ _____    ______ ____
ROOT
ATOM      1  C   LIG    1       -0.519   0.305   3.422  0.00  0.00    +0.290 A 
ATOM      2  N   LIG    1        0.421   0.094   4.305  0.00  0.00    -0.520 NA
ATOM      3  C   LIG    1        1.540   0.732   3.936  0.00  0.00    +0.250 A 
ATOM      4  N   LIG    1        1.315   1.356   2.800  0.00  0.00    -0.290 NA
ATOM      5  N   LIG    1       -0.020   1.094   2.454  0.00  0.00    -0.360 N 
ENDROOT
BRANCH   3   6
ATOM      6  C   LIG    1        2.823   0.730   4.682  0.00  0.00    -0.030 A 
ATOM      7  C   LIG    1        3.919   1.436   4.191  0.00  0.00    +0.110 A 
ATOM      8  C   LIG    1        5.110   1.430   4.889  0.00  0.00    +0.000 A 
ATOM      9  C   LIG    1        5.216   0.726   6.074  0.00  0.00    +0.140 A 
ATOM     10  C   LIG    1        4.131   0.023   6.567  0.00  0.00    -0.660 A 
ATOM     11  C   LIG    1        2.934   0.026   5.880  0.00  0.00    +0.170 A 
BRANCH  10  12
ATOM     12  S   LIG    1        4.275  -0.871   8.078  0.00  0.00    +2.500 S 
ATOM     13  O   LIG    1        5.660  -1.176   8.174  0.00  0.00    -0.940 OA
ATOM     14  O   LIG    1        3.303  -1.902   7.969  0.00  0.00    -0.930 OA
ATOM     15  C   LIG    1        3.796   0.322   9.358  0.00  0.00    -0.260 C 
ENDBRANCH  10  12
ENDBRANCH   3   6
BRANCH   1  16
ATOM     16  C   LIG    1       -1.923  -0.241   3.481  0.00  0.00    +0.130 C 
ATOM     17  C   LIG    1       -1.875  -1.770   3.487  0.00  0.00    +0.070 C 
BRANCH  16  22
ATOM     18  C   LIG    1       -4.373   1.452   5.806  0.00  0.00    +0.120 A 
ATOM     19  C   LIG    1       -3.838   1.137   7.046  0.00  0.00    -0.070 A 
ATOM     20  C   LIG    1       -2.686   0.378   7.127  0.00  0.00    +0.050 A 
ATOM     21  C   LIG    1       -2.071  -0.072   5.974  0.00  0.00    +0.010 A 
ATOM     22  C   LIG    1       -2.600   0.246   4.736  0.00  0.00    -0.050 A 
ATOM     23  C   LIG    1       -3.751   1.004   4.650  0.00  0.00    -0.010 A 
BRANCH  18  25
ATOM     24  C   LIG    1       -6.093   2.624   6.955  0.00  0.00    +0.240 C 
ATOM     25  O   LIG    1       -5.506   2.198   5.724  0.00  0.00    -0.320 OA
ENDBRANCH  18  25
ENDBRANCH  16  22
ENDBRANCH   1  16
BRANCH   5  26
ATOM     26  C   LIG    1       -0.729   1.579   1.267  0.00  0.00    +0.270 C 
ATOM     27  C   LIG    1       -0.013   1.086   0.008  0.00  0.00    +0.050 C 
BRANCH  26  28
ATOM     28  C   LIG    1       -0.750   3.109   1.275  0.00  0.00    -0.070 C 
ATOM     29  C   LIG    1        0.686   3.639   1.264  0.00  0.00    +0.040 C 
ATOM     30  C   LIG    1       -1.466   3.603   2.534  0.00  0.00    +0.030 C 
ATOM     31  C   LIG    1       -1.490   3.616   0.036  0.00  0.00    +0.040 C 
ENDBRANCH  26  28
ENDBRANCH   5  26
TORSDOF 7
