REMARK  Name = ZINCtV000002PTbF.0
REMARK                            x       y       z     vdW  Elec       q    Type
REMARK                         _______ _______ _______ _____ _____    ______ ____
ROOT
ATOM      1  N   LIG    1       -0.129   0.991  -4.084  0.00  0.00    -0.460 N 
ATOM      2  C   LIG    1        0.086   0.930  -2.736  0.00  0.00    +0.170 A 
ATOM      3  N   LIG    1        1.242   0.334  -2.551  0.00  0.00    -0.280 NA
ATOM      4  N   LIG    1        1.766   0.024  -3.683  0.00  0.00    -0.260 NA
ATOM      5  C   LIG    1        0.975   0.404  -4.663  0.00  0.00    +0.260 A 
ENDROOT
BRANCH   5   6
ATOM      6  C   LIG    1        1.219   0.229  -6.103  0.00  0.00    -0.130 A 
ATOM      7  C   LIG    1        2.121  -0.620  -6.644  0.00  0.00    +0.080 A 
ATOM      8  C   LIG    1        2.165  -0.610  -8.022  0.00  0.00    +0.020 A 
ATOM      9  C   LIG    1        1.319   0.242  -8.611  0.00  0.00    -0.030 A 
ATOM     10  S   LIG    1        0.388   1.097  -7.388  0.00  0.00    +0.120 S 
ENDBRANCH   5   6
BRANCH   1  11
ATOM     11  C   LIG    1       -1.289   1.563  -4.771  0.00  0.00    +0.360 C 
BRANCH  11  15
ATOM     12  C   LIG    1       -4.401  -1.355  -4.987  0.00  0.00    +0.030 A 
ATOM     13  C   LIG    1       -4.391  -0.430  -3.959  0.00  0.00    +0.010 A 
ATOM     14  C   LIG    1       -3.384   0.514  -3.889  0.00  0.00    +0.040 A 
ATOM     15  C   LIG    1       -2.387   0.534  -4.847  0.00  0.00    -0.130 A 
ATOM     16  C   LIG    1       -2.400  -0.388  -5.877  0.00  0.00    +0.020 A 
ATOM     17  C   LIG    1       -3.404  -1.335  -5.944  0.00  0.00    +0.010 A 
ENDBRANCH  11  15
ENDBRANCH   1  11
BRANCH   2  18
ATOM     18  S   LIG    1       -0.991   1.532  -1.478  0.00  0.00    +0.030 S 
BRANCH  18  19
ATOM     19  C   LIG    1       -0.036   1.085  -0.006  0.00  0.00    +0.210 C 
BRANCH  19  20
ATOM     20  C   LIG    1       -0.785   1.515   1.229  0.00  0.00    +0.080 A 
ATOM     21  C   LIG    1       -0.612   2.720   1.779  0.00  0.00    -0.040 A 
ATOM     22  S   LIG    1       -1.660   2.839   3.191  0.00  0.00    +0.130 S 
ATOM     23  C   LIG    1       -2.238   1.201   2.894  0.00  0.00    +0.140 A 
ATOM     24  N   LIG    1       -1.645   0.727   1.833  0.00  0.00    -0.450 NA
BRANCH  23  25
ATOM     25  C   LIG    1       -3.229   0.484   3.712  0.00  0.00    -0.140 A 
ATOM     26  C   LIG    1       -3.836   0.977   4.814  0.00  0.00    +0.040 A 
ATOM     27  C   LIG    1       -4.731   0.117   5.411  0.00  0.00    +0.010 A 
ATOM     28  C   LIG    1       -4.856  -1.074   4.816  0.00  0.00    -0.040 A 
ATOM     29  S   LIG    1       -3.801  -1.152   3.411  0.00  0.00    +0.190 S 
ENDBRANCH  23  25
ENDBRANCH  19  20
ENDBRANCH  18  19
ENDBRANCH   2  18
TORSDOF 7
