REMARK  Name = ZINCvU0000000Fv2.0
REMARK                            x       y       z     vdW  Elec       q    Type
REMARK                         _______ _______ _______ _____ _____    ______ ____
ROOT
ATOM      1  C   LIG    1       -6.595   0.687   0.038  0.00  0.00    +0.130 A 
ATOM      2  N   LIG    1       -7.092   1.905   0.047  0.00  0.00    -0.290 NA
ATOM      3  N   LIG    1       -6.130   2.759   0.047  0.00  0.00    -0.250 NA
ATOM      4  C   LIG    1       -4.982   2.123   0.039  0.00  0.00    +0.210 A 
ATOM      5  O   LIG    1       -5.254   0.798   0.028  0.00  0.00    -0.190 OA
ENDROOT
BRANCH   4   6
ATOM      6  C   LIG    1       -3.644   2.739   0.035  0.00  0.00    +0.040 A 
ATOM      7  C   LIG    1       -2.491   1.962   0.025  0.00  0.00    +0.030 A 
ATOM      8  C   LIG    1       -1.238   2.590   0.022  0.00  0.00    +0.240 A 
ATOM      9  N   LIG    1       -1.108   3.905   0.034  0.00  0.00    -0.450 NA
ATOM     10  C   LIG    1       -2.162   4.727   0.038  0.00  0.00    +0.140 A 
ATOM     11  C   LIG    1       -1.993   6.122   0.044  0.00  0.00    +0.050 A 
ATOM     12  C   LIG    1       -3.086   6.935   0.054  0.00  0.00    +0.050 A 
ATOM     13  C   LIG    1       -4.374   6.407   0.058  0.00  0.00    +0.030 A 
ATOM     14  C   LIG    1       -4.575   5.057   0.051  0.00  0.00    +0.060 A 
ATOM     15  C   LIG    1       -3.475   4.195   0.042  0.00  0.00    -0.070 A 
BRANCH   8  16
ATOM     16  C   LIG    1       -0.022   1.755   0.012  0.00  0.00    -0.170 A 
ATOM     17  C   LIG    1        1.245   2.221   0.002  0.00  0.00    +0.070 A 
ATOM     18  C   LIG    1        2.218   1.246  -0.012  0.00  0.00    +0.010 A 
ATOM     19  C   LIG    1        1.761  -0.011  -0.015  0.00  0.00    -0.030 A 
ATOM     20  S   LIG    1        0.002  -0.004   0.002  0.00  0.00    +0.130 S 
ENDBRANCH   8  16
ENDBRANCH   4   6
BRANCH   1  21
ATOM     21  S   LIG    1       -7.516  -0.815   0.034  0.00  0.00    +0.170 S 
BRANCH  21  22
ATOM     22  C   LIG    1       -9.200  -0.151   0.045  0.00  0.00    +0.090 C 
BRANCH  22  24
ATOM     23  O   LIG    1       -9.794  -2.435   0.036  0.00  0.00    -0.520 OA
ATOM     24  C   LIG    1      -10.189  -1.288   0.044  0.00  0.00    +0.540 C 
ATOM     25  N   LIG    1      -11.512  -1.031   0.051  0.00  0.00    -0.720 N 
ATOM     26  H   LIG    1      -11.828  -0.114   0.057  0.00  0.00    +0.400 HD
BRANCH  25  27
ATOM     27  C   LIG    1      -12.473  -2.137   0.050  0.00  0.00    +0.240 C 
ATOM     28  C   LIG    1      -12.719  -2.597  -1.389  0.00  0.00    +0.010 C 
ATOM     29  C   LIG    1      -13.723  -3.752  -1.390  0.00  0.00    +0.020 C 
ATOM     30  C   LIG    1      -15.041  -3.282  -0.772  0.00  0.00    +0.010 C 
ATOM     31  C   LIG    1      -14.795  -2.822   0.666  0.00  0.00    +0.020 C 
ATOM     32  C   LIG    1      -13.791  -1.667   0.667  0.00  0.00    +0.010 C 
ENDBRANCH  25  27
ENDBRANCH  22  24
ENDBRANCH  21  22
ENDBRANCH   1  21
TORSDOF 6
