REMARK  Name = ZINC650000002tvW.0
REMARK                            x       y       z     vdW  Elec       q    Type
REMARK                         _______ _______ _______ _____ _____    ______ ____
ROOT
ATOM      1  C   LIG    1       -1.171   1.615   0.016  0.00  0.00    +0.700 C 
ENDROOT
BRANCH   1   2
ATOM      2  N   LIG    1       -0.011   0.966   0.007  0.00  0.00    -0.750 NA
ATOM      3  H   LIG    1        0.822   1.462   0.002  0.00  0.00    +0.450 HD
ATOM      4  H   LIG    1        0.002  -0.004   0.002  0.00  0.00    +0.450 HD
ENDBRANCH   1   2
BRANCH   1   5
ATOM      5  N   LIG    1       -2.314   0.934   0.018  0.00  0.00    -0.780 NA
ATOM      6  H   LIG    1       -3.160   1.408   0.025  0.00  0.00    +0.440 HD
ATOM      7  H   LIG    1       -2.300  -0.035   0.013  0.00  0.00    +0.440 HD
ENDBRANCH   1   5
BRANCH   1   8
ATOM      8  O   LIG    1       -1.190   2.963   0.024  0.00  0.00    -0.310 OA
BRANCH   8  10
ATOM      9  C   LIG    1       -2.168   5.128  -0.506  0.00  0.00    +0.110 C 
ATOM     10  C   LIG    1       -2.322   3.610  -0.614  0.00  0.00    +0.240 C 
ENDBRANCH   8  10
ENDBRANCH   1   8
TORSDOF 4
