REMARK  Name = ZINCpk00000KfKyT.0
REMARK                            x       y       z     vdW  Elec       q    Type
REMARK                         _______ _______ _______ _____ _____    ______ ____
ROOT
ATOM      1  O   LIG    1        1.112   2.438  -2.027  0.00  0.00    -0.520 OA
ATOM      2  C   LIG    1       -0.078   2.231  -2.139  0.00  0.00    +0.520 C 
ATOM      3  N   LIG    1       -0.734   1.541  -1.185  0.00  0.00    -0.610 N 
ATOM      4  C   LIG    1       -2.175   1.283  -1.307  0.00  0.00    +0.270 C 
ATOM      5  C   LIG    1       -2.873   1.769  -0.033  0.00  0.00    +0.040 C 
ATOM      6  C   LIG    1       -2.217   1.114   1.185  0.00  0.00    +0.030 C 
ATOM      7  C   LIG    1       -0.741   1.523   1.256  0.00  0.00    +0.260 C 
ATOM      8  C   LIG    1       -0.022   1.033  -0.005  0.00  0.00    +0.280 C 
ENDROOT
BRANCH   2   9
ATOM      9  C   LIG    1       -0.822   2.746  -3.344  0.00  0.00    +0.020 C 
ATOM     10  C   LIG    1       -1.435   1.581  -4.155  0.00  0.00    +0.090 C 
ATOM     11  C   LIG    1       -0.388   1.267  -5.202  0.00  0.00    +0.520 C 
ATOM     12  N   LIG    1        0.489   2.281  -5.297  0.00  0.00    -0.550 N 
ATOM     13  O   LIG    1       -0.347   0.248  -5.859  0.00  0.00    -0.500 OA
ATOM     14  C   LIG    1        0.151   3.368  -4.371  0.00  0.00    +0.310 C 
BRANCH  12  15
ATOM     15  C   LIG    1        1.584   2.298  -6.168  0.00  0.00    +0.160 A 
ATOM     16  C   LIG    1        1.896   1.171  -6.917  0.00  0.00    -0.010 A 
ATOM     17  C   LIG    1        2.974   1.193  -7.780  0.00  0.00    +0.040 A 
ATOM     18  C   LIG    1        3.750   2.332  -7.890  0.00  0.00    -0.020 A 
ATOM     19  C   LIG    1        3.446   3.454  -7.142  0.00  0.00    +0.040 A 
ATOM     20  C   LIG    1        2.365   3.441  -6.281  0.00  0.00    -0.020 A 
ENDBRANCH  12  15
ENDBRANCH   2   9
BRANCH   7  21
ATOM     21  N   LIG    1       -0.119   0.920   2.438  0.00  0.00    -0.380 N 
ATOM     22  C   LIG    1       -0.394  -0.284   2.968  0.00  0.00    +0.480 A 
ATOM     23  N   LIG    1        0.374  -0.453   4.014  0.00  0.00    -0.540 NA
ATOM     24  C   LIG    1        1.149   0.618   4.183  0.00  0.00    +0.420 A 
ATOM     25  N   LIG    1        0.888   1.484   3.239  0.00  0.00    -0.320 NA
ENDBRANCH   7  21
TORSDOF 3
