REMARK  Name = ZINCvU0000000Jwf.0
REMARK                            x       y       z     vdW  Elec       q    Type
REMARK                         _______ _______ _______ _____ _____    ______ ____
ROOT
ATOM      1  C   LIG    1       -6.068   2.656   0.046  0.00  0.00    +0.220 A 
ATOM      2  N   LIG    1       -5.203   3.641   0.048  0.00  0.00    -0.260 NA
ATOM      3  N   LIG    1       -4.009   3.162   0.044  0.00  0.00    -0.280 NA
ATOM      4  C   LIG    1       -4.064   1.851   0.031  0.00  0.00    +0.130 A 
ATOM      5  O   LIG    1       -5.365   1.502   0.036  0.00  0.00    -0.200 OA
ENDROOT
BRANCH   1   8
ATOM      6  C   LIG    1       -9.510   4.166   0.072  0.00  0.00    +0.150 A 
ATOM      7  C   LIG    1       -8.132   4.049   0.065  0.00  0.00    -0.030 A 
ATOM      8  C   LIG    1       -7.540   2.784   0.054  0.00  0.00    +0.050 A 
ATOM      9  C   LIG    1       -8.341   1.641   0.045  0.00  0.00    -0.060 A 
ATOM     10  C   LIG    1       -9.719   1.764   0.058  0.00  0.00    +0.150 A 
ATOM     11  C   LIG    1      -10.306   3.025   0.069  0.00  0.00    +0.060 A 
BRANCH   6  12
ATOM     12  O   LIG    1      -10.087   5.397   0.082  0.00  0.00    -0.290 OA
BRANCH  12  14
ATOM     13  C   LIG    1      -10.035   7.813   0.097  0.00  0.00    +0.070 C 
ATOM     14  C   LIG    1       -9.210   6.525   0.085  0.00  0.00    +0.190 C 
ENDBRANCH  12  14
ENDBRANCH   6  12
BRANCH  10  15
ATOM     15  O   LIG    1      -10.501   0.651   0.054  0.00  0.00    -0.290 OA
BRANCH  15  16
ATOM     16  C   LIG    1       -9.831  -0.612   0.044  0.00  0.00    +0.190 C 
ATOM     17  C   LIG    1      -10.867  -1.738   0.041  0.00  0.00    +0.070 C 
ENDBRANCH  15  16
ENDBRANCH  10  15
BRANCH  11  18
ATOM     18  O   LIG    1      -11.662   3.143   0.076  0.00  0.00    -0.310 OA
BRANCH  18  19
ATOM     19  C   LIG    1      -12.314   3.207  -1.194  0.00  0.00    +0.160 C 
ATOM     20  C   LIG    1      -13.824   3.338  -0.985  0.00  0.00    +0.060 C 
ENDBRANCH  18  19
ENDBRANCH  11  18
ENDBRANCH   1   8
BRANCH   4  21
ATOM     21  S   LIG    1       -2.689   0.749   0.019  0.00  0.00    +0.140 S 
BRANCH  21  22
ATOM     22  C   LIG    1       -1.330   1.944   0.019  0.00  0.00    +0.090 C 
BRANCH  22  23
ATOM     23  C   LIG    1       -0.014   1.208   0.009  0.00  0.00    +0.420 C 
ATOM     24  O   LIG    1        0.002  -0.004   0.002  0.00  0.00    -0.430 OA
BRANCH  23  25
ATOM     25  C   LIG    1        1.249   1.961   0.001  0.00  0.00    -0.160 A 
ATOM     26  C   LIG    1        1.234   3.360   0.003  0.00  0.00    +0.090 A 
ATOM     27  C   LIG    1        2.422   4.059  -0.001  0.00  0.00    +0.020 A 
ATOM     28  C   LIG    1        3.629   3.379  -0.016  0.00  0.00    -0.000 A 
ATOM     29  C   LIG    1        3.652   1.993  -0.023  0.00  0.00    +0.020 A 
ATOM     30 CL   LIG    1        5.121   4.267  -0.026  0.00  0.00    -0.050 Cl
ATOM     31  C   LIG    1        2.472   1.282  -0.015  0.00  0.00    +0.110 A 
ENDBRANCH  23  25
ENDBRANCH  22  23
ENDBRANCH  21  22
ENDBRANCH   4  21
TORSDOF 11
