REMARK  Name = ZINCpk000000oNDT.0
REMARK                            x       y       z     vdW  Elec       q    Type
REMARK                         _______ _______ _______ _____ _____    ______ ____
ROOT
ATOM      1  C   LIG    1       -2.795   0.063   0.918  0.00  0.00    +0.200 A 
ATOM      2  N   LIG    1       -4.049  -0.235   0.679  0.00  0.00    -0.310 NA
ATOM      3  N   LIG    1       -4.438   0.427  -0.492  0.00  0.00    -0.320 NA
ATOM      4  C   LIG    1       -3.411   1.113  -0.931  0.00  0.00    +0.410 A 
ATOM      5  N   LIG    1       -2.365   0.903  -0.075  0.00  0.00    -0.430 N 
ENDROOT
BRANCH   5   6
ATOM      6  C   LIG    1       -1.081   1.455  -0.189  0.00  0.00    +0.140 A 
ATOM      7  C   LIG    1       -0.897   2.823  -0.041  0.00  0.00    +0.030 A 
ATOM      8  C   LIG    1        0.368   3.367  -0.160  0.00  0.00    +0.070 A 
ATOM      9  C   LIG    1        1.452   2.549  -0.421  0.00  0.00    +0.010 A 
ATOM     10  C   LIG    1        1.273   1.183  -0.564  0.00  0.00    +0.120 A 
ATOM     11  F   LIG    1        2.334   0.386  -0.818  0.00  0.00    -0.130 F 
ATOM     12  C   LIG    1        0.009   0.634  -0.446  0.00  0.00    +0.000 A 
ENDBRANCH   5   6
BRANCH   4  13
ATOM     13  N   LIG    1       -3.388   1.910  -2.069  0.00  0.00    -0.460 N 
ATOM     14  C   LIG    1       -4.388   2.984  -1.980  0.00  0.00    +0.190 C 
ATOM     15  C   LIG    1       -4.288   3.872  -3.223  0.00  0.00    +0.240 C 
ATOM     16  O   LIG    1       -4.460   3.067  -4.393  0.00  0.00    -0.380 OA
ATOM     17  C   LIG    1       -3.502   2.011  -4.511  0.00  0.00    +0.240 C 
ATOM     18  C   LIG    1       -3.595   1.105  -3.281  0.00  0.00    +0.190 C 
ENDBRANCH   4  13
BRANCH   1  19
ATOM     19  S   LIG    1       -1.833  -0.514   2.276  0.00  0.00    +0.100 S 
BRANCH  19  20
ATOM     20  C   LIG    1       -2.998  -1.567   3.183  0.00  0.00    +0.110 C 
BRANCH  20  23
ATOM     21  N   LIG    1       -2.990  -2.965   5.224  0.00  0.00    -0.720 N 
ATOM     22  H   LIG    1       -3.918  -3.182   5.041  0.00  0.00    +0.410 HD
ATOM     23  C   LIG    1       -2.313  -2.146   4.395  0.00  0.00    +0.530 C 
ATOM     24  O   LIG    1       -1.154  -1.875   4.623  0.00  0.00    -0.520 OA
BRANCH  21  26
ATOM     25  C   LIG    1       -3.308  -4.416   7.167  0.00  0.00    +0.030 C 
ATOM     26  C   LIG    1       -2.325  -3.528   6.402  0.00  0.00    +0.250 C 
ENDBRANCH  21  26
ENDBRANCH  20  23
ENDBRANCH  19  20
ENDBRANCH   1  19
TORSDOF 6
