REMARK  Name = ZINCrg00000J0mE3.0
REMARK                            x       y       z     vdW  Elec       q    Type
REMARK                         _______ _______ _______ _____ _____    ______ ____
ROOT
ATOM      1  C   LIG    1        4.049  -0.268   1.145  0.00  0.00    +0.230 C 
ATOM      2  N   LIG    1        3.706  -1.686   0.943  0.00  0.00    -0.710 N 
ATOM      3  H   LIG    1        2.815  -2.062   0.864  0.00  0.00    +0.450 HD
ATOM      4  C   LIG    1        4.875  -2.358   0.890  0.00  0.00    +0.710 C 
ATOM      5  N   LIG    1        5.934  -1.554   1.035  0.00  0.00    -0.560 N 
ATOM      6  O   LIG    1        4.955  -3.560   0.731  0.00  0.00    -0.540 OA
ATOM      7  C   LIG    1        5.564  -0.268   1.196  0.00  0.00    +0.530 C 
ATOM      8  O   LIG    1        6.292   0.690   1.351  0.00  0.00    -0.460 OA
ENDROOT
BRANCH   1   9
ATOM      9  C   LIG    1        3.550   0.578  -0.028  0.00  0.00    +0.180 C 
BRANCH   9  12
ATOM     10  N   LIG    1       -0.015   1.283   0.009  0.00  0.00    -0.280 N 
ATOM     11  C   LIG    1        1.264   1.724  -0.001  0.00  0.00    +0.160 A 
ATOM     12  C   LIG    1        2.044   0.619  -0.014  0.00  0.00    -0.030 A 
ATOM     13  N   LIG    1        1.215  -0.431  -0.012  0.00  0.00    -0.270 NA
ATOM     14  N   LIG    1        0.002  -0.004   0.002  0.00  0.00    -0.080 NA
BRANCH  10  16
ATOM     15  C   LIG    1       -1.552   2.514   1.460  0.00  0.00    +0.060 C 
ATOM     16  C   LIG    1       -1.214   2.125   0.020  0.00  0.00    +0.260 C 
ATOM     17  C   LIG    1       -0.956   3.389  -0.803  0.00  0.00    +0.060 C 
ENDBRANCH  10  16
ENDBRANCH   9  12
ENDBRANCH   1   9
BRANCH   5  18
ATOM     18  C   LIG    1        7.325  -2.014   1.020  0.00  0.00    +0.360 C 
BRANCH  18  19
ATOM     19  C   LIG    1        7.755  -2.362   2.422  0.00  0.00    +0.500 C 
ATOM     20  N   LIG    1        9.004  -2.812   2.651  0.00  0.00    -0.610 N 
ATOM     21  C   LIG    1        9.945  -2.962   1.538  0.00  0.00    +0.290 C 
ATOM     22  O   LIG    1        6.976  -2.238   3.343  0.00  0.00    -0.520 OA
BRANCH  20  23
ATOM     23  C   LIG    1        9.422  -3.150   4.014  0.00  0.00    +0.390 C 
BRANCH  23  24
ATOM     24  C   LIG    1        9.121  -4.601   4.286  0.00  0.00    -0.210 A 
ATOM     25  C   LIG    1        9.953  -5.616   4.050  0.00  0.00    +0.020 A 
ATOM     26  C   LIG    1        9.458  -6.865   4.383  0.00  0.00    +0.000 A 
ATOM     27  C   LIG    1        8.222  -6.865   4.883  0.00  0.00    -0.060 A 
ATOM     28  S   LIG    1        7.616  -5.216   4.958  0.00  0.00    +0.140 S 
ENDBRANCH  23  24
ENDBRANCH  20  23
ENDBRANCH  18  19
ENDBRANCH   5  18
TORSDOF 7
