REMARK  Name = ZINCvU0000000C0e.1
REMARK                            x       y       z     vdW  Elec       q    Type
REMARK                         _______ _______ _______ _____ _____    ______ ____
ROOT
ATOM      1  C   LIG    1        3.994   5.249  -1.534  0.00  0.00    +0.130 A 
ATOM      2  C   LIG    1        4.727   5.683  -0.440  0.00  0.00    -0.080 A 
ATOM      3  C   LIG    1        5.901   6.386  -0.632  0.00  0.00    +0.040 A 
ATOM      4  C   LIG    1        6.341   6.664  -1.913  0.00  0.00    -0.030 A 
ATOM      5  C   LIG    1        5.609   6.236  -3.005  0.00  0.00    -0.040 A 
ATOM      6  C   LIG    1        4.437   5.529  -2.819  0.00  0.00    +0.010 A 
ENDROOT
BRANCH   1   7
ATOM      7  O   LIG    1        2.841   4.554  -1.349  0.00  0.00    -0.310 OA
BRANCH   7   8
ATOM      8  C   LIG    1        2.446   4.301   0.001  0.00  0.00    +0.250 C 
BRANCH   8  13
ATOM      9  C   LIG    1       -0.017   1.428   0.010  0.00  0.00    -0.030 A 
ATOM     10  C   LIG    1       -1.234   2.112   0.019  0.00  0.00    +0.080 A 
ATOM     11  C   LIG    1       -1.245   3.492   0.033  0.00  0.00    +0.020 A 
ATOM     12  C   LIG    1       -0.055   4.197   0.025  0.00  0.00    +0.070 A 
ATOM     13  C   LIG    1        1.155   3.525   0.010  0.00  0.00    -0.100 A 
ATOM     14  C   LIG    1        1.181   2.146   0.002  0.00  0.00    +0.090 A 
BRANCH   9  16
ATOM     15  N   LIG    1        0.018  -1.140  -0.004  0.00  0.00    -0.410 NA
ATOM     16  C   LIG    1        0.002  -0.004   0.002  0.00  0.00    +0.250 C 
ENDBRANCH   9  16
ENDBRANCH   8  13
ENDBRANCH   7   8
ENDBRANCH   1   7
BRANCH   5  17
ATOM     17  C   LIG    1        6.091   6.541  -4.400  0.00  0.00    +0.220 C 
BRANCH  17  18
ATOM     18  N   LIG    1        5.534   7.827  -4.840  0.00  0.00    -0.670 NA
ATOM     19  H   LIG    1        5.769   8.564  -4.192  0.00  0.00    +0.350 HD
BRANCH  18  20
ATOM     20  C   LIG    1        5.983   8.159  -6.199  0.00  0.00    +0.290 C 
BRANCH  20  21
ATOM     21  C   LIG    1        7.327   8.837  -6.132  0.00  0.00    -0.050 A 
ATOM     22  C   LIG    1        8.353   8.634  -6.978  0.00  0.00    -0.050 A 
ATOM     23  C   LIG    1        9.409   9.470  -6.549  0.00  0.00    -0.060 A 
ATOM     24  C   LIG    1        8.965  10.134  -5.466  0.00  0.00    +0.160 A 
ATOM     25  O   LIG    1        7.701   9.751  -5.222  0.00  0.00    -0.170 OA
ENDBRANCH  20  21
BRANCH  20  26
ATOM     26  C   LIG    1        4.970   9.098  -6.856  0.00  0.00    +0.090 C 
BRANCH  26  27
ATOM     27  C   LIG    1        3.658   8.377  -7.034  0.00  0.00    -0.070 A 
ATOM     28  C   LIG    1        3.408   7.676  -8.199  0.00  0.00    +0.000 A 
ATOM     29  C   LIG    1        2.207   7.010  -8.360  0.00  0.00    +0.000 A 
ATOM     30  C   LIG    1        1.252   7.055  -7.361  0.00  0.00    +0.000 A 
ATOM     31  C   LIG    1        1.501   7.761  -6.199  0.00  0.00    +0.000 A 
ATOM     32  C   LIG    1        2.704   8.421  -6.035  0.00  0.00    +0.030 A 
ENDBRANCH  26  27
ENDBRANCH  20  26
ENDBRANCH  18  20
ENDBRANCH  17  18
ENDBRANCH   5  17
TORSDOF 10
