REMARK  Name = ZINCrH000004qHNd.0
REMARK                            x       y       z     vdW  Elec       q    Type
REMARK                         _______ _______ _______ _____ _____    ______ ____
ROOT
ATOM      1  C   LIG    1       -1.770   0.565  -0.546  0.00  0.00    +0.180 A 
ATOM      2  C   LIG    1       -2.750   1.537  -0.368  0.00  0.00    +0.010 A 
ATOM      3  C   LIG    1       -4.080   1.185  -0.382  0.00  0.00    +0.070 A 
ATOM      4  C   LIG    1       -4.447  -0.151  -0.565  0.00  0.00    -0.150 A 
ATOM      5  C   LIG    1       -3.460  -1.125  -0.738  0.00  0.00    +0.110 A 
ATOM      6  C   LIG    1       -2.131  -0.766  -0.728  0.00  0.00    -0.010 A 
ENDROOT
BRANCH   1   8
ATOM      7  C   LIG    1       -0.041   2.118  -1.034  0.00  0.00    +0.560 C 
ATOM      8  N   LIG    1       -0.423   0.925  -0.536  0.00  0.00    -0.670 N 
ATOM      9  H   LIG    1        0.238   0.318  -0.170  0.00  0.00    +0.410 HD
ATOM     10  O   LIG    1       -0.855   2.838  -1.579  0.00  0.00    -0.500 OA
BRANCH   7  18
ATOM     11  C   LIG    1        0.825   4.534  -2.368  0.00  0.00    +0.120 C 
ATOM     12  C   LIG    1        1.798   3.712  -1.563  0.00  0.00    +0.010 A 
ATOM     13  C   LIG    1        3.113   4.110  -1.453  0.00  0.00    -0.020 A 
ATOM     14  C   LIG    1        4.010   3.351  -0.717  0.00  0.00    +0.140 A 
ATOM     15  C   LIG    1        3.590   2.191  -0.084  0.00  0.00    -0.020 A 
ATOM     16  C   LIG    1        2.276   1.786  -0.183  0.00  0.00    +0.090 A 
ATOM     17  F   LIG    1        5.299   3.743  -0.617  0.00  0.00    -0.130 F 
ATOM     18  C   LIG    1        1.368   2.547  -0.923  0.00  0.00    -0.160 A 
ENDBRANCH   7  18
ENDBRANCH   1   8
BRANCH   4  19
ATOM     19  C   LIG    1       -5.872  -0.533  -0.574  0.00  0.00    +0.560 C 
ATOM     20  N   LIG    1       -6.823   0.408  -0.406  0.00  0.00    -0.720 N 
ATOM     21  H   LIG    1       -6.570   1.336  -0.280  0.00  0.00    +0.400 HD
ATOM     22  O   LIG    1       -6.189  -1.696  -0.732  0.00  0.00    -0.530 OA
BRANCH  20  23
ATOM     23  C   LIG    1       -8.238   0.029  -0.416  0.00  0.00    +0.320 C 
BRANCH  23  24
ATOM     24  C   LIG    1       -9.088   1.257  -0.210  0.00  0.00    -0.070 A 
ATOM     25  C   LIG    1       -9.455   1.661   1.064  0.00  0.00    -0.010 A 
ATOM     26  C   LIG    1      -10.231   2.794   1.214  0.00  0.00    +0.260 A 
ATOM     27  N   LIG    1      -10.630   3.482   0.162  0.00  0.00    -0.480 NA
ATOM     28  C   LIG    1      -10.304   3.125  -1.065  0.00  0.00    +0.260 A 
ATOM     29  C   LIG    1       -9.526   2.006  -1.292  0.00  0.00    -0.010 A 
ENDBRANCH  23  24
ENDBRANCH  20  23
ENDBRANCH   4  19
TORSDOF 5
