REMARK  Name = ZINCqH0000007hkr.0
REMARK                            x       y       z     vdW  Elec       q    Type
REMARK                         _______ _______ _______ _____ _____    ______ ____
ROOT
ATOM      1  N   LIG    1        5.457   3.999   1.309  0.00  0.00    -0.620 N 
ENDROOT
BRANCH   1   5
ATOM      2  C   LIG    1        8.270   1.120   2.391  0.00  0.00    +0.080 A 
ATOM      3  C   LIG    1        7.769   1.148   1.098  0.00  0.00    +0.020 A 
ATOM      4  C   LIG    1        6.837   2.102   0.739  0.00  0.00    -0.010 A 
ATOM      5  C   LIG    1        6.401   3.033   1.672  0.00  0.00    +0.180 A 
ATOM      6  C   LIG    1        6.907   3.007   2.965  0.00  0.00    -0.030 A 
ATOM      7  C   LIG    1        7.835   2.050   3.324  0.00  0.00    -0.030 A 
BRANCH   2   9
ATOM      8  C   LIG    1        9.660   0.210   4.093  0.00  0.00    +0.230 C 
ATOM      9  O   LIG    1        9.187   0.180   2.744  0.00  0.00    -0.320 OA
ENDBRANCH   2   9
ENDBRANCH   1   5
BRANCH   1  10
ATOM     10  C   LIG    1        4.804   3.930  -0.001  0.00  0.00    +0.350 C 
BRANCH  10  11
ATOM     11  C   LIG    1        3.428   3.336   0.154  0.00  0.00    -0.150 A 
ATOM     12  C   LIG    1        2.343   4.153   0.289  0.00  0.00    +0.120 A 
ATOM     13  C   LIG    1        1.075   3.556   0.432  0.00  0.00    -0.100 A 
ATOM     14  C   LIG    1       -0.086   4.332   0.576  0.00  0.00    +0.040 A 
ATOM     15  C   LIG    1       -1.293   3.718   0.713  0.00  0.00    +0.020 A 
ATOM     16  C   LIG    1       -1.393   2.328   0.705  0.00  0.00    +0.040 A 
ATOM     17  C   LIG    1       -0.287   1.545   0.574  0.00  0.00    +0.050 A 
ATOM     18  C   LIG    1        0.977   2.143   0.431  0.00  0.00    +0.140 A 
ATOM     19  N   LIG    1        2.080   1.399   0.295  0.00  0.00    -0.460 NA
ATOM     20  C   LIG    1        3.262   1.951   0.161  0.00  0.00    +0.210 A 
ATOM     21 CL   LIG    1        4.656   0.931  -0.012  0.00  0.00    -0.010 Cl
ENDBRANCH  10  11
ENDBRANCH   1  10
BRANCH   1  22
ATOM     22  C   LIG    1        5.121   5.081   2.238  0.00  0.00    +0.310 C 
BRANCH  22  23
ATOM     23  C   LIG    1        3.955   4.645   3.127  0.00  0.00    +0.020 C 
BRANCH  23  24
ATOM     24  C   LIG    1        3.609   5.758   4.083  0.00  0.00    +0.520 C 
ATOM     25  O   LIG    1        4.234   6.797   4.056  0.00  0.00    -0.540 OA
ATOM     26  N   LIG    1        2.606   5.598   4.969  0.00  0.00    -0.860 N 
ATOM     27  H   LIG    1        2.384   6.314   5.584  0.00  0.00    +0.400 HD
ATOM     28  H   LIG    1        2.106   4.767   4.991  0.00  0.00    +0.400 HD
ENDBRANCH  23  24
ENDBRANCH  22  23
ENDBRANCH   1  22
TORSDOF 7
