REMARK  Name = ZINCc70000003YTm.0
REMARK                            x       y       z     vdW  Elec       q    Type
REMARK                         _______ _______ _______ _____ _____    ______ ____
ROOT
ATOM      1  C   LIG    1       -0.018   1.503   0.010  0.00  0.00    +0.130 C 
ATOM      2  C   LIG    1        0.002  -0.004   0.002  0.00  0.00    -0.170 A 
ATOM      3  C   LIG    1        0.023  -0.709   1.189  0.00  0.00    +0.370 A 
ATOM      4  N   LIG    1        0.040  -2.028   1.192  0.00  0.00    -0.520 NA
ATOM      5  C   LIG    1        0.038  -2.724   0.069  0.00  0.00    +0.400 A 
ATOM      6  C   LIG    1        0.018  -2.084  -1.159  0.00  0.00    -0.760 A 
ATOM      7  F   LIG    1        0.057  -4.074   0.120  0.00  0.00    -0.090 F 
ATOM      8  C   LIG    1       -0.006  -0.700  -1.199  0.00  0.00    +0.220 A 
ENDROOT
BRANCH   6   9
ATOM      9  S   LIG    1        0.017  -3.019  -2.653  0.00  0.00    +2.710 S 
ATOM     10  O   LIG    1        0.029  -2.077  -3.716  0.00  0.00    -0.950 OA
ATOM     11  O   LIG    1       -0.990  -4.010  -2.504  0.00  0.00    -0.950 OA
BRANCH   9  12
ATOM     12  N   LIG    1        1.461  -3.827  -2.727  0.00  0.00    -1.240 NA
ATOM     13  H   LIG    1        2.252  -3.444  -2.317  0.00  0.00    +0.420 HD
ATOM     14  H   LIG    1        1.515  -4.682  -3.180  0.00  0.00    +0.430 HD
ENDBRANCH   9  12
ENDBRANCH   6   9
TORSDOF 2
