REMARK  Name = ZINCqH0000050rX3.1
REMARK                            x       y       z     vdW  Elec       q    Type
REMARK                         _______ _______ _______ _____ _____    ______ ____
ROOT
ATOM      1  N   LIG    1       -3.205   1.667  -1.670  0.00  0.00    -0.660 N 
ATOM      2  H   LIG    1       -2.929   2.198  -2.433  0.00  0.00    +0.420 HD
ATOM      3  C   LIG    1       -2.357   1.475  -0.641  0.00  0.00    +0.520 C 
ATOM      4  O   LIG    1       -2.735   0.900   0.358  0.00  0.00    -0.500 OA
ENDROOT
BRANCH   1  10
ATOM      5  C   LIG    1       -5.519   1.664  -2.382  0.00  0.00    +0.090 A 
ATOM      6  C   LIG    1       -6.783   1.098  -2.346  0.00  0.00    -0.040 A 
ATOM      7  C   LIG    1       -7.017  -0.024  -1.573  0.00  0.00    +0.030 A 
ATOM      8  C   LIG    1       -5.992  -0.585  -0.835  0.00  0.00    +0.000 A 
ATOM      9  C   LIG    1       -4.726  -0.030  -0.869  0.00  0.00    +0.050 A 
ATOM     10  C   LIG    1       -4.486   1.099  -1.638  0.00  0.00    +0.130 A 
BRANCH   5  11
ATOM     11  O   LIG    1       -5.288   2.768  -3.142  0.00  0.00    -0.260 OA
BRANCH  11  16
ATOM     12  C   LIG    1       -9.681   5.172  -5.719  0.00  0.00    +0.090 C 
ATOM     13  C   LIG    1       -8.505   4.529  -5.029  0.00  0.00    -0.090 A 
ATOM     14  C   LIG    1       -8.432   4.527  -3.649  0.00  0.00    +0.030 A 
ATOM     15  C   LIG    1       -7.356   3.937  -3.014  0.00  0.00    +0.000 A 
ATOM     16  C   LIG    1       -6.348   3.348  -3.764  0.00  0.00    +0.080 A 
ATOM     17  C   LIG    1       -6.421   3.357  -5.149  0.00  0.00    +0.010 A 
ATOM     18  C   LIG    1       -7.502   3.943  -5.779  0.00  0.00    +0.030 A 
ENDBRANCH  11  16
ENDBRANCH   5  11
ENDBRANCH   1  10
BRANCH   3  19
ATOM     19  C   LIG    1       -0.938   1.975  -0.731  0.00  0.00    +0.190 C 
BRANCH  19  20
ATOM     20  N   LIG    1       -0.372   2.088   0.620  0.00  0.00    -0.820 NA
ATOM     21  H   LIG    1        0.557   2.482   0.592  0.00  0.00    +0.350 HD
ATOM     22  H   LIG    1       -0.371   1.194   1.088  0.00  0.00    +0.350 HD
ENDBRANCH  19  20
BRANCH  19  23
ATOM     23  C   LIG    1       -0.102   0.992  -1.553  0.00  0.00    +0.110 C 
BRANCH  23  24
ATOM     24  C   LIG    1        1.284   1.550  -1.747  0.00  0.00    +0.010 A 
ATOM     25  C   LIG    1        1.658   2.476  -2.652  0.00  0.00    +0.010 A 
ATOM     26  N   LIG    1        2.971   2.701  -2.496  0.00  0.00    -0.470 NA
ATOM     27  C   LIG    1        3.427   1.945  -1.535  0.00  0.00    +0.430 A 
ATOM     28 BR   LIG    1        0.529   3.312  -3.917  0.00  0.00    +0.020 Br
ATOM     29  N   LIG    1        2.408   1.211  -1.040  0.00  0.00    -0.560 N 
ATOM     30  H   LIG    1        2.461   0.564  -0.320  0.00  0.00    +0.430 HD
ENDBRANCH  23  24
ENDBRANCH  19  23
ENDBRANCH   3  19
TORSDOF 7
