REMARK  Name = ZINCpk00000kJKSe.0
REMARK                            x       y       z     vdW  Elec       q    Type
REMARK                         _______ _______ _______ _____ _____    ______ ____
ROOT
ATOM      1  N   LIG    1       -5.047   1.715  -1.098  0.00  0.00    -0.710 N 
ATOM      2  H   LIG    1       -4.877   0.843  -1.488  0.00  0.00    +0.410 HD
ATOM      3  C   LIG    1       -6.059   2.475  -1.562  0.00  0.00    +0.540 C 
ATOM      4  O   LIG    1       -6.271   3.565  -1.075  0.00  0.00    -0.520 OA
ENDROOT
BRANCH   1  13
ATOM      5  C   LIG    1       -0.013   1.086   0.008  0.00  0.00    +0.090 C 
ATOM      6  C   LIG    1       -0.718   1.572   1.248  0.00  0.00    -0.050 A 
ATOM      7  C   LIG    1        0.003   1.804   2.402  0.00  0.00    -0.020 A 
ATOM      8  C   LIG    1       -0.641   2.251   3.542  0.00  0.00    +0.050 A 
ATOM      9  C   LIG    1       -2.004   2.466   3.523  0.00  0.00    -0.020 A 
ATOM     10  C   LIG    1       -2.733   2.233   2.361  0.00  0.00    +0.130 A 
ATOM     11  O   LIG    1       -4.072   2.462   2.381  0.00  0.00    -0.310 OA
ATOM     12  C   LIG    1       -4.863   1.883   1.341  0.00  0.00    +0.230 C 
ATOM     13  C   LIG    1       -4.203   2.205  -0.005  0.00  0.00    +0.220 C 
ATOM     14  C   LIG    1       -2.841   1.509  -0.052  0.00  0.00    +0.100 C 
ATOM     15  C   LIG    1       -2.086   1.789   1.222  0.00  0.00    -0.160 A 
ENDBRANCH   1  13
BRANCH   3  16
ATOM     16  C   LIG    1       -6.926   1.970  -2.686  0.00  0.00    -0.360 C 
BRANCH  16  17
ATOM     17  S   LIG    1       -8.188   3.212  -3.080  0.00  0.00    +2.640 S 
ATOM     18  O   LIG    1       -7.591   4.363  -3.661  0.00  0.00    -0.930 OA
ATOM     19  O   LIG    1       -9.122   3.329  -2.015  0.00  0.00    -0.930 OA
BRANCH  17  20
ATOM     20  N   LIG    1       -9.060   2.537  -4.316  0.00  0.00    -1.000 NA
ATOM     21  C   LIG    1       -8.676   2.765  -5.715  0.00  0.00    +0.280 C 
ATOM     22  C   LIG    1       -9.884   3.299  -6.482  0.00  0.00    +0.020 C 
ATOM     23  C   LIG    1      -11.064   2.341  -6.303  0.00  0.00    -0.020 C 
ATOM     24  C   LIG    1      -11.431   2.253  -4.820  0.00  0.00    +0.020 C 
ATOM     25  C   LIG    1      -12.266   2.857  -7.096  0.00  0.00    +0.030 C 
ATOM     26  C   LIG    1      -10.237   1.703  -4.034  0.00  0.00    +0.280 C 
ENDBRANCH  17  20
ENDBRANCH  16  17
ENDBRANCH   3  16
TORSDOF 4
