REMARK  Name = ZINCpe00000MJLUa.0
REMARK                            x       y       z     vdW  Elec       q    Type
REMARK                         _______ _______ _______ _____ _____    ______ ____
ROOT
ATOM      1  C   LIG    1        1.905  -6.340  -1.490  0.00  0.00    +0.230 C 
ATOM      2  N   LIG    1        0.436  -6.234  -1.475  0.00  0.00    -0.710 N 
ATOM      3  H   LIG    1       -0.198  -6.968  -1.472  0.00  0.00    +0.450 HD
ATOM      4  C   LIG    1        0.145  -4.920  -1.466  0.00  0.00    +0.700 C 
ATOM      5  N   LIG    1        1.241  -4.154  -1.472  0.00  0.00    -0.580 N 
ATOM      6  O   LIG    1       -0.988  -4.479  -1.452  0.00  0.00    -0.540 OA
ATOM      7  C   LIG    1        2.366  -4.896  -1.492  0.00  0.00    +0.530 C 
ATOM      8  O   LIG    1        3.509  -4.492  -1.507  0.00  0.00    -0.460 OA
ENDROOT
BRANCH   1   9
ATOM      9  C   LIG    1        2.405  -7.067  -0.241  0.00  0.00    +0.180 C 
BRANCH   9  12
ATOM     10  N   LIG    1        1.889 -10.665  -0.263  0.00  0.00    -0.290 N 
ATOM     11  C   LIG    1        2.725  -9.604  -0.182  0.00  0.00    +0.170 A 
ATOM     12  C   LIG    1        1.946  -8.502  -0.277  0.00  0.00    -0.030 A 
ATOM     13  N   LIG    1        0.687  -8.936  -0.404  0.00  0.00    -0.260 NA
ATOM     14  N   LIG    1        0.688 -10.223  -0.398  0.00  0.00    -0.070 NA
BRANCH  10  15
ATOM     15  C   LIG    1        2.284 -12.075  -0.207  0.00  0.00    +0.350 C 
BRANCH  15  16
ATOM     16  C   LIG    1        1.501 -12.779   0.903  0.00  0.00    +0.180 C 
BRANCH  16  18
ATOM     17  C   LIG    1        1.210 -14.907   1.968  0.00  0.00    +0.220 C 
ATOM     18  O   LIG    1        1.886 -14.155   0.958  0.00  0.00    -0.390 OA
ENDBRANCH  16  18
ENDBRANCH  15  16
ENDBRANCH  10  15
ENDBRANCH   9  12
ENDBRANCH   1   9
BRANCH   5  19
ATOM     19  C   LIG    1        1.221  -2.689  -1.465  0.00  0.00    +0.320 C 
BRANCH  19  20
ATOM     20  C   LIG    1        1.229  -2.186  -0.021  0.00  0.00    +0.070 C 
BRANCH  20  21
ATOM     21  C   LIG    1        1.208  -0.679  -0.013  0.00  0.00    -0.090 A 
ATOM     22  C   LIG    1        0.002  -0.004   0.002  0.00  0.00    +0.010 A 
ATOM     23  C   LIG    1       -0.017   1.378   0.010  0.00  0.00    +0.000 A 
ATOM     24  C   LIG    1        1.171   2.086   0.002  0.00  0.00    +0.000 A 
ATOM     25  C   LIG    1        2.377   1.411  -0.015  0.00  0.00    +0.000 A 
ATOM     26  C   LIG    1        2.396   0.029  -0.021  0.00  0.00    +0.010 A 
ENDBRANCH  20  21
ENDBRANCH  19  20
ENDBRANCH   5  19
TORSDOF 8
