REMARK  Name = ZINCrg000000r10S.0
REMARK                            x       y       z     vdW  Elec       q    Type
REMARK                         _______ _______ _______ _____ _____    ______ ____
ROOT
ATOM      1  N   LIG    1       -6.580   1.382   1.269  0.00  0.00    -0.460 N 
ATOM      2  C   LIG    1       -7.381   2.603   1.427  0.00  0.00    +0.230 C 
ATOM      3  C   LIG    1       -7.041   3.583   0.299  0.00  0.00    +0.300 C 
ATOM      4  N   LIG    1       -5.585   3.792   0.286  0.00  0.00    -0.600 N 
ATOM      5  C   LIG    1       -4.712   2.608   0.261  0.00  0.00    +0.310 C 
ATOM      6  C   LIG    1       -5.064   5.035   0.290  0.00  0.00    +0.570 C 
ATOM      7  O   LIG    1       -5.791   5.997   0.442  0.00  0.00    -0.520 OA
ATOM      8  C   LIG    1       -5.144   1.667   1.396  0.00  0.00    +0.200 C 
ENDROOT
BRANCH   1  13
ATOM      9  C   LIG    1       -6.711  -1.716   3.022  0.00  0.00    +0.390 A 
ATOM     10  C   LIG    1       -7.746  -1.468   3.923  0.00  0.00    -0.120 A 
ATOM     11  C   LIG    1       -8.365  -0.232   3.893  0.00  0.00    +0.380 A 
ATOM     12  N   LIG    1       -7.961   0.673   3.016  0.00  0.00    -0.570 NA
ATOM     13  C   LIG    1       -6.974   0.409   2.171  0.00  0.00    +0.530 A 
ATOM     14  N   LIG    1       -6.360  -0.764   2.166  0.00  0.00    -0.590 NA
BRANCH   9  16
ATOM     15  C   LIG    1       -5.027  -3.087   2.063  0.00  0.00    +0.260 C 
ATOM     16  O   LIG    1       -6.077  -2.913   3.017  0.00  0.00    -0.300 OA
ENDBRANCH   9  16
ENDBRANCH   1  13
BRANCH   6  17
ATOM     17  C   LIG    1       -3.607   5.229   0.111  0.00  0.00    +0.110 A 
ATOM     18  C   LIG    1       -3.050   6.490   0.300  0.00  0.00    +0.040 A 
ATOM     19  C   LIG    1       -1.684   6.660   0.129  0.00  0.00    +0.120 A 
ATOM     20  C   LIG    1       -0.919   5.561  -0.221  0.00  0.00    -0.010 A 
ATOM     21  C   LIG    1       -1.541   4.327  -0.400  0.00  0.00    +0.350 A 
ATOM     22  N   LIG    1       -2.843   4.197  -0.230  0.00  0.00    -0.470 NA
BRANCH  21  23
ATOM     23  N   LIG    1       -0.776   3.213  -0.758  0.00  0.00    -0.410 N 
ATOM     24  C   LIG    1       -1.250   1.962  -1.062  0.00  0.00    +0.150 A 
ATOM     25  C   LIG    1       -0.178   1.198  -1.345  0.00  0.00    +0.160 A 
ATOM     26  N   LIG    1        0.922   1.958  -1.228  0.00  0.00    -0.470 NA
ATOM     27  C   LIG    1        0.577   3.166  -0.877  0.00  0.00    +0.410 A 
ENDBRANCH  21  23
ENDBRANCH   6  17
TORSDOF 4
