REMARK  Name = ZINCri0000006pet.1
REMARK                            x       y       z     vdW  Elec       q    Type
REMARK                         _______ _______ _______ _____ _____    ______ ____
ROOT
ATOM      1  N   LIG    1        0.029   4.059  -1.774  0.00  0.00    -0.940 NA
ATOM      2  H   LIG    1        0.505   4.559  -2.455  0.00  0.00    +0.370 HD
ENDROOT
BRANCH   1   3
ATOM      3  S   LIG    1        0.733   3.788  -0.300  0.00  0.00    +2.730 S 
ATOM      4  O   LIG    1        2.074   4.248  -0.405  0.00  0.00    -1.000 OA
ATOM      5  O   LIG    1       -0.179   4.272   0.676  0.00  0.00    -0.970 OA
BRANCH   3  11
ATOM      6  C   LIG    1        2.495  -0.925  -1.712  0.00  0.00    +0.080 C 
ATOM      7  C   LIG    1        1.660  -0.097  -0.769  0.00  0.00    -0.140 A 
ATOM      8  C   LIG    1        0.974  -0.708   0.259  0.00  0.00    +0.080 A 
ATOM      9  C   LIG    1        0.200   0.061   1.132  0.00  0.00    -0.170 A 
ATOM     10  C   LIG    1        0.129   1.446   0.956  0.00  0.00    +0.160 A 
ATOM     11  C   LIG    1        0.821   2.043  -0.076  0.00  0.00    -0.660 A 
ATOM     12  C   LIG    1        1.585   1.275  -0.937  0.00  0.00    +0.010 A 
ATOM     13  C   LIG    1        2.344   1.936  -2.059  0.00  0.00    +0.090 C 
BRANCH   9  14
ATOM     14  C   LIG    1       -0.538  -0.585   2.234  0.00  0.00    +0.530 C 
ATOM     15  O   LIG    1       -1.214   0.091   2.997  0.00  0.00    -0.680 OA
ATOM     16  O   LIG    1       -0.473  -1.797   2.385  0.00  0.00    -0.700 OA
ENDBRANCH   9  14
ENDBRANCH   3  11
ENDBRANCH   1   3
BRANCH   1  17
ATOM     17  N   LIG    1       -1.256   3.567  -2.037  0.00  0.00    -0.470 NA
ATOM     18  C   LIG    1       -1.830   3.787  -3.236  0.00  0.00    +0.460 C 
ATOM     19  O   LIG    1       -1.232   4.413  -4.090  0.00  0.00    -0.690 OA
BRANCH  18  20
ATOM     20  C   LIG    1       -3.185   3.268  -3.514  0.00  0.00    +0.080 A 
ATOM     21  N   LIG    1       -3.947   2.570  -2.689  0.00  0.00    -0.260 NA
ATOM     22  N   LIG    1       -5.068   2.284  -3.256  0.00  0.00    -0.400 N 
ATOM     23  H   LIG    1       -5.787   1.780  -2.844  0.00  0.00    +0.430 HD
ATOM     24  C   LIG    1       -5.093   2.782  -4.503  0.00  0.00    -0.020 A 
ATOM     25  C   LIG    1       -6.188   2.695  -5.535  0.00  0.00    +0.100 C 
ATOM     26  C   LIG    1       -5.920   3.752  -6.614  0.00  0.00    +0.010 C 
ATOM     27  C   LIG    1       -4.470   3.639  -7.095  0.00  0.00    +0.000 C 
ATOM     28  C   LIG    1       -3.523   4.110  -5.982  0.00  0.00    +0.110 C 
ATOM     29  C   LIG    1       -3.912   3.414  -4.707  0.00  0.00    -0.170 A 
ENDBRANCH  18  20
ENDBRANCH   1  17
TORSDOF 5
