REMARK  Name = ZINCri0000006pet.0
REMARK                            x       y       z     vdW  Elec       q    Type
REMARK                         _______ _______ _______ _____ _____    ______ ____
ROOT
ATOM      1  N   LIG    1       -3.760   4.596   0.076  0.00  0.00    -0.900 NA
ENDROOT
BRANCH   1   2
ATOM      2  N   LIG    1       -3.247   3.292   0.064  0.00  0.00    -0.480 N 
ATOM      3  H   LIG    1       -3.850   2.533   0.069  0.00  0.00    +0.360 HD
ATOM      4  C   LIG    1       -1.914   3.093   0.044  0.00  0.00    +0.580 C 
ATOM      5  O   LIG    1       -1.157   4.045   0.036  0.00  0.00    -0.550 OA
BRANCH   4   6
ATOM      6  C   LIG    1       -1.372   1.719   0.030  0.00  0.00    +0.030 A 
ATOM      7  N   LIG    1       -2.069   0.596   0.028  0.00  0.00    -0.280 NA
ATOM      8  N   LIG    1       -1.275  -0.419   0.015  0.00  0.00    -0.390 N 
ATOM      9  H   LIG    1       -1.559  -1.347   0.016  0.00  0.00    +0.440 HD
ATOM     10  C   LIG    1        0.002  -0.004   0.002  0.00  0.00    -0.010 A 
ATOM     11  C   LIG    1        1.264  -0.827  -0.019  0.00  0.00    +0.110 C 
ATOM     12  C   LIG    1        2.425   0.080  -0.447  0.00  0.00    +0.030 C 
ATOM     13  C   LIG    1        2.416   1.359   0.395  0.00  0.00    +0.010 C 
ATOM     14  C   LIG    1        1.210   2.223   0.002  0.00  0.00    +0.120 C 
ATOM     15  C   LIG    1       -0.016   1.352   0.009  0.00  0.00    -0.150 A 
ENDBRANCH   4   6
ENDBRANCH   1   2
BRANCH   1  16
ATOM     16  S   LIG    1       -5.398   4.840   0.101  0.00  0.00    +2.560 S 
ATOM     17  O   LIG    1       -5.857   4.356   1.355  0.00  0.00    -1.050 OA
ATOM     18  O   LIG    1       -5.893   4.366  -1.144  0.00  0.00    -1.050 OA
BRANCH  16  24
ATOM     19  C   LIG    1       -5.007   9.518   2.398  0.00  0.00    +0.080 C 
ATOM     20  C   LIG    1       -5.459   8.705   1.212  0.00  0.00    -0.150 A 
ATOM     21  C   LIG    1       -6.077   9.326   0.147  0.00  0.00    +0.080 A 
ATOM     22  C   LIG    1       -6.495   8.570  -0.951  0.00  0.00    -0.170 A 
ATOM     23  C   LIG    1       -6.279   7.190  -0.964  0.00  0.00    +0.150 A 
ATOM     24  C   LIG    1       -5.665   6.582   0.111  0.00  0.00    -0.620 A 
ATOM     25  C   LIG    1       -5.253   7.336   1.195  0.00  0.00    +0.020 A 
ATOM     26  C   LIG    1       -4.578   6.665   2.363  0.00  0.00    +0.090 C 
BRANCH  22  27
ATOM     27  C   LIG    1       -7.156   9.228  -2.095  0.00  0.00    +0.530 C 
ATOM     28  O   LIG    1       -7.521   8.563  -3.054  0.00  0.00    -0.690 OA
ATOM     29  O   LIG    1       -7.340  10.437  -2.082  0.00  0.00    -0.700 OA
ENDBRANCH  22  27
ENDBRANCH  16  24
ENDBRANCH   1  16
TORSDOF 5
