REMARK  Name = ZINCqH0000031GBQ.0
REMARK                            x       y       z     vdW  Elec       q    Type
REMARK                         _______ _______ _______ _____ _____    ______ ____
ROOT
ATOM      1  N   LIG    1       -2.586   7.616   0.074  0.00  0.00    -0.680 N 
ATOM      2  H   LIG    1       -2.213   8.508   0.154  0.00  0.00    +0.410 HD
ATOM      3  C   LIG    1       -1.770   6.544   0.056  0.00  0.00    +0.700 C 
ATOM      4  N   LIG    1       -0.433   6.714   0.056  0.00  0.00    -0.640 N 
ATOM      5  H   LIG    1       -0.058   7.608   0.068  0.00  0.00    +0.420 HD
ATOM      6  O   LIG    1       -2.241   5.423   0.040  0.00  0.00    -0.520 OA
ENDROOT
BRANCH   1  10
ATOM      7  C   LIG    1       -6.714   7.102  -0.215  0.00  0.00    +0.130 A 
ATOM      8  C   LIG    1       -5.944   6.169   0.467  0.00  0.00    +0.010 A 
ATOM      9  C   LIG    1       -4.578   6.339   0.563  0.00  0.00    +0.050 A 
ATOM     10  C   LIG    1       -3.973   7.444  -0.023  0.00  0.00    +0.150 A 
ATOM     11  C   LIG    1       -4.744   8.379  -0.701  0.00  0.00    +0.000 A 
ATOM     12  C   LIG    1       -6.109   8.206  -0.801  0.00  0.00    +0.040 A 
BRANCH   7  15
ATOM     13  C   LIG    1      -10.224   7.027  -1.577  0.00  0.00    +0.110 C 
ATOM     14  C   LIG    1       -8.751   7.307  -1.431  0.00  0.00    +0.510 C 
ATOM     15  N   LIG    1       -8.101   6.929  -0.312  0.00  0.00    -0.670 N 
ATOM     16  H   LIG    1       -8.594   6.537   0.426  0.00  0.00    +0.410 HD
ATOM     17  O   LIG    1       -8.150   7.873  -2.319  0.00  0.00    -0.530 OA
ENDBRANCH   7  15
ENDBRANCH   1  10
BRANCH   4  18
ATOM     18  C   LIG    1        0.415   5.598   0.037  0.00  0.00    +0.320 A 
ATOM     19  N   LIG    1        0.034   4.343   0.014  0.00  0.00    -0.260 NA
ATOM     20  N   LIG    1        1.181   3.538   0.004  0.00  0.00    -0.320 N 
ATOM     21  C   LIG    1        2.265   4.355   0.014  0.00  0.00    +0.250 A 
ATOM     22  C   LIG    1        1.819   5.632   0.034  0.00  0.00    -0.240 A 
ATOM     23  C   LIG    1        2.676   6.871   0.051  0.00  0.00    +0.130 C 
BRANCH  20  24
ATOM     24  C   LIG    1        1.204   2.137  -0.017  0.00  0.00    +0.170 A 
ATOM     25  C   LIG    1        0.014   1.421  -0.025  0.00  0.00    +0.020 A 
ATOM     26  C   LIG    1        0.041   0.041  -0.047  0.00  0.00    +0.040 A 
ATOM     27  C   LIG    1        1.251  -0.629  -0.060  0.00  0.00    +0.000 A 
ATOM     28  C   LIG    1        2.438   0.081  -0.053  0.00  0.00    +0.040 A 
ATOM     29  C   LIG    1        2.417   1.462  -0.031  0.00  0.00    -0.010 A 
ENDBRANCH  20  24
ENDBRANCH   4  18
TORSDOF 4
