REMARK  Name = ZINCrg000000tXsf.0
REMARK                            x       y       z     vdW  Elec       q    Type
REMARK                         _______ _______ _______ _____ _____    ______ ____
ROOT
ATOM      1  O   LIG    1       -3.204   9.855  -4.034  0.00  0.00    -0.520 OA
ATOM      2  C   LIG    1       -2.881   8.683  -3.953  0.00  0.00    +0.600 A 
ATOM      3  N   LIG    1       -2.874   8.046  -2.761  0.00  0.00    -0.660 N 
ATOM      4  H   LIG    1       -3.129   8.524  -1.957  0.00  0.00    +0.420 HD
ATOM      5  C   LIG    1       -2.506   6.735  -2.683  0.00  0.00    +0.680 A 
ATOM      6  N   LIG    1       -2.158   6.043  -3.745  0.00  0.00    -0.580 NA
ATOM      7  C   LIG    1       -2.144   6.602  -4.962  0.00  0.00    +0.390 A 
ATOM      8  N   LIG    1       -1.836   6.144  -6.209  0.00  0.00    -0.310 N 
ATOM      9  N   LIG    1       -2.007   7.197  -7.116  0.00  0.00    -0.270 NA
ATOM     10  C   LIG    1       -2.402   8.264  -6.479  0.00  0.00    +0.350 A 
ATOM     11  C   LIG    1       -2.508   7.950  -5.108  0.00  0.00    -0.380 A 
ENDROOT
BRANCH   8  12
ATOM     12  C   LIG    1       -1.421   4.846  -6.527  0.00  0.00    +0.150 A 
ATOM     13  C   LIG    1       -0.615   4.137  -5.645  0.00  0.00    +0.020 A 
ATOM     14  C   LIG    1       -0.211   2.854  -5.959  0.00  0.00    +0.030 A 
ATOM     15  C   LIG    1       -0.599   2.280  -7.156  0.00  0.00    +0.010 A 
ATOM     16  C   LIG    1       -1.396   2.985  -8.039  0.00  0.00    +0.030 A 
ATOM     17  C   LIG    1       -1.808   4.266  -7.728  0.00  0.00    +0.020 A 
ENDBRANCH   8  12
BRANCH   5  18
ATOM     18  N   LIG    1       -2.505   6.117  -1.459  0.00  0.00    -0.680 N 
ATOM     19  H   LIG    1       -2.759   6.613  -0.665  0.00  0.00    +0.420 HD
BRANCH  18  20
ATOM     20  C   LIG    1       -2.119   4.708  -1.349  0.00  0.00    +0.260 C 
ATOM     21  C   LIG    1       -3.301   3.766  -1.067  0.00  0.00    +0.020 C 
ATOM     22  C   LIG    1       -3.036   4.009   0.428  0.00  0.00    +0.190 C 
ATOM     23  C   LIG    1       -1.581   4.322   0.039  0.00  0.00    +0.270 C 
BRANCH  23  24
ATOM     24  N   LIG    1       -0.711   3.144   0.025  0.00  0.00    -0.360 N 
ATOM     25  C   LIG    1       -1.117   1.857   0.017  0.00  0.00    +0.260 A 
ATOM     26  C   LIG    1       -0.013   1.076   0.008  0.00  0.00    -0.130 A 
ATOM     27  C   LIG    1        1.107   1.914   0.002  0.00  0.00    +0.230 A 
ATOM     28  N   LIG    1        0.690   3.154   0.012  0.00  0.00    -0.300 NA
ENDBRANCH  23  24
BRANCH  22  29
ATOM     29  O   LIG    1       -3.174   2.836   1.232  0.00  0.00    -0.550 OA
ATOM     30  H   LIG    1       -4.086   2.634   1.480  0.00  0.00    +0.390 HD
ENDBRANCH  22  29
ENDBRANCH  18  20
ENDBRANCH   5  18
TORSDOF 5
