REMARK  Name = ZINCtV000002KDk8.0
REMARK                            x       y       z     vdW  Elec       q    Type
REMARK                         _______ _______ _______ _____ _____    ______ ____
ROOT
ATOM      1  N   LIG    1       -1.421  -2.101  -0.282  0.00  0.00    -0.420 N 
ATOM      2  C   LIG    1       -2.759  -2.354  -0.144  0.00  0.00    +0.160 A 
ATOM      3  N   LIG    1       -3.334  -1.226   0.208  0.00  0.00    -0.280 NA
ATOM      4  N   LIG    1       -2.456  -0.293   0.304  0.00  0.00    -0.260 NA
ATOM      5  C   LIG    1       -1.266  -0.764   0.011  0.00  0.00    +0.250 A 
ENDROOT
BRANCH   1  10
ATOM      6 CL   LIG    1        2.798  -5.938  -1.814  0.00  0.00    -0.050 Cl
ATOM      7  C   LIG    1        1.558  -4.809  -1.363  0.00  0.00    -0.020 A 
ATOM      8  C   LIG    1        0.873  -4.975  -0.172  0.00  0.00    +0.060 A 
ATOM      9  C   LIG    1       -0.114  -4.079   0.188  0.00  0.00    +0.060 A 
ATOM     10  C   LIG    1       -0.419  -3.012  -0.645  0.00  0.00    +0.100 A 
ATOM     11  C   LIG    1        0.266  -2.850  -1.842  0.00  0.00    +0.060 A 
ATOM     12  C   LIG    1        1.256  -3.746  -2.196  0.00  0.00    +0.050 A 
ENDBRANCH   1  10
BRANCH   5  13
ATOM     13  C   LIG    1        0.002  -0.004   0.002  0.00  0.00    -0.030 A 
ATOM     14  C   LIG    1       -0.017   1.392   0.010  0.00  0.00    +0.070 A 
ATOM     15  C   LIG    1        1.170   2.095   0.002  0.00  0.00    +0.010 A 
ATOM     16  C   LIG    1        2.378   1.419  -0.013  0.00  0.00    +0.030 A 
ATOM     17  C   LIG    1        2.403   0.036  -0.021  0.00  0.00    +0.010 A 
ATOM     18  C   LIG    1        1.224  -0.679  -0.013  0.00  0.00    +0.030 A 
ENDBRANCH   5  13
BRANCH   2  19
ATOM     19  S   LIG    1       -3.560  -3.904  -0.391  0.00  0.00    +0.060 S 
BRANCH  19  20
ATOM     20  C   LIG    1       -5.270  -3.435  -0.027  0.00  0.00    +0.260 C 
BRANCH  20  21
ATOM     21  C   LIG    1       -6.164  -4.639  -0.179  0.00  0.00    +0.250 A 
ATOM     22  N   LIG    1       -6.453  -5.474   0.773  0.00  0.00    -0.450 NA
ATOM     23  C   LIG    1       -7.282  -6.432   0.279  0.00  0.00    +0.020 A 
ATOM     24  C   LIG    1       -7.899  -7.556   0.832  0.00  0.00    +0.090 A 
ATOM     25  C   LIG    1       -8.704  -8.349   0.046  0.00  0.00    +0.020 A 
ATOM     26  C   LIG    1       -8.907  -8.039  -1.290  0.00  0.00    +0.060 A 
ATOM     27  C   LIG    1       -8.304  -6.932  -1.850  0.00  0.00    +0.050 A 
ATOM     28  C   LIG    1       -7.490  -6.122  -1.074  0.00  0.00    +0.020 A 
ATOM     29  O   LIG    1       -6.781  -4.997  -1.316  0.00  0.00    -0.200 OA
ENDBRANCH  20  21
ENDBRANCH  19  20
ENDBRANCH   2  19
TORSDOF 5
