REMARK  Name = ZINCrD00000l0zG5.0
REMARK                            x       y       z     vdW  Elec       q    Type
REMARK                         _______ _______ _______ _____ _____    ______ ____
ROOT
ATOM      1  C   LIG    1       -4.658   0.282   3.025  0.00  0.00    -0.130 A 
ATOM      2  C   LIG    1       -3.762   0.474   4.081  0.00  0.00    +0.120 A 
ATOM      3  C   LIG    1       -4.136   0.151   5.366  0.00  0.00    +0.030 A 
ATOM      4  C   LIG    1       -5.399  -0.378   5.613  0.00  0.00    +0.250 A 
ATOM      5  C   LIG    1       -6.292  -0.577   4.562  0.00  0.00    -0.060 A 
ATOM      6  C   LIG    1       -5.926  -0.250   3.276  0.00  0.00    +0.180 A 
ENDROOT
BRANCH   1   9
ATOM      7  N   LIG    1       -3.040   1.146   1.407  0.00  0.00    -0.720 N 
ATOM      8  H   LIG    1       -2.419   1.284   2.140  0.00  0.00    +0.400 HD
ATOM      9  C   LIG    1       -4.263   0.634   1.648  0.00  0.00    +0.570 C 
ATOM     10  O   LIG    1       -5.042   0.461   0.730  0.00  0.00    -0.520 OA
BRANCH   7  11
ATOM     11  C   LIG    1       -2.648   1.495   0.040  0.00  0.00    +0.370 C 
BRANCH  11  17
ATOM     12  C   LIG    1        0.405   5.276   0.589  0.00  0.00    +0.180 C 
ATOM     13  C   LIG    1        0.199   3.811   0.299  0.00  0.00    +0.320 A 
ATOM     14  N   LIG    1        1.248   3.053   0.052  0.00  0.00    -0.510 NA
ATOM     15  C   LIG    1        1.107   1.763  -0.207  0.00  0.00    +0.330 A 
ATOM     16  C   LIG    1       -0.165   1.213  -0.215  0.00  0.00    -0.070 A 
ATOM     17  C   LIG    1       -1.245   2.043   0.044  0.00  0.00    +0.150 A 
ATOM     18  N   LIG    1       -1.025   3.323   0.300  0.00  0.00    -0.510 NA
ENDBRANCH  11  17
ENDBRANCH   7  11
ENDBRANCH   1   9
BRANCH   5  19
ATOM     19  N   LIG    1       -7.634  -1.139   4.829  0.00  0.00    +0.030 N 
ATOM     20  O   LIG    1       -7.997  -1.331   5.976  0.00  0.00    -0.130 OA
ATOM     21  O   LIG    1       -8.376  -1.410   3.902  0.00  0.00    -0.160 OA
ENDBRANCH   5  19
BRANCH   4  22
ATOM     22  N   LIG    1       -5.771  -0.709   6.911  0.00  0.00    -0.700 N 
ATOM     23  H   LIG    1       -6.077  -0.018   7.519  0.00  0.00    +0.420 HD
BRANCH  22  24
ATOM     24  C   LIG    1       -5.705  -2.038   7.340  0.00  0.00    +0.220 A 
ATOM     25  C   LIG    1       -5.203  -3.018   6.494  0.00  0.00    -0.080 A 
ATOM     26  C   LIG    1       -5.133  -4.329   6.923  0.00  0.00    +0.050 A 
ATOM     27  C   LIG    1       -5.573  -4.668   8.189  0.00  0.00    -0.040 A 
ATOM     28  C   LIG    1       -6.079  -3.695   9.032  0.00  0.00    +0.060 A 
ATOM     29  C   LIG    1       -6.146  -2.382   8.612  0.00  0.00    -0.040 A 
ENDBRANCH  22  24
ENDBRANCH   4  22
TORSDOF 6
