REMARK  Name = ZINCvU000000054Z.0
REMARK                            x       y       z     vdW  Elec       q    Type
REMARK                         _______ _______ _______ _____ _____    ______ ____
ROOT
ATOM      1  O   LIG    1       -0.173   8.158  -0.172  0.00  0.00    -0.490 OA
ATOM      2  C   LIG    1       -1.370   8.345  -0.275  0.00  0.00    +0.560 C 
ATOM      3  N   LIG    1       -1.848   9.599  -0.403  0.00  0.00    -0.650 N 
ATOM      4  H   LIG    1       -2.805   9.756  -0.404  0.00  0.00    +0.420 HD
ENDROOT
BRANCH   2   5
ATOM      5  C   LIG    1       -2.299   7.201  -0.259  0.00  0.00    -0.190 A 
ATOM      6  C   LIG    1       -3.679   7.401  -0.377  0.00  0.00    +0.120 A 
ATOM      7  C   LIG    1       -4.508   6.294  -0.358  0.00  0.00    -0.040 A 
ATOM      8  C   LIG    1       -3.957   5.032  -0.224  0.00  0.00    +0.320 A 
ATOM      9  N   LIG    1       -2.654   4.863  -0.119  0.00  0.00    -0.480 NA
ATOM     10  C   LIG    1       -1.814   5.888  -0.126  0.00  0.00    +0.150 A 
BRANCH  10  11
ATOM     11  S   LIG    1       -0.082   5.603   0.024  0.00  0.00    +0.140 S 
BRANCH  11  12
ATOM     12  C   LIG    1       -0.058   3.841   0.003  0.00  0.00    -0.170 A 
ATOM     13  C   LIG    1       -0.047   3.159  -1.207  0.00  0.00    +0.060 A 
ATOM     14  C   LIG    1       -0.028   1.778  -1.219  0.00  0.00    +0.000 A 
ATOM     15  C   LIG    1       -0.019   1.075  -0.029  0.00  0.00    +0.040 A 
ATOM     16  C   LIG    1       -0.036   1.750   1.178  0.00  0.00    +0.000 A 
ATOM     17  C   LIG    1       -0.050   3.131   1.198  0.00  0.00    +0.070 A 
ENDBRANCH  11  12
ENDBRANCH  10  11
ENDBRANCH   2   5
BRANCH   3  18
ATOM     18  C   LIG    1       -0.963  10.675  -0.534  0.00  0.00    +0.160 A 
ATOM     19  C   LIG    1        0.311  10.470  -1.044  0.00  0.00    +0.110 A 
ATOM     20  C   LIG    1        1.181  11.535  -1.177  0.00  0.00    -0.160 A 
ATOM     21  C   LIG    1        0.791  12.805  -0.793  0.00  0.00    +0.100 A 
ATOM     22  C   LIG    1       -0.474  13.017  -0.279  0.00  0.00    +0.040 A 
ATOM     23  C   LIG    1       -1.357  11.956  -0.147  0.00  0.00    +0.140 A 
BRANCH  23  24
ATOM     24  N   LIG    1       -2.641  12.169   0.375  0.00  0.00    -0.330 N 
ATOM     25  C   LIG    1       -3.195  13.354   0.699  0.00  0.00    +0.510 A 
ATOM     26  N   LIG    1       -4.402  13.127   1.149  0.00  0.00    -0.530 NA
ATOM     27  C   LIG    1       -4.654  11.819   1.129  0.00  0.00    +0.460 A 
ATOM     28  N   LIG    1       -3.608  11.191   0.658  0.00  0.00    -0.340 NA
ENDBRANCH  23  24
BRANCH  20  29
ATOM     29  C   LIG    1        2.562  11.311  -1.738  0.00  0.00    +0.510 C 
ATOM     30  F   LIG    1        2.462  10.797  -3.035  0.00  0.00    -0.170 F 
ATOM     31  F   LIG    1        3.252  10.402  -0.928  0.00  0.00    -0.170 F 
ATOM     32  F   LIG    1        3.255  12.526  -1.770  0.00  0.00    -0.170 F 
ENDBRANCH  20  29
ENDBRANCH   3  18
TORSDOF 6
