REMARK  Name = ZINCrH000004rpjA.0
REMARK                            x       y       z     vdW  Elec       q    Type
REMARK                         _______ _______ _______ _____ _____    ______ ____
ROOT
ATOM      1  C   LIG    1       -1.669   7.527   7.096  0.00  0.00    +0.090 C 
ATOM      2  C   LIG    1       -1.533   6.716   5.833  0.00  0.00    +0.000 A 
ATOM      3  C   LIG    1       -0.857   7.239   4.746  0.00  0.00    +0.020 A 
ATOM      4  C   LIG    1       -0.731   6.498   3.587  0.00  0.00    +0.040 A 
ATOM      5  C   LIG    1       -1.284   5.226   3.515  0.00  0.00    +0.140 A 
ATOM      6  C   LIG    1       -1.966   4.705   4.606  0.00  0.00    +0.140 A 
ATOM      7  C   LIG    1       -2.084   5.449   5.764  0.00  0.00    -0.660 A 
ENDROOT
BRANCH   5   8
ATOM      8  N   LIG    1       -1.158   4.474   2.342  0.00  0.00    -0.690 N 
ATOM      9  H   LIG    1       -1.149   4.917   1.479  0.00  0.00    +0.410 HD
ATOM     10  C   LIG    1       -1.049   3.132   2.410  0.00  0.00    +0.700 C 
ATOM     11  N   LIG    1       -1.034   2.398   1.280  0.00  0.00    -0.730 N 
ATOM     12  H   LIG    1       -1.101   2.836   0.417  0.00  0.00    +0.400 HD
ATOM     13  O   LIG    1       -0.965   2.584   3.492  0.00  0.00    -0.570 OA
BRANCH  11  14
ATOM     14  C   LIG    1       -0.916   0.940   1.355  0.00  0.00    +0.260 C 
ATOM     15  C   LIG    1       -2.302   0.326   1.560  0.00  0.00    +0.010 C 
ATOM     16  C   LIG    1       -3.207   0.705   0.386  0.00  0.00    +0.010 C 
ATOM     17  C   LIG    1       -2.602   0.174  -0.915  0.00  0.00    -0.070 C 
ATOM     18  C   LIG    1       -1.216   0.789  -1.121  0.00  0.00    +0.030 C 
ATOM     19  C   LIG    1       -2.478  -1.349  -0.837  0.00  0.00    +0.010 C 
ATOM     20  C   LIG    1       -3.507   0.553  -2.090  0.00  0.00    +0.030 C 
ATOM     21  C   LIG    1       -0.311   0.410   0.053  0.00  0.00    -0.010 C 
ATOM     22  C   LIG    1        1.075   1.024  -0.152  0.00  0.00    +0.020 C 
ENDBRANCH  11  14
ENDBRANCH   5   8
BRANCH   7  23
ATOM     23  S   LIG    1       -2.943   4.786   7.152  0.00  0.00    +2.700 S 
ATOM     24  O   LIG    1       -2.081   4.944   8.271  0.00  0.00    -0.950 OA
ATOM     25  O   LIG    1       -3.461   3.529   6.740  0.00  0.00    -0.950 OA
BRANCH  23  26
ATOM     26  N   LIG    1       -4.252   5.762   7.429  0.00  0.00    -1.090 NA
ATOM     27  H   LIG    1       -4.307   6.279   8.248  0.00  0.00    +0.420 HD
BRANCH  26  28
ATOM     28  C   LIG    1       -5.328   5.845   6.438  0.00  0.00    +0.220 C 
ATOM     29  C   LIG    1       -6.041   7.189   6.280  0.00  0.00    +0.010 C 
ATOM     30  C   LIG    1       -6.756   6.019   6.958  0.00  0.00    +0.020 C 
ENDBRANCH  26  28
ENDBRANCH  23  26
ENDBRANCH   7  23
TORSDOF 5
