REMARK  Name = ZINCrH000004t3GW.0
REMARK                            x       y       z     vdW  Elec       q    Type
REMARK                         _______ _______ _______ _____ _____    ______ ____
ROOT
ATOM      1  C   LIG    1        1.738  -4.310  -0.018  0.00  0.00    -0.100 A 
ATOM      2  C   LIG    1        3.067  -4.727  -0.085  0.00  0.00    +0.090 A 
ATOM      3  C   LIG    1        3.367  -6.075  -0.123  0.00  0.00    +0.000 A 
ATOM      4  C   LIG    1        2.352  -7.013  -0.105  0.00  0.00    +0.040 A 
ATOM      5  C   LIG    1        1.024  -6.606  -0.044  0.00  0.00    +0.100 A 
ATOM      6  C   LIG    1        0.715  -5.256  -0.000  0.00  0.00    +0.100 A 
ENDROOT
BRANCH   1   7
ATOM      7  C   LIG    1        1.415  -2.865   0.029  0.00  0.00    +0.540 C 
ATOM      8  O   LIG    1        0.253  -2.502   0.083  0.00  0.00    -0.560 OA
BRANCH   7  14
ATOM      9  C   LIG    1        2.833   2.922   0.108  0.00  0.00    +0.370 C 
ATOM     10  N   LIG    1        2.274   1.568   0.099  0.00  0.00    -0.390 N 
ATOM     11  C   LIG    1        0.948   1.250   0.143  0.00  0.00    +0.350 A 
ATOM     12  C   LIG    1        0.818  -0.094   0.117  0.00  0.00    -0.110 A 
ATOM     13  C   LIG    1        2.108  -0.661   0.054  0.00  0.00    +0.490 A 
ATOM     14  N   LIG    1        2.399  -1.959   0.012  0.00  0.00    -0.670 NA
ATOM     15  N   LIG    1        3.010   0.376   0.043  0.00  0.00    -0.480 N 
ATOM     16  H   LIG    1        3.976   0.298   0.004  0.00  0.00    +0.450 HD
ENDBRANCH   7  14
ENDBRANCH   1   7
BRANCH   5  17
ATOM     17  N   LIG    1        0.002  -7.559  -0.026  0.00  0.00    -1.060 N 
ATOM     18  H   LIG    1       -0.170  -8.070   0.780  0.00  0.00    +0.430 HD
BRANCH  17  19
ATOM     19  S   LIG    1       -0.915  -7.814  -1.381  0.00  0.00    +2.690 S 
ATOM     20  O   LIG    1       -1.347  -6.533  -1.820  0.00  0.00    -0.930 OA
ATOM     21  O   LIG    1       -1.812  -8.870  -1.065  0.00  0.00    -0.950 OA
BRANCH  19  22
ATOM     22  C   LIG    1        0.161  -8.432  -2.631  0.00  0.00    -0.670 A 
ATOM     23  C   LIG    1        0.854  -7.553  -3.442  0.00  0.00    +0.160 A 
ATOM     24  C   LIG    1        1.704  -8.037  -4.420  0.00  0.00    +0.040 A 
ATOM     25  C   LIG    1        1.852  -9.401  -4.594  0.00  0.00    +0.020 A 
ATOM     26  C   LIG    1        1.153 -10.281  -3.785  0.00  0.00    -0.060 A 
ATOM     27 CL   LIG    1        1.339 -11.994  -4.002  0.00  0.00    -0.030 Cl
ATOM     28 CL   LIG    1        2.913 -10.009  -5.827  0.00  0.00    -0.030 Cl
ATOM     29  C   LIG    1        0.308  -9.796  -2.804  0.00  0.00    +0.160 A 
ENDBRANCH  19  22
ENDBRANCH  17  19
ENDBRANCH   5  17
TORSDOF 5
