REMARK  Name = ZINCvU0000000Ewz.0
REMARK                            x       y       z     vdW  Elec       q    Type
REMARK                         _______ _______ _______ _____ _____    ______ ____
ROOT
ATOM      1  N   LIG    1        1.139   2.192   0.003  0.00  0.00    -0.720 N 
ATOM      2  H   LIG    1        1.986   1.719  -0.008  0.00  0.00    +0.400 HD
ATOM      3  C   LIG    1       -0.018   1.503   0.010  0.00  0.00    +0.540 C 
ATOM      4  O   LIG    1       -1.077   2.095   0.018  0.00  0.00    -0.510 OA
ENDROOT
BRANCH   1   5
ATOM      5  C   LIG    1        1.120   3.657   0.011  0.00  0.00    +0.390 C 
BRANCH   5  10
ATOM      6  C   LIG    1        6.052   5.637   2.279  0.00  0.00    +0.090 C 
ATOM      7  C   LIG    1        4.766   5.121   1.687  0.00  0.00    -0.080 A 
ATOM      8  C   LIG    1        3.568   5.738   1.994  0.00  0.00    +0.010 A 
ATOM      9  C   LIG    1        2.388   5.264   1.452  0.00  0.00    +0.030 A 
ATOM     10  C   LIG    1        2.406   4.174   0.602  0.00  0.00    -0.100 A 
ATOM     11  C   LIG    1        3.604   3.554   0.299  0.00  0.00    +0.020 A 
ATOM     12  C   LIG    1        4.785   4.031   0.837  0.00  0.00    +0.020 A 
ENDBRANCH   5  10
BRANCH   5  13
ATOM     13  C   LIG    1        0.976   4.165  -1.400  0.00  0.00    -0.190 A 
ATOM     14  C   LIG    1        0.221   5.201  -1.772  0.00  0.00    +0.020 A 
ATOM     15  C   LIG    1        0.245   5.485  -3.126  0.00  0.00    +0.010 A 
ATOM     16  C   LIG    1        1.020   4.679  -3.855  0.00  0.00    -0.050 A 
ATOM     17  S   LIG    1        1.782   3.489  -2.809  0.00  0.00    +0.110 S 
ENDBRANCH   5  13
ENDBRANCH   1   5
BRANCH   3  18
ATOM     18  C   LIG    1        0.002  -0.004   0.002  0.00  0.00    +0.090 C 
BRANCH  18  19
ATOM     19  S   LIG    1       -1.696  -0.631   0.015  0.00  0.00    +0.080 S 
BRANCH  19  20
ATOM     20  C   LIG    1       -1.383  -2.364   0.003  0.00  0.00    +0.190 A 
ATOM     21  N   LIG    1       -0.198  -2.931  -0.018  0.00  0.00    -0.490 NA
ATOM     22  C   LIG    1       -0.344  -4.266  -0.018  0.00  0.00    +0.010 A 
ATOM     23  C   LIG    1       -1.659  -4.548  -0.006  0.00  0.00    -0.020 A 
ATOM     24  C   LIG    1       -2.282  -5.920  -0.008  0.00  0.00    +0.140 C 
ATOM     25  C   LIG    1        0.774  -5.276  -0.033  0.00  0.00    +0.140 C 
ATOM     26  N   LIG    1       -2.327  -3.344   0.006  0.00  0.00    -0.440 N 
BRANCH  26  27
ATOM     27  C   LIG    1       -3.780  -3.155   0.022  0.00  0.00    +0.310 C 
BRANCH  27  28
ATOM     28  C   LIG    1       -4.300  -3.081  -1.415  0.00  0.00    +0.150 C 
ATOM     29  C   LIG    1       -5.845  -2.971  -1.423  0.00  0.00    +0.020 C 
ATOM     30  C   LIG    1       -6.083  -2.280  -2.794  0.00  0.00    +0.020 C 
ATOM     31  C   LIG    1       -4.849  -1.361  -2.919  0.00  0.00    +0.190 C 
ATOM     32  O   LIG    1       -3.833  -1.882  -2.054  0.00  0.00    -0.360 OA
ENDBRANCH  27  28
ENDBRANCH  26  27
ENDBRANCH  19  20
ENDBRANCH  18  19
ENDBRANCH   3  18
TORSDOF 8
