REMARK  Name = ZINCrD000000D7ky.0
REMARK                            x       y       z     vdW  Elec       q    Type
REMARK                         _______ _______ _______ _____ _____    ______ ____
ROOT
ATOM      1  C   LIG    1       -1.905   4.265  -3.374  0.00  0.00    -0.630 A 
ATOM      2  C   LIG    1       -2.808   5.282  -3.126  0.00  0.00    +0.060 A 
ATOM      3  C   LIG    1       -3.917   5.439  -3.936  0.00  0.00    +0.040 A 
ATOM      4  C   LIG    1       -4.128   4.580  -4.996  0.00  0.00    -0.010 A 
ATOM      5  C   LIG    1       -3.222   3.557  -5.249  0.00  0.00    +0.200 A 
ATOM      6  C   LIG    1       -2.106   3.406  -4.437  0.00  0.00    +0.040 A 
ENDROOT
BRANCH   1   8
ATOM      7  O   LIG    1       -0.251   5.337  -1.745  0.00  0.00    -0.950 OA
ATOM      8  S   LIG    1       -0.493   4.069  -2.339  0.00  0.00    +2.690 S 
ATOM      9  O   LIG    1        0.477   3.375  -3.111  0.00  0.00    -0.950 OA
BRANCH   8  10
ATOM     10  N   LIG    1       -0.926   3.051  -1.107  0.00  0.00    -1.000 NA
ATOM     11  C   LIG    1       -0.756   1.595  -1.232  0.00  0.00    +0.260 C 
ATOM     12  C   LIG    1       -0.013   1.086   0.008  0.00  0.00    +0.220 C 
ATOM     13  O   LIG    1       -0.684   1.548   1.183  0.00  0.00    -0.380 OA
ATOM     14  C   LIG    1       -0.712   2.971   1.319  0.00  0.00    +0.220 C 
ATOM     15  C   LIG    1       -1.491   3.576   0.146  0.00  0.00    +0.270 C 
ENDBRANCH   8  10
ENDBRANCH   1   8
BRANCH   5  16
ATOM     16  N   LIG    1       -3.432   2.687  -6.321  0.00  0.00    -0.740 N 
ATOM     17  H   LIG    1       -2.799   1.973  -6.497  0.00  0.00    +0.400 HD
BRANCH  16  18
ATOM     18  C   LIG    1       -4.607   2.851  -7.180  0.00  0.00    +0.310 C 
BRANCH  18  19
ATOM     19  C   LIG    1       -4.598   1.793  -8.252  0.00  0.00    -0.080 A 
ATOM     20  C   LIG    1       -3.973   2.039  -9.461  0.00  0.00    +0.040 A 
ATOM     21  C   LIG    1       -3.961   1.066 -10.443  0.00  0.00    +0.070 A 
ATOM     22  C   LIG    1       -4.581  -0.149 -10.220  0.00  0.00    -0.170 A 
ATOM     23  C   LIG    1       -5.210  -0.393  -9.014  0.00  0.00    +0.070 A 
ATOM     24  C   LIG    1       -5.218   0.578  -8.030  0.00  0.00    +0.040 A 
BRANCH  22  25
ATOM     25  C   LIG    1       -4.572  -1.208 -11.293  0.00  0.00    +0.510 C 
ATOM     26  F   LIG    1       -4.602  -2.474 -10.698  0.00  0.00    -0.180 F 
ATOM     27  F   LIG    1       -3.411  -1.081 -12.063  0.00  0.00    -0.180 F 
ATOM     28  F   LIG    1       -5.695  -1.051 -12.113  0.00  0.00    -0.170 F 
ENDBRANCH  22  25
ENDBRANCH  18  19
ENDBRANCH  16  18
ENDBRANCH   5  16
TORSDOF 6
