REMARK  Name = ZINCrD00000hQ6hx.0
REMARK                            x       y       z     vdW  Elec       q    Type
REMARK                         _______ _______ _______ _____ _____    ______ ____
ROOT
ATOM      1  C   LIG    1       -0.787   1.609   1.234  0.00  0.00    +0.270 C 
ATOM      2  C   LIG    1       -0.013   1.086   0.008  0.00  0.00    +0.100 C 
ATOM      3  C   LIG    1       -0.795   1.612  -1.174  0.00  0.00    +0.140 C 
ATOM      4  N   LIG    1       -1.805   2.292  -0.753  0.00  0.00    -0.240 NA
ATOM      5  N   LIG    1       -1.907   2.360   0.635  0.00  0.00    -0.470 N 
ATOM      6  C   LIG    1       -2.870   3.008   1.320  0.00  0.00    +0.550 C 
ATOM      7  O   LIG    1       -2.861   3.002   2.533  0.00  0.00    -0.520 OA
ATOM      8  C   LIG    1       -3.959   3.741   0.578  0.00  0.00    +0.120 C 
ENDROOT
BRANCH   1  14
ATOM      9  C   LIG    1       -0.480  -0.129   3.015  0.00  0.00    +0.140 A 
ATOM     10  C   LIG    1       -0.958  -1.180   3.784  0.00  0.00    -0.080 A 
ATOM     11  C   LIG    1       -2.246  -1.643   3.594  0.00  0.00    +0.060 A 
ATOM     12  C   LIG    1       -3.060  -1.056   2.644  0.00  0.00    -0.020 A 
ATOM     13  C   LIG    1       -2.588  -0.004   1.880  0.00  0.00    +0.060 A 
ATOM     14  C   LIG    1       -1.301   0.463   2.066  0.00  0.00    -0.110 A 
BRANCH   9  15
ATOM     15  O   LIG    1        0.788   0.325   3.195  0.00  0.00    -0.290 OA
BRANCH  15  16
ATOM     16  C   LIG    1        1.577  -0.332   4.190  0.00  0.00    +0.290 C 
BRANCH  16  17
ATOM     17  C   LIG    1        2.943   0.302   4.247  0.00  0.00    +0.470 C 
ATOM     18  O   LIG    1        3.213   1.222   3.512  0.00  0.00    -0.480 OA
BRANCH  17  19
ATOM     19  O   LIG    1        3.859  -0.155   5.116  0.00  0.00    -0.350 OA
BRANCH  19  21
ATOM     20  C   LIG    1        6.057  -0.149   6.163  0.00  0.00    +0.070 C 
ATOM     21  C   LIG    1        5.153   0.504   5.116  0.00  0.00    +0.200 C 
ENDBRANCH  19  21
ENDBRANCH  17  19
ENDBRANCH  16  17
ENDBRANCH  15  16
ENDBRANCH   9  15
ENDBRANCH   1  14
BRANCH   3  22
ATOM     22  C   LIG    1       -0.455   1.383  -2.590  0.00  0.00    -0.040 A 
ATOM     23  C   LIG    1        0.674   0.632  -2.928  0.00  0.00    +0.040 A 
ATOM     24  C   LIG    1        0.983   0.417  -4.255  0.00  0.00    +0.010 A 
ATOM     25  C   LIG    1        0.186   0.954  -5.250  0.00  0.00    +0.030 A 
ATOM     26  C   LIG    1       -0.930   1.704  -4.923  0.00  0.00    +0.010 A 
ATOM     27  C   LIG    1       -1.255   1.921  -3.600  0.00  0.00    +0.050 A 
ENDBRANCH   3  22
TORSDOF 7
