REMARK  Name = ZINCrD000000fQGl.0
REMARK                            x       y       z     vdW  Elec       q    Type
REMARK                         _______ _______ _______ _____ _____    ______ ____
ROOT
ATOM      1  C   LIG    1        6.930   6.415  -0.350  0.00  0.00    +0.300 C 
ENDROOT
BRANCH   1   2
ATOM      2  N   LIG    1        8.302   6.914  -0.472  0.00  0.00    -1.120 NA
ATOM      3  H   LIG    1        9.050   6.332  -0.267  0.00  0.00    +0.420 HD
BRANCH   2   4
ATOM      4  S   LIG    1        8.575   8.473  -0.959  0.00  0.00    +2.700 S 
ATOM      5  O   LIG    1        7.778   8.677  -2.117  0.00  0.00    -0.950 OA
ATOM      6  O   LIG    1        9.984   8.657  -0.943  0.00  0.00    -0.950 OA
BRANCH   4  10
ATOM      7  C   LIG    1        6.893  11.198   2.248  0.00  0.00    -0.110 A 
ATOM      8  C   LIG    1        8.221  10.765   2.319  0.00  0.00    +0.060 A 
ATOM      9  C   LIG    1        8.726   9.936   1.339  0.00  0.00    +0.120 A 
ATOM     10  C   LIG    1        7.921   9.532   0.288  0.00  0.00    -0.650 A 
ATOM     11  C   LIG    1        6.607   9.960   0.208  0.00  0.00    +0.120 A 
ATOM     12  C   LIG    1        6.087  10.785   1.183  0.00  0.00    +0.050 A 
BRANCH   7  14
ATOM     13  C   LIG    1        4.916  12.547   3.209  0.00  0.00    +0.090 C 
ATOM     14  C   LIG    1        6.347  12.083   3.289  0.00  0.00    +0.390 C 
ATOM     15  O   LIG    1        7.050  12.440   4.211  0.00  0.00    -0.440 OA
ENDBRANCH   7  14
ENDBRANCH   4  10
ENDBRANCH   2   4
ENDBRANCH   1   2
BRANCH   1  16
ATOM     16  C   LIG    1        6.949   4.888  -0.257  0.00  0.00    +0.070 C 
BRANCH  16  17
ATOM     17  C   LIG    1        5.538   4.374  -0.131  0.00  0.00    +0.520 C 
ATOM     18  N   LIG    1        5.310   3.050  -0.034  0.00  0.00    -0.670 N 
ATOM     19  H   LIG    1        6.055   2.432   0.032  0.00  0.00    +0.410 HD
ATOM     20  O   LIG    1        4.609   5.153  -0.118  0.00  0.00    -0.510 OA
BRANCH  18  21
ATOM     21  C   LIG    1        3.997   2.565  -0.029  0.00  0.00    +0.140 A 
ATOM     22  C   LIG    1        3.013   3.212  -0.766  0.00  0.00    +0.010 A 
ATOM     23  C   LIG    1        1.719   2.731  -0.758  0.00  0.00    +0.030 A 
ATOM     24  C   LIG    1        1.401   1.607  -0.018  0.00  0.00    -0.090 A 
ATOM     25  C   LIG    1        2.377   0.963   0.720  0.00  0.00    +0.030 A 
ATOM     26  C   LIG    1        3.675   1.436   0.713  0.00  0.00    -0.020 A 
BRANCH  24  27
ATOM     27  C   LIG    1       -0.013   1.085  -0.012  0.00  0.00    +0.020 C 
ATOM     28  C   LIG    1       -0.030  -0.346  -0.551  0.00  0.00    +0.040 C 
ATOM     29  C   LIG    1       -0.554   1.098   1.419  0.00  0.00    +0.030 C 
ENDBRANCH  24  27
ENDBRANCH  18  21
ENDBRANCH  16  17
ENDBRANCH   1  16
TORSDOF 8
