REMARK  Name = ZINCrD000000AxNw.0
REMARK                            x       y       z     vdW  Elec       q    Type
REMARK                         _______ _______ _______ _____ _____    ______ ____
ROOT
ATOM      1  O   LIG    1        4.028  -1.567  -2.377  0.00  0.00    -0.520 OA
ATOM      2  C   LIG    1        4.395  -2.278  -1.466  0.00  0.00    +0.530 C 
ATOM      3  N   LIG    1        4.848  -3.522  -1.721  0.00  0.00    -0.610 N 
ATOM      4  C   LIG    1        5.322  -4.487  -0.713  0.00  0.00    +0.260 C 
ATOM      5  C   LIG    1        6.267  -5.438  -1.489  0.00  0.00    +0.040 C 
ATOM      6  C   LIG    1        5.542  -5.551  -2.856  0.00  0.00    +0.060 C 
ATOM      7  C   LIG    1        4.945  -4.142  -3.051  0.00  0.00    +0.320 C 
ENDROOT
BRANCH   7   8
ATOM      8  C   LIG    1        3.575  -4.244  -3.670  0.00  0.00    +0.170 A 
ATOM      9  N   LIG    1        2.485  -4.657  -3.080  0.00  0.00    -0.280 NA
ATOM     10  N   LIG    1        1.498  -4.605  -3.905  0.00  0.00    -0.290 NA
ATOM     11  C   LIG    1        1.916  -4.160  -5.056  0.00  0.00    +0.180 A 
ATOM     12  C   LIG    1        1.091  -3.927  -6.296  0.00  0.00    +0.150 C 
ATOM     13  C   LIG    1        1.821  -4.526  -7.502  0.00  0.00    +0.020 C 
ATOM     14  C   LIG    1        2.772  -3.489  -8.091  0.00  0.00    +0.020 C 
ATOM     15  C   LIG    1        3.341  -2.597  -6.989  0.00  0.00    +0.030 C 
ATOM     16  C   LIG    1        4.138  -3.447  -5.996  0.00  0.00    +0.280 C 
ATOM     17  N   LIG    1        3.245  -3.929  -4.942  0.00  0.00    -0.460 N 
ENDBRANCH   7   8
BRANCH   2  18
ATOM     18  C   LIG    1        4.344  -1.772  -0.047  0.00  0.00    +0.140 C 
BRANCH  18  19
ATOM     19  C   LIG    1        3.803  -0.365  -0.035  0.00  0.00    -0.160 A 
ATOM     20  C   LIG    1        4.524   0.768  -0.037  0.00  0.00    +0.240 A 
ATOM     21  N   LIG    1        3.689   1.852  -0.023  0.00  0.00    -0.590 N 
ATOM     22  H   LIG    1        3.979   2.778  -0.022  0.00  0.00    +0.420 HD
ATOM     23  C   LIG    1        2.378   1.433  -0.013  0.00  0.00    +0.100 A 
ATOM     24  C   LIG    1        1.159   2.103   0.002  0.00  0.00    -0.010 A 
ATOM     25  C   LIG    1       -0.017   1.384   0.010  0.00  0.00    +0.020 A 
ATOM     26  C   LIG    1        0.002  -0.004   0.002  0.00  0.00    -0.020 A 
ATOM     27  C   LIG    1        1.188  -0.682  -0.013  0.00  0.00    +0.050 A 
ATOM     28  C   LIG    1        2.391   0.026  -0.020  0.00  0.00    -0.090 A 
ENDBRANCH  18  19
ENDBRANCH   2  18
TORSDOF 3
