REMARK  Name = ZINCrH000004mfe1.0
REMARK                            x       y       z     vdW  Elec       q    Type
REMARK                         _______ _______ _______ _____ _____    ______ ____
ROOT
ATOM      1  N   LIG    1        4.851   0.008  -0.045  0.00  0.00    -0.660 N 
ATOM      2  H   LIG    1        4.837   0.976  -0.107  0.00  0.00    +0.410 HD
ATOM      3  C   LIG    1        3.696  -0.685  -0.044  0.00  0.00    +0.560 C 
ATOM      4  O   LIG    1        3.716  -1.901  -0.048  0.00  0.00    -0.520 OA
ENDROOT
BRANCH   1   8
ATOM      5  C   LIG    1        8.496  -2.010   0.224  0.00  0.00    +0.170 A 
ATOM      6  C   LIG    1        8.348  -0.769   0.825  0.00  0.00    -0.120 A 
ATOM      7  C   LIG    1        7.142  -0.095   0.732  0.00  0.00    +0.150 A 
ATOM      8  C   LIG    1        6.076  -0.670   0.045  0.00  0.00    +0.090 A 
ATOM      9  C   LIG    1        6.227  -1.912  -0.554  0.00  0.00    +0.130 A 
ATOM     10  C   LIG    1        7.434  -2.580  -0.465  0.00  0.00    -0.090 A 
ATOM     11 CL   LIG    1        7.622  -4.134  -1.216  0.00  0.00    -0.050 Cl
BRANCH   5  13
ATOM     12  C   LIG    1       10.732  -2.025   1.034  0.00  0.00    +0.250 C 
ATOM     13  O   LIG    1        9.682  -2.669   0.309  0.00  0.00    -0.300 OA
ENDBRANCH   5  13
BRANCH   7  14
ATOM     14  O   LIG    1        6.998   1.125   1.316  0.00  0.00    -0.310 OA
ATOM     15  C   LIG    1        8.133   1.654   2.003  0.00  0.00    +0.260 C 
ENDBRANCH   7  14
ENDBRANCH   1   8
BRANCH   3  16
ATOM     16  C   LIG    1        2.403   0.033  -0.040  0.00  0.00    -0.130 A 
ATOM     17  C   LIG    1        1.204  -0.682  -0.039  0.00  0.00    +0.080 A 
ATOM     18  C   LIG    1        0.002  -0.006  -0.035  0.00  0.00    +0.020 A 
ATOM     19  C   LIG    1       -0.018   1.377  -0.031  0.00  0.00    -0.080 A 
ATOM     20  C   LIG    1        1.167   2.092  -0.031  0.00  0.00    +0.030 A 
ATOM     21  C   LIG    1        2.377   1.428  -0.035  0.00  0.00    +0.050 A 
BRANCH  19  22
ATOM     22  C   LIG    1       -1.335   2.109  -0.033  0.00  0.00    +0.350 C 
BRANCH  22  23
ATOM     23  N   LIG    1       -1.766   2.342   1.348  0.00  0.00    -0.620 N 
ATOM     24  C   LIG    1       -2.603   1.417   2.121  0.00  0.00    +0.260 C 
ATOM     25  C   LIG    1       -2.428   1.844   3.598  0.00  0.00    +0.040 C 
ATOM     26  C   LIG    1       -2.054   3.337   3.450  0.00  0.00    +0.050 C 
ATOM     27  C   LIG    1       -1.451   3.433   2.067  0.00  0.00    +0.520 C 
ATOM     28  O   LIG    1       -0.780   4.361   1.664  0.00  0.00    -0.530 OA
ENDBRANCH  22  23
ENDBRANCH  19  22
ENDBRANCH   3  16
TORSDOF 6
