REMARK  Name = ZINCrH000004q4kK.0
REMARK                            x       y       z     vdW  Elec       q    Type
REMARK                         _______ _______ _______ _____ _____    ______ ____
ROOT
ATOM      1  C   LIG    1       -0.728   1.398   1.302  0.00  0.00    +0.110 C 
ATOM      2  C   LIG    1       -0.015   0.890   0.047  0.00  0.00    +0.070 C 
ENDROOT
BRANCH   1   3
ATOM      3  C   LIG    1       -2.195   1.068   1.214  0.00  0.00    +0.450 C 
ATOM      4  O   LIG    1       -2.979   1.894   0.794  0.00  0.00    -0.420 OA
BRANCH   3   7
ATOM      5  C   LIG    1       -3.304   0.393   4.029  0.00  0.00    +0.140 C 
ATOM      6  C   LIG    1       -3.160  -0.549   2.862  0.00  0.00    +0.140 A 
ATOM      7  C   LIG    1       -2.660  -0.207   1.623  0.00  0.00    -0.270 A 
ATOM      8  C   LIG    1       -2.701  -1.438   0.809  0.00  0.00    -0.060 A 
ATOM      9  C   LIG    1       -2.339  -1.745  -0.499  0.00  0.00    +0.040 A 
ATOM     10  C   LIG    1       -2.510  -3.029  -0.971  0.00  0.00    +0.000 A 
ATOM     11  C   LIG    1       -3.039  -4.012  -0.148  0.00  0.00    +0.030 A 
ATOM     12  C   LIG    1       -3.401  -3.721   1.150  0.00  0.00    +0.000 A 
ATOM     13  C   LIG    1       -3.237  -2.432   1.644  0.00  0.00    +0.090 A 
ATOM     14  N   LIG    1       -3.501  -1.851   2.869  0.00  0.00    -0.570 N 
ATOM     15  H   LIG    1       -3.878  -2.319   3.630  0.00  0.00    +0.420 HD
ENDBRANCH   3   7
ENDBRANCH   1   3
BRANCH   1  16
ATOM     16  N   LIG    1       -0.559   2.853   1.406  0.00  0.00    -0.510 NA
ATOM     17  C   LIG    1       -1.309   3.390   2.549  0.00  0.00    +0.200 C 
BRANCH  16  18
ATOM     18  C   LIG    1        0.863   3.214   1.493  0.00  0.00    +0.220 C 
BRANCH  18  19
ATOM     19  C   LIG    1        1.013   4.706   1.351  0.00  0.00    +0.520 C 
ATOM     20  N   LIG    1        2.237   5.269   1.400  0.00  0.00    -0.680 N 
ATOM     21  H   LIG    1        3.026   4.708   1.463  0.00  0.00    +0.410 HD
ATOM     22  O   LIG    1        0.032   5.402   1.193  0.00  0.00    -0.490 OA
BRANCH  20  23
ATOM     23  C   LIG    1        2.369   6.661   1.360  0.00  0.00    +0.170 A 
ATOM     24  C   LIG    1        1.500   7.420   0.588  0.00  0.00    +0.020 A 
ATOM     25  C   LIG    1        1.628   8.795   0.555  0.00  0.00    +0.070 A 
ATOM     26  C   LIG    1        2.629   9.416   1.279  0.00  0.00    -0.030 A 
ATOM     27  C   LIG    1        3.502   8.662   2.046  0.00  0.00    +0.120 A 
ATOM     28  F   LIG    1        4.478   9.271   2.753  0.00  0.00    -0.140 F 
ATOM     29  C   LIG    1        3.374   7.285   2.088  0.00  0.00    -0.040 A 
ENDBRANCH  20  23
ENDBRANCH  18  19
ENDBRANCH  16  18
ENDBRANCH   1  16
TORSDOF 6
