REMARK  Name = ZINCnE000001OKik.0
REMARK                            x       y       z     vdW  Elec       q    Type
REMARK                         _______ _______ _______ _____ _____    ______ ____
ROOT
ATOM      1  C   LIG    1       -0.037   0.994   0.032  0.00  0.00    +0.110 C 
ATOM      2  C   LIG    1       -0.729   1.531   1.259  0.00  0.00    -0.100 A 
ATOM      3  C   LIG    1       -2.043   1.898   1.260  0.00  0.00    -0.170 A 
ATOM      4  S   LIG    1       -2.497   2.469   2.860  0.00  0.00    +0.200 S 
ATOM      5  C   LIG    1       -0.868   2.192   3.460  0.00  0.00    -0.240 A 
ATOM      6  C   LIG    1       -0.087   1.694   2.456  0.00  0.00    +0.090 A 
ENDROOT
BRANCH   5   7
ATOM      7  C   LIG    1       -0.417   2.455   4.829  0.00  0.00    +0.590 C 
ATOM      8  N   LIG    1       -1.279   2.949   5.739  0.00  0.00    -0.610 N 
ATOM      9  C   LIG    1       -2.692   3.275   5.493  0.00  0.00    +0.220 C 
ATOM     10  C   LIG    1       -3.270   3.830   6.812  0.00  0.00    +0.070 C 
ATOM     11  C   LIG    1       -2.005   4.323   7.563  0.00  0.00    -0.090 C 
ATOM     12  C   LIG    1       -0.960   3.259   7.145  0.00  0.00    +0.280 C 
ATOM     13  O   LIG    1        0.737   2.227   5.144  0.00  0.00    -0.530 OA
BRANCH  11  14
ATOM     14  C   LIG    1       -2.223   4.309   9.054  0.00  0.00    +0.500 C 
ATOM     15  O   LIG    1       -3.326   4.053   9.507  0.00  0.00    -0.690 OA
ATOM     16  O   LIG    1       -1.297   4.555   9.808  0.00  0.00    -0.690 OA
ENDBRANCH  11  14
ENDBRANCH   5   7
BRANCH   3  17
ATOM     17  C   LIG    1       -2.948   1.825   0.094  0.00  0.00    -0.020 A 
ATOM     18  C   LIG    1       -3.755   2.915  -0.236  0.00  0.00    +0.060 A 
ATOM     19  C   LIG    1       -4.594   2.843  -1.328  0.00  0.00    -0.010 A 
ATOM     20  C   LIG    1       -4.646   1.687  -2.090  0.00  0.00    +0.100 A 
ATOM     21  C   LIG    1       -3.850   0.600  -1.764  0.00  0.00    -0.010 A 
ATOM     22  F   LIG    1       -5.474   1.620  -3.156  0.00  0.00    -0.140 F 
ATOM     23  C   LIG    1       -3.003   0.663  -0.678  0.00  0.00    +0.070 A 
ENDBRANCH   3  17
TORSDOF 3
