REMARK  Name = ZINC660000002svm.0
REMARK                            x       y       z     vdW  Elec       q    Type
REMARK                         _______ _______ _______ _____ _____    ______ ____
ROOT
ATOM      1  N   LIG    1       -1.191   1.867   0.018  0.00  0.00    -0.630 N 
ATOM      2  C   LIG    1       -0.014   1.209   0.009  0.00  0.00    +0.620 C 
ATOM      3  O   LIG    1        0.002  -0.004   0.002  0.00  0.00    -0.550 OA
ATOM      4  C   LIG    1       -2.449   1.117   0.020  0.00  0.00    +0.290 C 
ENDROOT
BRANCH   1   6
ATOM      5  C   LIG    1       -1.224   3.849  -1.414  0.00  0.00    +0.020 C 
ATOM      6  C   LIG    1       -1.210   3.331   0.026  0.00  0.00    +0.270 C 
ENDBRANCH   1   6
TORSDOF 1
