REMARK  Name = ZINCnE000001PDJy.0
REMARK                            x       y       z     vdW  Elec       q    Type
REMARK                         _______ _______ _______ _____ _____    ______ ____
ROOT
ATOM      1  C   LIG    1        0.002  -0.004   0.002  0.00  0.00    +0.190 A 
ATOM      2  C   LIG    1        1.128  -0.794  -0.013  0.00  0.00    -0.050 A 
ATOM      3  C   LIG    1        0.717  -2.137  -0.016  0.00  0.00    +0.460 A 
ATOM      4  N   LIG    1       -0.658  -2.153  -0.002  0.00  0.00    -0.490 N 
ATOM      5  H   LIG    1       -1.221  -2.943  -0.001  0.00  0.00    +0.460 HD
ATOM      6  N   LIG    1        1.515  -3.204  -0.029  0.00  0.00    -0.630 NA
ATOM      7  N   LIG    1       -1.101  -0.824   0.014  0.00  0.00    -0.500 N 
ATOM      8  H   LIG    1       -2.026  -0.532   0.029  0.00  0.00    +0.440 HD
ENDROOT
BRANCH   1  14
ATOM      9  C   LIG    1       -2.559   4.276   0.046  0.00  0.00    +0.090 C 
ATOM     10  C   LIG    1       -1.246   3.536   0.031  0.00  0.00    -0.090 A 
ATOM     11  C   LIG    1       -0.056   4.242   0.024  0.00  0.00    +0.060 A 
ATOM     12  C   LIG    1        1.154   3.573   0.010  0.00  0.00    -0.010 A 
ATOM     13  C   LIG    1        1.182   2.191   0.003  0.00  0.00    +0.130 A 
ATOM     14  C   LIG    1       -0.018   1.471   0.010  0.00  0.00    -0.060 A 
ATOM     15  F   LIG    1        2.365   1.537  -0.011  0.00  0.00    -0.120 F 
ATOM     16  C   LIG    1       -1.235   2.157   0.020  0.00  0.00    +0.050 A 
ENDBRANCH   1  14
BRANCH   6  17
ATOM     17  C   LIG    1        0.988  -4.433  -0.030  0.00  0.00    +0.530 C 
ATOM     18  O   LIG    1       -0.222  -4.577  -0.019  0.00  0.00    -0.570 OA
BRANCH  17  19
ATOM     19  C   LIG    1        1.874  -5.617  -0.045  0.00  0.00    -0.280 A 
ATOM     20  C   LIG    1        3.260  -5.456  -0.057  0.00  0.00    +0.100 A 
ATOM     21  C   LIG    1        4.081  -6.564  -0.071  0.00  0.00    -0.190 A 
ATOM     22  C   LIG    1        3.536  -7.837  -0.073  0.00  0.00    +0.040 A 
ATOM     23  C   LIG    1        2.166  -8.009  -0.061  0.00  0.00    -0.190 A 
ATOM     24  C   LIG    1        1.326  -6.906  -0.040  0.00  0.00    +0.300 A 
ATOM     25  O   LIG    1       -0.020  -7.074  -0.022  0.00  0.00    -0.690 OA
ENDBRANCH  17  19
ENDBRANCH   6  17
TORSDOF 3
