REMARK  Name = ZINCrm000010krUJ.0
REMARK                            x       y       z     vdW  Elec       q    Type
REMARK                         _______ _______ _______ _____ _____    ______ ____
ROOT
ATOM      1  C   LIG    1       -8.167  -0.247   0.007  0.00  0.00    +0.130 C 
ATOM      2  C   LIG    1       -6.720   0.172   0.030  0.00  0.00    -0.150 A 
ATOM      3  C   LIG    1       -5.879  -0.134  -1.022  0.00  0.00    +0.380 A 
ATOM      4  N   LIG    1       -4.611   0.249  -0.971  0.00  0.00    -0.530 NA
ATOM      5  C   LIG    1       -4.143   0.918   0.072  0.00  0.00    +0.490 A 
ATOM      6  N   LIG    1       -4.915   1.226   1.103  0.00  0.00    -0.550 NA
ATOM      7  C   LIG    1       -6.198   0.878   1.116  0.00  0.00    +0.350 A 
ENDROOT
BRANCH   5   8
ATOM      8  N   LIG    1       -2.813   1.299   0.087  0.00  0.00    -0.460 N 
ATOM      9  C   LIG    1       -2.131   0.783   1.282  0.00  0.00    +0.240 C 
ATOM     10  C   LIG    1       -0.682   1.275   1.291  0.00  0.00    +0.300 C 
ATOM     11  N   LIG    1        0.001   0.810   0.077  0.00  0.00    -0.520 N 
ATOM     12  C   LIG    1       -0.677   1.353  -1.107  0.00  0.00    +0.190 C 
ATOM     13  H   LIG    1        0.960   1.124   0.089  0.00  0.00    +0.440 HD
ATOM     14  H   LIG    1       -0.021  -0.199   0.044  0.00  0.00    +0.430 HD
ATOM     15  C   LIG    1       -2.126   0.862  -1.136  0.00  0.00    +0.280 C 
BRANCH  12  16
ATOM     16  C   LIG    1        0.047   0.882  -2.370  0.00  0.00    +0.070 C 
BRANCH  16  17
ATOM     17  C   LIG    1        1.456   1.477  -2.402  0.00  0.00    +0.380 C 
ATOM     18  F   LIG    1        2.077   1.140  -3.610  0.00  0.00    -0.170 F 
ATOM     19  F   LIG    1        2.203   0.965  -1.336  0.00  0.00    -0.210 F 
ENDBRANCH  16  17
ENDBRANCH  12  16
ENDBRANCH   5   8
BRANCH   7  20
ATOM     20  N   LIG    1       -7.004   1.206   2.194  0.00  0.00    -0.480 N 
ATOM     21  C   LIG    1       -6.522   0.568   3.427  0.00  0.00    +0.240 C 
ATOM     22  C   LIG    1       -7.471   0.907   4.578  0.00  0.00    +0.300 C 
ATOM     23  N   LIG    1       -7.530   2.365   4.751  0.00  0.00    -0.520 N 
ATOM     24  C   LIG    1       -8.037   2.986   3.521  0.00  0.00    +0.200 C 
ATOM     25  H   LIG    1       -6.606   2.717   4.950  0.00  0.00    +0.430 HD
ATOM     26  H   LIG    1       -8.147   2.587   5.519  0.00  0.00    +0.440 HD
ATOM     27  C   LIG    1       -7.092   2.664   2.360  0.00  0.00    +0.250 C 
BRANCH  24  28
ATOM     28  C   LIG    1       -8.115   4.502   3.709  0.00  0.00    +0.070 C 
BRANCH  28  29
ATOM     29  C   LIG    1       -9.152   4.829   4.785  0.00  0.00    +0.380 C 
ATOM     30  F   LIG    1       -9.306   6.217   4.877  0.00  0.00    -0.180 F 
ATOM     31  F   LIG    1       -8.723   4.325   6.017  0.00  0.00    -0.210 F 
ENDBRANCH  28  29
ENDBRANCH  24  28
ENDBRANCH   7  20
TORSDOF 6
