REMARK  Name = ZINCpk00000k3Hzg.0
REMARK                            x       y       z     vdW  Elec       q    Type
REMARK                         _______ _______ _______ _____ _____    ______ ____
ROOT
ATOM      1  C   LIG    1       -0.832   1.624   3.666  0.00  0.00    +0.260 C 
ATOM      2  C   LIG    1       -0.717   3.146   3.776  0.00  0.00    +0.300 C 
ATOM      3  N   LIG    1       -1.029   3.590   5.128  0.00  0.00    -0.710 N 
ATOM      4  H   LIG    1       -1.306   4.512   5.247  0.00  0.00    +0.410 HD
ATOM      5  C   LIG    1       -0.959   2.819   6.213  0.00  0.00    +0.510 C 
ATOM      6  C   LIG    1       -0.636   1.351   6.157  0.00  0.00    +0.350 C 
ATOM      7  O   LIG    1       -1.166   3.324   7.296  0.00  0.00    -0.540 OA
ATOM      8  N   LIG    1       -0.131   1.026   4.814  0.00  0.00    -0.610 N 
ATOM      9  C   LIG    1        0.931   0.214   4.643  0.00  0.00    +0.550 C 
ATOM     10  O   LIG    1        1.396   0.049   3.535  0.00  0.00    -0.500 OA
ENDROOT
BRANCH   9  11
ATOM     11  C   LIG    1        1.541  -0.490   5.827  0.00  0.00    -0.050 C 
ATOM     12  C   LIG    1        2.938  -0.050   6.269  0.00  0.00    +0.080 C 
ATOM     13  C   LIG    1        2.745  -1.397   5.567  0.00  0.00    +0.060 C 
BRANCH  13  14
ATOM     14  C   LIG    1        2.873  -2.643   6.406  0.00  0.00    -0.060 A 
ATOM     15  C   LIG    1        2.981  -2.542   7.781  0.00  0.00    +0.000 A 
ATOM     16  C   LIG    1        3.094  -3.685   8.550  0.00  0.00    +0.010 A 
ATOM     17  C   LIG    1        3.107  -4.928   7.945  0.00  0.00    -0.070 A 
ATOM     18  C   LIG    1        3.003  -5.028   6.570  0.00  0.00    +0.000 A 
ATOM     19  C   LIG    1        2.886  -3.885   5.801  0.00  0.00    +0.020 A 
BRANCH  17  20
ATOM     20  C   LIG    1        3.235  -6.173   8.784  0.00  0.00    +0.020 C 
ATOM     21  C   LIG    1        2.061  -6.251   9.763  0.00  0.00    +0.040 C 
ATOM     22  C   LIG    1        4.549  -6.129   9.566  0.00  0.00    +0.030 C 
ENDBRANCH  17  20
ENDBRANCH  13  14
ENDBRANCH   9  11
BRANCH   1  23
ATOM     23  C   LIG    1       -0.194   1.158   2.382  0.00  0.00    +0.490 C 
ATOM     24  O   LIG    1        0.526   1.902   1.760  0.00  0.00    -0.500 OA
BRANCH  23  26
ATOM     25  C   LIG    1        0.221  -0.465   0.687  0.00  0.00    +0.280 C 
ATOM     26  O   LIG    1       -0.427  -0.084   1.930  0.00  0.00    -0.350 OA
ENDBRANCH  23  26
ENDBRANCH   1  23
TORSDOF 5
