REMARK  Name = ZINCrH000004mdDV.0
REMARK                            x       y       z     vdW  Elec       q    Type
REMARK                         _______ _______ _______ _____ _____    ______ ____
ROOT
ATOM      1  N   LIG    1        1.774   9.449   0.034  0.00  0.00    -0.670 N 
ATOM      2  H   LIG    1        2.303   8.784  -0.433  0.00  0.00    +0.410 HD
ATOM      3  C   LIG    1        0.709   9.069   0.769  0.00  0.00    +0.610 C 
ATOM      4  O   LIG    1        0.103   9.890   1.432  0.00  0.00    -0.490 OA
ENDROOT
BRANCH   1   7
ATOM      5  C   LIG    1        3.787  12.519  -0.251  0.00  0.00    +0.170 A 
ATOM      6  C   LIG    1        3.448  11.178  -0.164  0.00  0.00    -0.120 A 
ATOM      7  C   LIG    1        2.115  10.804  -0.054  0.00  0.00    +0.220 A 
ATOM      8  C   LIG    1        1.121  11.773  -0.038  0.00  0.00    -0.080 A 
ATOM      9  C   LIG    1        1.458  13.115  -0.120  0.00  0.00    +0.170 A 
ATOM     10  C   LIG    1        2.792  13.490  -0.229  0.00  0.00    +0.020 A 
BRANCH   5  12
ATOM     11  C   LIG    1        6.061  11.835  -0.376  0.00  0.00    +0.240 C 
ATOM     12  O   LIG    1        5.092  12.885  -0.359  0.00  0.00    -0.300 OA
ENDBRANCH   5  12
BRANCH   9  13
ATOM     13  O   LIG    1        0.484  14.064  -0.098  0.00  0.00    -0.300 OA
ATOM     14  C   LIG    1       -0.865  13.606   0.016  0.00  0.00    +0.240 C 
ENDBRANCH   9  13
BRANCH  10  15
ATOM     15  O   LIG    1        3.124  14.807  -0.315  0.00  0.00    -0.310 OA
ATOM     16  C   LIG    1        3.195  15.374  -1.625  0.00  0.00    +0.200 C 
ENDBRANCH  10  15
ENDBRANCH   1   7
BRANCH   3  17
ATOM     17  C   LIG    1        0.282   7.667   0.769  0.00  0.00    -0.320 A 
ATOM     18  C   LIG    1       -0.776   7.145   1.465  0.00  0.00    +0.170 A 
ATOM     19  N   LIG    1       -0.947   5.862   1.290  0.00  0.00    -0.440 NA
ATOM     20  C   LIG    1       -0.109   5.249   0.503  0.00  0.00    +0.110 A 
ATOM     21  C   LIG    1       -1.666   7.978   2.351  0.00  0.00    +0.180 C 
ATOM     22  S   LIG    1        1.038   6.350  -0.126  0.00  0.00    +0.200 S 
BRANCH  20  23
ATOM     23  C   LIG    1       -0.148   3.804   0.192  0.00  0.00    +0.180 A 
ATOM     24  C   LIG    1        0.801   3.256  -0.671  0.00  0.00    -0.010 A 
ATOM     25  C   LIG    1        0.751   1.901  -0.952  0.00  0.00    +0.080 A 
ATOM     26  C   LIG    1       -0.244   1.138  -0.360  0.00  0.00    +0.000 A 
ATOM     27  C   LIG    1       -1.157   1.748   0.483  0.00  0.00    +0.280 A 
ATOM     28  N   LIG    1       -1.085   3.037   0.738  0.00  0.00    -0.440 NA
ENDBRANCH  20  23
ENDBRANCH   3  17
TORSDOF 6
