REMARK  Name = ZINCpk00000e9lZU.0
REMARK                            x       y       z     vdW  Elec       q    Type
REMARK                         _______ _______ _______ _____ _____    ______ ____
ROOT
ATOM      1  C   LIG    1       -2.904  -3.356  -1.095  0.00  0.00    -0.240 C 
ATOM      2  C   LIG    1       -2.401  -2.839   0.046  0.00  0.00    +0.200 C 
ATOM      3  N   LIG    1       -3.167  -2.736   1.172  0.00  0.00    -0.640 N 
ATOM      4  H   LIG    1       -2.764  -2.354   1.967  0.00  0.00    +0.430 HD
ATOM      5  C   LIG    1       -4.444  -3.132   1.239  0.00  0.00    +0.710 C 
ATOM      6  N   LIG    1       -5.084  -3.673   0.183  0.00  0.00    -0.720 N 
ATOM      7  H   LIG    1       -6.010  -3.954   0.254  0.00  0.00    +0.440 HD
ATOM      8  O   LIG    1       -5.047  -3.000   2.287  0.00  0.00    -0.560 OA
ATOM      9  C   LIG    1       -4.344  -3.828  -1.080  0.00  0.00    +0.340 C 
ENDROOT
BRANCH   1  10
ATOM     10  C   LIG    1       -2.113  -3.458  -2.263  0.00  0.00    +0.540 C 
ATOM     11  O   LIG    1       -2.234  -2.637  -3.153  0.00  0.00    -0.480 OA
BRANCH  10  12
ATOM     12  O   LIG    1       -1.224  -4.465  -2.390  0.00  0.00    -0.350 OA
BRANCH  12  14
ATOM     13  C   LIG    1        0.487  -5.708  -3.559  0.00  0.00    +0.070 C 
ATOM     14  C   LIG    1       -0.459  -4.506  -3.596  0.00  0.00    +0.200 C 
ENDBRANCH  12  14
ENDBRANCH  10  12
ENDBRANCH   1  10
BRANCH   2  15
ATOM     15  C   LIG    1       -0.972  -2.362   0.077  0.00  0.00    +0.300 C 
BRANCH  15  16
ATOM     16  O   LIG    1       -0.945  -0.926   0.291  0.00  0.00    -0.350 OA
BRANCH  16  17
ATOM     17  C   LIG    1        0.262  -0.340   0.344  0.00  0.00    +0.470 C 
ATOM     18  O   LIG    1        1.262  -1.005   0.216  0.00  0.00    -0.500 OA
BRANCH  17  19
ATOM     19  C   LIG    1        0.368   1.147   0.564  0.00  0.00    +0.110 C 
BRANCH  19  20
ATOM     20  C   LIG    1        1.843   1.555   0.583  0.00  0.00    +0.110 C 
BRANCH  20  21
ATOM     21  C   LIG    1        1.949   3.042   0.803  0.00  0.00    -0.100 A 
ATOM     22  C   LIG    1        1.970   3.901  -0.281  0.00  0.00    +0.050 A 
ATOM     23  C   LIG    1        2.062   5.265  -0.081  0.00  0.00    -0.010 A 
ATOM     24  C   LIG    1        2.145   5.771   1.206  0.00  0.00    +0.100 A 
ATOM     25  C   LIG    1        2.130   4.910   2.290  0.00  0.00    -0.010 A 
ATOM     26  F   LIG    1        2.242   7.104   1.402  0.00  0.00    -0.140 F 
ATOM     27  C   LIG    1        2.032   3.547   2.087  0.00  0.00    +0.050 A 
ENDBRANCH  20  21
ENDBRANCH  19  20
ENDBRANCH  17  19
ENDBRANCH  16  17
ENDBRANCH  15  16
ENDBRANCH   2  15
TORSDOF 9
