REMARK  Name = ZINCtV00000L6jyL.0
REMARK                            x       y       z     vdW  Elec       q    Type
REMARK                         _______ _______ _______ _____ _____    ______ ____
ROOT
ATOM      1  N   LIG    1       -2.564   3.541   0.044  0.00  0.00    -0.480 N 
ATOM      2  C   LIG    1       -1.236   3.164   0.030  0.00  0.00    +0.050 A 
ATOM      3  C   LIG    1       -0.034   3.859   0.022  0.00  0.00    +0.010 A 
ATOM      4  C   LIG    1        1.157   3.163   0.007  0.00  0.00    +0.030 A 
ATOM      5  C   LIG    1        1.161   1.776   0.001  0.00  0.00    +0.000 A 
ATOM      6  C   LIG    1       -0.013   1.076   0.008  0.00  0.00    +0.070 A 
ATOM      7  C   LIG    1       -1.231   1.759   0.017  0.00  0.00    +0.050 A 
ATOM      8  N   LIG    1       -2.529   1.359   0.021  0.00  0.00    -0.480 NA
ATOM      9  C   LIG    1       -3.308   2.402   0.030  0.00  0.00    +0.300 A 
ENDROOT
BRANCH   9  10
ATOM     10  C   LIG    1       -4.814   2.354   0.036  0.00  0.00    +0.120 C 
ATOM     11  C   LIG    1       -5.306   1.623  -1.215  0.00  0.00    +0.060 C 
BRANCH  10  12
ATOM     12  C   LIG    1       -5.288   1.622   1.265  0.00  0.00    -0.090 A 
ATOM     13  C   LIG    1       -4.916   0.307   1.473  0.00  0.00    +0.060 A 
ATOM     14  C   LIG    1       -5.348  -0.363   2.602  0.00  0.00    +0.000 A 
ATOM     15  C   LIG    1       -6.160   0.279   3.519  0.00  0.00    -0.070 A 
ATOM     16  C   LIG    1       -6.535   1.592   3.308  0.00  0.00    +0.000 A 
ATOM     17  C   LIG    1       -6.100   2.264   2.181  0.00  0.00    +0.010 A 
BRANCH  15  18
ATOM     18  C   LIG    1       -6.634  -0.454   4.747  0.00  0.00    +0.060 C 
BRANCH  18  19
ATOM     19  C   LIG    1       -7.962  -1.150   4.445  0.00  0.00    -0.020 C 
ATOM     20  C   LIG    1       -9.037  -0.099   4.160  0.00  0.00    +0.010 C 
ATOM     21  C   LIG    1       -8.382  -1.994   5.650  0.00  0.00    +0.010 C 
ENDBRANCH  18  19
ENDBRANCH  15  18
ENDBRANCH  10  12
ENDBRANCH   9  10
BRANCH   1  22
ATOM     22  C   LIG    1       -3.077   4.913   0.055  0.00  0.00    +0.350 C 
BRANCH  22  27
ATOM     23  C   LIG    1       -3.804   6.742  -5.378  0.00  0.00    +0.090 C 
ATOM     24  C   LIG    1       -3.615   6.266  -3.962  0.00  0.00    -0.070 A 
ATOM     25  C   LIG    1       -4.649   5.626  -3.303  0.00  0.00    +0.010 A 
ATOM     26  C   LIG    1       -4.475   5.189  -2.003  0.00  0.00    +0.020 A 
ATOM     27  C   LIG    1       -3.267   5.390  -1.362  0.00  0.00    -0.120 A 
ATOM     28  C   LIG    1       -2.234   6.033  -2.019  0.00  0.00    +0.030 A 
ATOM     29  C   LIG    1       -2.407   6.467  -3.320  0.00  0.00    +0.010 A 
ENDBRANCH  22  27
ENDBRANCH   1  22
TORSDOF 6
