REMARK  Name = ZINCrg00000SjSpW.0
REMARK                            x       y       z     vdW  Elec       q    Type
REMARK                         _______ _______ _______ _____ _____    ______ ____
ROOT
ATOM      1  C   LIG    1       10.450   2.643   4.763  0.00  0.00    +0.300 A 
ATOM      2  C   LIG    1       10.447   2.635   6.159  0.00  0.00    -0.030 A 
ATOM      3  C   LIG    1        9.256   2.609   6.853  0.00  0.00    +0.110 A 
ATOM      4  C   LIG    1        8.043   2.588   6.178  0.00  0.00    +0.050 A 
ATOM      5  C   LIG    1        8.024   2.596   4.793  0.00  0.00    -0.090 A 
ATOM      6  C   LIG    1        6.953   2.581   3.776  0.00  0.00    +0.580 C 
ATOM      7  O   LIG    1        5.761   2.557   4.002  0.00  0.00    -0.440 OA
ATOM      8  N   LIG    1        7.523   2.599   2.557  0.00  0.00    -0.560 N 
ATOM      9  C   LIG    1        6.839   2.593   1.396  0.00  0.00    +0.530 C 
ATOM     10  O   LIG    1        7.434   2.610   0.344  0.00  0.00    -0.440 OA
ATOM     11  C   LIG    1        8.865   2.619   2.650  0.00  0.00    +0.580 C 
ATOM     12  O   LIG    1        9.639   2.633   1.714  0.00  0.00    -0.430 OA
ATOM     13  C   LIG    1        9.239   2.624   4.073  0.00  0.00    -0.250 A 
ENDROOT
BRANCH   1  14
ATOM     14  N   LIG    1       11.650   2.670   4.067  0.00  0.00    -0.850 N 
ATOM     15  H   LIG    1       12.491   2.684   4.551  0.00  0.00    +0.410 HD
ATOM     16  H   LIG    1       11.648   2.676   3.097  0.00  0.00    +0.410 HD
ENDBRANCH   1  14
BRANCH   9  17
ATOM     17  C   LIG    1        5.332   2.564   1.409  0.00  0.00    +0.090 C 
BRANCH  17  18
ATOM     18  C   LIG    1        4.809   2.562  -0.029  0.00  0.00    +0.340 C 
BRANCH  18  19
ATOM     19  N   LIG    1        3.345   2.534  -0.016  0.00  0.00    -0.580 N 
ATOM     20  C   LIG    1        2.605   1.411  -0.015  0.00  0.00    +0.580 C 
ATOM     21  C   LIG    1        1.176   1.788   0.000  0.00  0.00    -0.140 A 
ATOM     22  C   LIG    1       -0.013   1.076   0.008  0.00  0.00    +0.100 A 
ATOM     23  C   LIG    1       -1.221   1.756   0.017  0.00  0.00    +0.050 A 
ATOM     24  C   LIG    1       -1.247   3.137   0.031  0.00  0.00    +0.050 A 
ATOM     25  C   LIG    1       -0.066   3.863   0.023  0.00  0.00    +0.100 A 
ATOM     26  C   LIG    1        1.149   3.197   0.008  0.00  0.00    -0.140 A 
ATOM     27  O   LIG    1        3.039   0.276  -0.024  0.00  0.00    -0.460 OA
ATOM     28  C   LIG    1        2.563   3.628  -0.003  0.00  0.00    +0.580 C 
ATOM     29  O   LIG    1        2.953   4.779  -0.002  0.00  0.00    -0.460 OA
ENDBRANCH  18  19
ENDBRANCH  17  18
ENDBRANCH   9  17
TORSDOF 4
