REMARK  Name = ZINCrg000000nqlt.0
REMARK                            x       y       z     vdW  Elec       q    Type
REMARK                         _______ _______ _______ _____ _____    ______ ____
ROOT
ATOM      1  N   LIG    1       -0.077  -0.246  -0.047  0.00  0.00    -1.090 NA
ATOM      2  H   LIG    1       -0.638  -0.865  -0.541  0.00  0.00    +0.430 HD
ENDROOT
BRANCH   1   3
ATOM      3  S   LIG    1        0.003   1.344  -0.505  0.00  0.00    +2.700 S 
ATOM      4  O   LIG    1       -0.144   2.111   0.682  0.00  0.00    -0.940 OA
ATOM      5  O   LIG    1       -0.855   1.481  -1.629  0.00  0.00    -0.950 OA
BRANCH   3   6
ATOM      6  C   LIG    1        1.639   1.637  -1.088  0.00  0.00    -0.680 A 
ATOM      7  C   LIG    1        1.939   1.450  -2.424  0.00  0.00    +0.140 A 
ATOM      8  C   LIG    1        3.222   1.678  -2.885  0.00  0.00    +0.020 A 
ATOM      9  C   LIG    1        4.212   2.096  -2.008  0.00  0.00    +0.110 A 
ATOM     10  O   LIG    1        5.471   2.312  -2.476  0.00  0.00    -0.300 OA
ATOM     11  C   LIG    1        6.343   3.086  -1.644  0.00  0.00    +0.230 C 
ATOM     12  C   LIG    1        6.226   2.561  -0.207  0.00  0.00    +0.230 C 
ATOM     13  O   LIG    1        4.864   2.700   0.212  0.00  0.00    -0.300 OA
ATOM     14  C   LIG    1        3.909   2.286  -0.665  0.00  0.00    +0.030 A 
ATOM     15  C   LIG    1        2.619   2.059  -0.209  0.00  0.00    +0.130 A 
ENDBRANCH   3   6
ENDBRANCH   1   3
BRANCH   1  16
ATOM     16  C   LIG    1        0.699  -0.717   1.102  0.00  0.00    +0.250 C 
BRANCH  16  17
ATOM     17  C   LIG    1        1.621  -1.826   0.665  0.00  0.00    +0.510 C 
ATOM     18  N   LIG    1        2.728  -2.104   1.382  0.00  0.00    -0.620 N 
ATOM     19  C   LIG    1        2.992  -1.427   2.661  0.00  0.00    +0.250 C 
ATOM     20  C   LIG    1        4.420  -0.871   2.629  0.00  0.00    +0.220 C 
ATOM     21  O   LIG    1        5.324  -1.918   2.266  0.00  0.00    -0.370 OA
ATOM     22  C   LIG    1        5.102  -2.457   0.961  0.00  0.00    +0.130 C 
ATOM     23  C   LIG    1        6.161  -3.520   0.660  0.00  0.00    +0.070 C 
ATOM     24  C   LIG    1        3.705  -3.098   0.911  0.00  0.00    +0.260 C 
ATOM     25  O   LIG    1        1.366  -2.469  -0.331  0.00  0.00    -0.520 OA
ENDBRANCH  16  17
BRANCH  16  27
ATOM     26  C   LIG    1       -1.104  -0.085   2.713  0.00  0.00    +0.040 C 
ATOM     27  C   LIG    1       -0.253  -1.240   2.180  0.00  0.00    -0.010 C 
ATOM     28  C   LIG    1       -1.165  -2.311   1.579  0.00  0.00    +0.030 C 
ENDBRANCH  16  27
ENDBRANCH   1  16
TORSDOF 5
