REMARK  Name = ZINCrD00000F5LF0.0
REMARK                            x       y       z     vdW  Elec       q    Type
REMARK                         _______ _______ _______ _____ _____    ______ ____
ROOT
ATOM      1  C   LIG    1       -2.549  -2.098  -0.150  0.00  0.00    +0.190 A 
ATOM      2  C   LIG    1       -3.127  -3.049  -0.964  0.00  0.00    +0.080 A 
ATOM      3  N   LIG    1       -2.191  -3.971  -1.256  0.00  0.00    -0.430 NA
ATOM      4  C   LIG    1       -1.055  -3.641  -0.664  0.00  0.00    +0.230 A 
ATOM      5  C   LIG    1        0.214  -4.258  -0.646  0.00  0.00    +0.090 A 
ATOM      6  C   LIG    1        1.220  -3.684   0.062  0.00  0.00    +0.060 A 
ATOM      7  C   LIG    1        0.995  -2.486   0.772  0.00  0.00    -0.090 A 
ATOM      8  C   LIG    1       -0.221  -1.905   0.749  0.00  0.00    +0.080 A 
ATOM      9  C   LIG    1       -0.213  -0.641   1.586  0.00  0.00    +0.240 C 
ATOM     10  C   LIG    1        1.047  -0.752   2.469  0.00  0.00    +0.030 C 
ATOM     11  C   LIG    1        1.950  -1.674   1.622  0.00  0.00    +0.110 C 
ATOM     12  N   LIG    1       -1.248  -2.474   0.036  0.00  0.00    -0.340 N 
ENDROOT
BRANCH   2  13
ATOM     13  C   LIG    1       -4.532  -3.056  -1.434  0.00  0.00    +0.330 A 
ATOM     14  N   LIG    1       -5.444  -2.154  -1.139  0.00  0.00    -0.270 NA
ATOM     15  N   LIG    1       -6.624  -2.545  -1.793  0.00  0.00    -0.440 N 
ATOM     16  H   LIG    1       -7.477  -2.084  -1.774  0.00  0.00    +0.450 HD
ATOM     17  C   LIG    1       -6.341  -3.686  -2.445  0.00  0.00    +0.200 A 
ATOM     18  N   LIG    1       -5.087  -3.985  -2.225  0.00  0.00    -0.450 NA
BRANCH  17  19
ATOM     19  C   LIG    1       -7.304  -4.484  -3.285  0.00  0.00    +0.560 C 
ATOM     20  F   LIG    1       -7.507  -3.833  -4.507  0.00  0.00    -0.160 F 
ATOM     21  F   LIG    1       -8.524  -4.603  -2.611  0.00  0.00    -0.160 F 
ATOM     22  F   LIG    1       -6.774  -5.758  -3.519  0.00  0.00    -0.140 F 
ENDBRANCH  17  19
ENDBRANCH   2  13
BRANCH   1  23
ATOM     23  N   LIG    1       -3.172  -0.968   0.381  0.00  0.00    -0.610 N 
ATOM     24  H   LIG    1       -4.145  -1.149   0.575  0.00  0.00    +0.370 HD
BRANCH  23  25
ATOM     25  C   LIG    1       -3.021   0.187  -0.514  0.00  0.00    +0.190 C 
ATOM     26  C   LIG    1       -3.347  -0.234  -1.949  0.00  0.00    -0.010 C 
BRANCH  25  28
ATOM     27  C   LIG    1       -3.551   1.831   1.291  0.00  0.00    +0.020 C 
ATOM     28  C   LIG    1       -3.977   1.299  -0.079  0.00  0.00    +0.010 C 
ENDBRANCH  25  28
ENDBRANCH  23  25
ENDBRANCH   1  23
BRANCH   9  29
ATOM     29  O   LIG    1       -0.127   0.511   0.746  0.00  0.00    -0.550 OA
ATOM     30  H   LIG    1       -0.193   1.350   1.221  0.00  0.00    +0.380 HD
ENDBRANCH   9  29
TORSDOF 6
