REMARK  Name = ZINCrD000003TrKS.0
REMARK                            x       y       z     vdW  Elec       q    Type
REMARK                         _______ _______ _______ _____ _____    ______ ____
ROOT
ATOM      1  C   LIG    1        4.600   4.072   1.354  0.00  0.00    +0.580 C 
ATOM      2  N   LIG    1        4.266   5.376   1.293  0.00  0.00    -0.610 N 
ATOM      3  C   LIG    1        4.597   6.396   2.305  0.00  0.00    +0.250 C 
ATOM      4  C   LIG    1        4.574   7.740   1.536  0.00  0.00    +0.040 C 
ATOM      5  C   LIG    1        3.393   7.518   0.550  0.00  0.00    +0.050 C 
ATOM      6  C   LIG    1        3.512   6.018   0.207  0.00  0.00    +0.210 C 
ATOM      7  O   LIG    1        4.376   3.344   0.410  0.00  0.00    -0.530 OA
ENDROOT
BRANCH   1   8
ATOM      8  C   LIG    1        5.252   3.518   2.595  0.00  0.00    -0.120 C 
ATOM      9  C   LIG    1        4.945   2.066   2.965  0.00  0.00    +0.090 C 
ATOM     10  C   LIG    1        4.348   3.208   3.789  0.00  0.00    +0.060 C 
BRANCH   8  16
ATOM     11  C   LIG    1        9.649   5.280   0.981  0.00  0.00    +0.090 C 
ATOM     12  C   LIG    1        8.742   4.876   2.114  0.00  0.00    -0.080 A 
ATOM     13  C   LIG    1        9.180   4.978   3.421  0.00  0.00    +0.000 A 
ATOM     14  C   LIG    1        8.348   4.608   4.460  0.00  0.00    +0.020 A 
ATOM     15  C   LIG    1        7.075   4.140   4.193  0.00  0.00    +0.010 A 
ATOM     16  C   LIG    1        6.638   4.033   2.886  0.00  0.00    -0.040 A 
ATOM     17  C   LIG    1        7.470   4.403   1.847  0.00  0.00    +0.010 A 
ENDBRANCH   8  16
ENDBRANCH   1   8
BRANCH   6  18
ATOM     18  C   LIG    1        2.118   5.396   0.103  0.00  0.00    +0.260 C 
BRANCH  18  19
ATOM     19  N   LIG    1        2.217   4.075  -0.521  0.00  0.00    -0.710 N 
ATOM     20  H   LIG    1        3.062   3.777  -0.893  0.00  0.00    +0.420 HD
BRANCH  19  21
ATOM     21  C   LIG    1        1.099   3.248  -0.582  0.00  0.00    +0.200 A 
ATOM     22  C   LIG    1        1.185   1.989  -1.175  0.00  0.00    -0.020 A 
ATOM     23  C   LIG    1        0.050   1.201  -1.214  0.00  0.00    +0.080 A 
ATOM     24  C   LIG    1       -1.137   1.690  -0.666  0.00  0.00    +0.110 A 
ATOM     25  N   LIG    1       -1.179   2.894  -0.104  0.00  0.00    -0.410 NA
ATOM     26  C   LIG    1       -0.119   3.668  -0.051  0.00  0.00    +0.190 A 
BRANCH  24  27
ATOM     27  C   LIG    1       -2.321   0.885  -0.706  0.00  0.00    +0.280 C 
ATOM     28  N   LIG    1       -3.260   0.247  -0.737  0.00  0.00    -0.410 NA
ENDBRANCH  24  27
ENDBRANCH  19  21
ENDBRANCH  18  19
ENDBRANCH   6  18
TORSDOF 6
