REMARK  Name = ZINCpe000000WA3I.0
REMARK                            x       y       z     vdW  Elec       q    Type
REMARK                         _______ _______ _______ _____ _____    ______ ____
ROOT
ATOM      1  N   LIG    1        1.170   3.490   0.009  0.00  0.00    -0.460 N 
ATOM      2  C   LIG    1        1.757   4.019   1.259  0.00  0.00    +0.190 C 
ATOM      3  C   LIG    1        0.992   5.309   1.607  0.00  0.00    +0.020 C 
ATOM      4  C   LIG    1       -0.077   5.456   0.500  0.00  0.00    +0.000 C 
ATOM      5  C   LIG    1       -0.221   4.010  -0.036  0.00  0.00    +0.190 C 
ENDROOT
BRANCH   1  11
ATOM      6  C   LIG    1        2.381   1.402   0.183  0.00  0.00    +0.110 A 
ATOM      7  C   LIG    1        2.387   0.017   0.175  0.00  0.00    -0.060 A 
ATOM      8  C   LIG    1        1.207  -0.680  -0.011  0.00  0.00    +0.030 A 
ATOM      9  C   LIG    1        0.018   0.002  -0.191  0.00  0.00    +0.000 A 
ATOM     10  C   LIG    1        0.003   1.385  -0.185  0.00  0.00    +0.000 A 
ATOM     11  C   LIG    1        1.183   2.090   0.002  0.00  0.00    +0.070 A 
BRANCH   6  13
ATOM     12  C   LIG    1        4.728   1.316   0.557  0.00  0.00    +0.240 C 
ATOM     13  O   LIG    1        3.539   2.088   0.372  0.00  0.00    -0.310 OA
ENDBRANCH   6  13
ENDBRANCH   1  11
BRANCH   4  14
ATOM     14  C   LIG    1       -1.400   5.950   1.087  0.00  0.00    +0.270 C 
BRANCH  14  15
ATOM     15  N   LIG    1       -1.232   7.318   1.586  0.00  0.00    -0.720 N 
ATOM     16  H   LIG    1       -0.372   7.760   1.510  0.00  0.00    +0.400 HD
ATOM     17  C   LIG    1       -2.273   7.962   2.150  0.00  0.00    +0.500 C 
ATOM     18  O   LIG    1       -3.349   7.409   2.244  0.00  0.00    -0.520 OA
BRANCH  17  19
ATOM     19  C   LIG    1       -2.101   9.368   2.663  0.00  0.00    +0.330 C 
BRANCH  19  20
ATOM     20  N   LIG    1       -3.368   9.842   3.225  0.00  0.00    -0.500 N 
ATOM     21  C   LIG    1       -4.262  10.488   2.432  0.00  0.00    +0.360 A 
ATOM     22  C   LIG    1       -5.436  10.917   2.969  0.00  0.00    -0.130 A 
ATOM     23  C   LIG    1       -5.686  10.690   4.325  0.00  0.00    +0.430 A 
ATOM     24  N   LIG    1       -4.791  10.064   5.061  0.00  0.00    -0.540 NA
ATOM     25  C   LIG    1       -3.642   9.640   4.527  0.00  0.00    +0.630 A 
ATOM     26  O   LIG    1       -2.830   9.063   5.230  0.00  0.00    -0.530 OA
ENDBRANCH  19  20
ENDBRANCH  17  19
ENDBRANCH  14  15
ENDBRANCH   4  14
TORSDOF 6
