REMARK  Name = ZINCqH0000002CXC.0
REMARK                            x       y       z     vdW  Elec       q    Type
REMARK                         _______ _______ _______ _____ _____    ______ ____
ROOT
ATOM      1  C   LIG    1       -2.177   2.990   3.431  0.00  0.00    -0.250 A 
ATOM      2  C   LIG    1       -1.536   3.256   2.235  0.00  0.00    +0.160 A 
ATOM      3  N   LIG    1       -1.810   2.241   1.399  0.00  0.00    -0.340 N 
ATOM      4  N   LIG    1       -2.635   1.328   2.064  0.00  0.00    -0.250 NA
ATOM      5 CL   LIG    1       -0.556   4.645   1.881  0.00  0.00    +0.010 Cl
ATOM      6  C   LIG    1       -2.855   1.760   3.275  0.00  0.00    +0.120 A 
ATOM      7  C   LIG    1       -3.691   1.071   4.323  0.00  0.00    +0.170 C 
ENDROOT
BRANCH   1  13
ATOM      8  N   LIG    1        1.225   3.944   6.911  0.00  0.00    -0.540 NA
ATOM      9  C   LIG    1        0.251   5.043   6.945  0.00  0.00    +0.170 C 
ATOM     10  C   LIG    1       -1.163   4.474   6.789  0.00  0.00    +0.300 C 
ATOM     11  N   LIG    1       -1.202   3.646   5.574  0.00  0.00    -0.600 N 
ATOM     12  C   LIG    1       -0.175   2.606   5.407  0.00  0.00    +0.280 C 
ATOM     13  C   LIG    1       -2.157   3.831   4.641  0.00  0.00    +0.600 C 
ATOM     14  O   LIG    1       -3.001   4.692   4.797  0.00  0.00    -0.530 OA
ATOM     15  C   LIG    1        1.204   3.253   5.615  0.00  0.00    +0.170 C 
BRANCH   8  16
ATOM     16  C   LIG    1        2.575   4.427   7.229  0.00  0.00    +0.170 C 
BRANCH  16  18
ATOM     17  C   LIG    1        4.916   3.736   7.760  0.00  0.00    +0.020 C 
ATOM     18  C   LIG    1        3.510   3.233   7.429  0.00  0.00    +0.010 C 
ENDBRANCH  16  18
ENDBRANCH   8  16
ENDBRANCH   1  13
BRANCH   3  19
ATOM     19  C   LIG    1       -1.332   2.115   0.020  0.00  0.00    +0.390 C 
BRANCH  19  20
ATOM     20  C   LIG    1       -0.017   1.379   0.010  0.00  0.00    -0.120 A 
ATOM     21  C   LIG    1        1.171   2.086   0.002  0.00  0.00    +0.040 A 
ATOM     22  C   LIG    1        2.377   1.411  -0.013  0.00  0.00    +0.010 A 
ATOM     23  C   LIG    1        2.397   0.029  -0.021  0.00  0.00    +0.050 A 
ATOM     24  C   LIG    1        1.210  -0.679  -0.013  0.00  0.00    +0.030 A 
ATOM     25  C   LIG    1        0.002  -0.004   0.002  0.00  0.00    -0.010 A 
ATOM     26 CL   LIG    1       -1.489  -0.893   0.012  0.00  0.00    -0.050 Cl
ENDBRANCH  19  20
ENDBRANCH   3  19
TORSDOF 5
