REMARK  Name = ZINCpk00000KfLyQ.0
REMARK                            x       y       z     vdW  Elec       q    Type
REMARK                         _______ _______ _______ _____ _____    ______ ____
ROOT
ATOM      1  C   LIG    1        2.122   5.653   1.117  0.00  0.00    +0.530 C 
ATOM      2  N   LIG    1        1.027   6.417   1.300  0.00  0.00    -0.610 N 
ATOM      3  C   LIG    1       -0.283   5.799   1.548  0.00  0.00    +0.280 C 
ATOM      4  C   LIG    1       -1.290   6.347   0.538  0.00  0.00    +0.010 C 
ATOM      5  C   LIG    1       -1.293   7.876   0.601  0.00  0.00    +0.240 C 
ATOM      6  C   LIG    1        0.096   8.406   0.237  0.00  0.00    +0.030 C 
ATOM      7  C   LIG    1        1.120   7.882   1.249  0.00  0.00    +0.290 C 
ATOM      8  O   LIG    1        2.020   4.445   1.082  0.00  0.00    -0.530 OA
ENDROOT
BRANCH   1  15
ATOM      9  C   LIG    1        7.183   8.842   2.513  0.00  0.00    +0.100 C 
ATOM     10  C   LIG    1        5.776   8.334   2.694  0.00  0.00    +0.510 C 
ATOM     11  N   LIG    1        5.415   7.148   2.167  0.00  0.00    -0.610 N 
ATOM     12  C   LIG    1        6.382   6.338   1.412  0.00  0.00    +0.260 C 
ATOM     13  C   LIG    1        5.783   6.003   0.043  0.00  0.00    +0.010 C 
ATOM     14  C   LIG    1        4.420   5.334   0.237  0.00  0.00    +0.050 C 
ATOM     15  C   LIG    1        3.474   6.300   0.955  0.00  0.00    -0.020 C 
ATOM     16  C   LIG    1        4.049   6.636   2.340  0.00  0.00    +0.300 C 
ATOM     17  O   LIG    1        4.970   8.990   3.319  0.00  0.00    -0.540 OA
ENDBRANCH   1  15
BRANCH   5  18
ATOM     18  N   LIG    1       -2.280   8.402  -0.345  0.00  0.00    -0.710 N 
ATOM     19  H   LIG    1       -2.002   8.671  -1.235  0.00  0.00    +0.410 HD
BRANCH  18  20
ATOM     20  C   LIG    1       -3.613   8.515   0.032  0.00  0.00    +0.340 A 
ATOM     21  C   LIG    1       -4.015   8.129   1.310  0.00  0.00    -0.030 A 
ATOM     22  C   LIG    1       -5.355   8.262   1.636  0.00  0.00    +0.070 A 
ATOM     23  C   LIG    1       -6.214   8.770   0.672  0.00  0.00    +0.010 A 
ATOM     24  N   LIG    1       -5.748   9.110  -0.513  0.00  0.00    -0.200 NA
ATOM     25  C   LIG    1       -7.681   8.933   0.980  0.00  0.00    +0.150 C 
ATOM     26  N   LIG    1       -4.507   8.996  -0.820  0.00  0.00    -0.300 NA
ENDBRANCH  18  20
ENDBRANCH   5  18
TORSDOF 3
