REMARK  Name = ZINCqH00000501xb.1
REMARK                            x       y       z     vdW  Elec       q    Type
REMARK                         _______ _______ _______ _____ _____    ______ ____
ROOT
ATOM      1  C   LIG    1       -1.185   0.954   0.336  0.00  0.00    +0.410 C 
ENDROOT
BRANCH   1   8
ATOM      2  C   LIG    1       -3.663  -0.914   0.942  0.00  0.00    +0.120 C 
ATOM      3  C   LIG    1       -3.466   0.488   1.456  0.00  0.00    -0.200 A 
ATOM      4  C   LIG    1       -4.324   1.177   2.266  0.00  0.00    +0.130 A 
ATOM      5  N   LIG    1       -3.773   2.402   2.494  0.00  0.00    -0.460 N 
ATOM      6  H   LIG    1       -4.156   3.110   3.035  0.00  0.00    +0.440 HD
ATOM      7  N   LIG    1       -2.551   2.453   1.811  0.00  0.00    -0.260 NA
ATOM      8  C   LIG    1       -2.374   1.315   1.190  0.00  0.00    +0.050 A 
BRANCH   4   9
ATOM      9  C   LIG    1       -5.614   0.683   2.796  0.00  0.00    -0.040 A 
ATOM     10  C   LIG    1       -6.510   0.021   1.956  0.00  0.00    +0.040 A 
ATOM     11  C   LIG    1       -7.709  -0.442   2.458  0.00  0.00    +0.010 A 
ATOM     12  C   LIG    1       -8.029  -0.239   3.789  0.00  0.00    +0.020 A 
ATOM     13  C   LIG    1       -7.148   0.422   4.626  0.00  0.00    +0.010 A 
ATOM     14  C   LIG    1       -5.943   0.884   4.137  0.00  0.00    +0.020 A 
ENDBRANCH   4   9
ENDBRANCH   1   8
BRANCH   1  15
ATOM     15  N   LIG    1       -1.427   1.384  -1.044  0.00  0.00    -0.440 N 
ATOM     16  C   LIG    1       -1.971   0.627  -2.047  0.00  0.00    +0.130 A 
ATOM     17  C   LIG    1       -2.013   1.407  -3.144  0.00  0.00    +0.150 A 
ATOM     18  N   LIG    1       -1.509   2.607  -2.820  0.00  0.00    -0.480 NA
ATOM     19  C   LIG    1       -1.162   2.602  -1.562  0.00  0.00    +0.180 A 
BRANCH  19  20
ATOM     20  C   LIG    1       -0.560   3.763  -0.813  0.00  0.00    +0.360 C 
BRANCH  20  21
ATOM     21  C   LIG    1       -1.539   4.909  -0.791  0.00  0.00    -0.110 A 
ATOM     22  C   LIG    1       -1.697   5.704  -1.911  0.00  0.00    +0.030 A 
ATOM     23  C   LIG    1       -2.598   6.753  -1.892  0.00  0.00    +0.000 A 
ATOM     24  C   LIG    1       -3.335   7.010  -0.752  0.00  0.00    +0.010 A 
ATOM     25  C   LIG    1       -3.174   6.218   0.369  0.00  0.00    -0.010 A 
ATOM     26  C   LIG    1       -2.276   5.167   0.350  0.00  0.00    +0.040 A 
ENDBRANCH  20  21
BRANCH  20  27
ATOM     27  O   LIG    1        0.643   4.178  -1.462  0.00  0.00    -0.540 OA
ATOM     28  H   LIG    1        0.518   4.463  -2.378  0.00  0.00    +0.390 HD
ENDBRANCH  20  27
ENDBRANCH  19  20
ENDBRANCH   1  15
TORSDOF 6
