REMARK  Name = ZINCqH00000501xb.0
REMARK                            x       y       z     vdW  Elec       q    Type
REMARK                         _______ _______ _______ _____ _____    ______ ____
ROOT
ATOM      1  C   LIG    1        0.490   0.206  -0.490  0.00  0.00    +0.410 C 
ENDROOT
BRANCH   1   4
ATOM      2  C   LIG    1        1.916  -2.496   0.164  0.00  0.00    +0.120 C 
ATOM      3  C   LIG    1        1.331  -2.101  -1.167  0.00  0.00    -0.180 A 
ATOM      4  C   LIG    1        0.715  -0.933  -1.450  0.00  0.00    +0.050 A 
ATOM      5  N   LIG    1        0.330  -0.968  -2.744  0.00  0.00    -0.470 N 
ATOM      6  H   LIG    1       -0.140  -0.264  -3.218  0.00  0.00    +0.440 HD
ATOM      7  N   LIG    1        0.729  -2.197  -3.285  0.00  0.00    -0.260 NA
ATOM      8  C   LIG    1        1.330  -2.885  -2.337  0.00  0.00    +0.120 A 
BRANCH   8   9
ATOM      9  C   LIG    1        1.906  -4.246  -2.478  0.00  0.00    -0.020 A 
ATOM     10  C   LIG    1        2.611  -4.591  -3.629  0.00  0.00    +0.030 A 
ATOM     11  C   LIG    1        3.148  -5.857  -3.752  0.00  0.00    +0.010 A 
ATOM     12  C   LIG    1        2.979  -6.784  -2.739  0.00  0.00    +0.020 A 
ATOM     13  C   LIG    1        2.275  -6.448  -1.597  0.00  0.00    +0.010 A 
ATOM     14  C   LIG    1        1.738  -5.184  -1.461  0.00  0.00    +0.040 A 
ENDBRANCH   8   9
ENDBRANCH   1   4
BRANCH   1  15
ATOM     15  N   LIG    1        1.706   1.018  -0.403  0.00  0.00    -0.440 N 
ATOM     16  C   LIG    1        2.614   1.015   0.622  0.00  0.00    +0.140 A 
ATOM     17  C   LIG    1        3.574   1.902   0.295  0.00  0.00    +0.150 A 
ATOM     18  N   LIG    1        3.256   2.439  -0.892  0.00  0.00    -0.470 NA
ATOM     19  C   LIG    1        2.139   1.914  -1.317  0.00  0.00    +0.170 A 
BRANCH  19  20
ATOM     20  C   LIG    1        1.445   2.253  -2.611  0.00  0.00    +0.350 C 
BRANCH  20  21
ATOM     21  C   LIG    1        2.392   2.030  -3.762  0.00  0.00    -0.120 A 
ATOM     22  C   LIG    1        3.255   3.037  -4.152  0.00  0.00    +0.030 A 
ATOM     23  C   LIG    1        4.127   2.831  -5.205  0.00  0.00    +0.010 A 
ATOM     24  C   LIG    1        4.130   1.621  -5.873  0.00  0.00    +0.010 A 
ATOM     25  C   LIG    1        3.263   0.616  -5.486  0.00  0.00    +0.000 A 
ATOM     26  C   LIG    1        2.394   0.820  -4.431  0.00  0.00    +0.010 A 
ENDBRANCH  20  21
BRANCH  20  27
ATOM     27  O   LIG    1        1.037   3.622  -2.589  0.00  0.00    -0.540 OA
ATOM     28  H   LIG    1        1.766   4.248  -2.483  0.00  0.00    +0.390 HD
ENDBRANCH  20  27
ENDBRANCH  19  20
ENDBRANCH   1  15
TORSDOF 6
