REMARK  Name = ZINCpe000000Vcwh.0
REMARK                            x       y       z     vdW  Elec       q    Type
REMARK                         _______ _______ _______ _____ _____    ______ ____
ROOT
ATOM      1  C   LIG    1       -1.953   1.039   1.940  0.00  0.00    +0.300 C 
ATOM      2  C   LIG    1       -3.157   1.843   2.349  0.00  0.00    +0.510 C 
ATOM      3  N   LIG    1       -3.139   3.171   2.467  0.00  0.00    -0.720 N 
ATOM      4  H   LIG    1       -3.941   3.606   2.797  0.00  0.00    +0.400 HD
ATOM      5  C   LIG    1       -2.000   4.015   2.134  0.00  0.00    +0.260 C 
ATOM      6  C   LIG    1       -0.697   3.205   2.161  0.00  0.00    +0.310 C 
ATOM      7  O   LIG    1       -4.192   1.256   2.583  0.00  0.00    -0.510 OA
ATOM      8  N   LIG    1       -0.925   1.953   1.420  0.00  0.00    -1.000 NA
ENDROOT
BRANCH   8   9
ATOM      9  S   LIG    1       -0.056   1.587   0.059  0.00  0.00    +2.690 S 
ATOM     10  O   LIG    1        1.099   2.414   0.086  0.00  0.00    -0.940 OA
ATOM     11  O   LIG    1        0.006   0.169  -0.008  0.00  0.00    -0.940 OA
BRANCH   9  12
ATOM     12  C   LIG    1       -1.010   2.109  -1.327  0.00  0.00    -0.670 A 
ATOM     13  C   LIG    1       -0.855   3.372  -1.809  0.00  0.00    +0.170 A 
ATOM     14  C   LIG    1       -1.615   3.793  -2.914  0.00  0.00    -0.080 A 
ATOM     15  C   LIG    1       -1.482   5.088  -3.441  0.00  0.00    +0.040 A 
ATOM     16  C   LIG    1       -2.234   5.460  -4.513  0.00  0.00    +0.010 A 
ATOM     17  C   LIG    1       -3.137   4.574  -5.098  0.00  0.00    +0.040 A 
ATOM     18  C   LIG    1       -3.292   3.311  -4.615  0.00  0.00    +0.010 A 
ATOM     19  C   LIG    1       -2.533   2.891  -3.510  0.00  0.00    -0.010 A 
ATOM     20  C   LIG    1       -2.665   1.595  -2.983  0.00  0.00    +0.030 A 
ATOM     21  C   LIG    1       -1.909   1.221  -1.915  0.00  0.00    +0.090 A 
ENDBRANCH   9  12
ENDBRANCH   8   9
BRANCH   1  22
ATOM     22  C   LIG    1       -1.403   0.287   3.154  0.00  0.00    +0.120 C 
BRANCH  22  23
ATOM     23  C   LIG    1       -2.389  -0.770   3.579  0.00  0.00    +0.450 C 
ATOM     24  O   LIG    1       -3.364  -0.994   2.901  0.00  0.00    -0.470 OA
BRANCH  23  26
ATOM     25  C   LIG    1       -3.175  -2.466   5.057  0.00  0.00    +0.260 C 
ATOM     26  O   LIG    1       -2.184  -1.463   4.710  0.00  0.00    -0.360 OA
ENDBRANCH  23  26
ENDBRANCH  22  23
ENDBRANCH   1  22
TORSDOF 5
