REMARK  Name = ZINCrH000004jbLt.0
REMARK                            x       y       z     vdW  Elec       q    Type
REMARK                         _______ _______ _______ _____ _____    ______ ____
ROOT
ATOM      1  N   LIG    1       -5.484   2.058   0.114  0.00  0.00    -0.560 N 
ATOM      2  C   LIG    1       -6.869   1.593  -0.026  0.00  0.00    +0.310 C 
ATOM      3  C   LIG    1       -7.702   2.865  -0.309  0.00  0.00    +0.010 C 
ATOM      4  C   LIG    1       -6.646   3.796  -0.947  0.00  0.00    +0.100 C 
ATOM      5  C   LIG    1       -5.328   3.289  -0.403  0.00  0.00    +0.520 C 
ATOM      6  O   LIG    1       -4.283   3.904  -0.430  0.00  0.00    -0.500 OA
ENDROOT
BRANCH   1  11
ATOM      7  C   LIG    1       -3.724  -0.633   1.897  0.00  0.00    -0.050 A 
ATOM      8  C   LIG    1       -2.425  -0.159   1.870  0.00  0.00    -0.020 A 
ATOM      9  C   LIG    1       -2.140   1.050   1.262  0.00  0.00    +0.040 A 
ATOM     10  C   LIG    1       -3.151   1.787   0.679  0.00  0.00    -0.010 A 
ATOM     11  C   LIG    1       -4.457   1.314   0.704  0.00  0.00    +0.170 A 
ATOM     12  C   LIG    1       -4.739   0.097   1.311  0.00  0.00    -0.020 A 
BRANCH   7  14
ATOM     13  C   LIG    1       -4.357  -1.716   4.035  0.00  0.00    +0.020 C 
ATOM     14  C   LIG    1       -4.030  -1.952   2.559  0.00  0.00    +0.050 C 
ENDBRANCH   7  14
ENDBRANCH   1  11
BRANCH   3  15
ATOM     15  C   LIG    1       -8.817   2.570  -1.279  0.00  0.00    +0.530 C 
ATOM     16  N   LIG    1       -9.580   3.574  -1.755  0.00  0.00    -0.720 N 
ATOM     17  H   LIG    1       -9.412   4.486  -1.472  0.00  0.00    +0.400 HD
ATOM     18  O   LIG    1       -9.028   1.428  -1.632  0.00  0.00    -0.520 OA
BRANCH  16  19
ATOM     19  C   LIG    1      -10.664   3.287  -2.698  0.00  0.00    +0.300 C 
ATOM     20  C   LIG    1      -11.923   2.893  -1.923  0.00  0.00    +0.040 C 
BRANCH  19  21
ATOM     21  C   LIG    1      -10.947   4.513  -3.526  0.00  0.00    -0.080 A 
ATOM     22  C   LIG    1      -11.219   4.388  -4.875  0.00  0.00    +0.060 A 
ATOM     23  C   LIG    1      -11.480   5.511  -5.637  0.00  0.00    +0.030 A 
ATOM     24  C   LIG    1      -11.467   6.764  -5.049  0.00  0.00    +0.070 A 
ATOM     25  C   LIG    1      -11.193   6.890  -3.696  0.00  0.00    +0.070 A 
ATOM     26  F   LIG    1      -11.181   8.112  -3.119  0.00  0.00    -0.120 F 
ATOM     27  F   LIG    1      -11.722   7.863  -5.793  0.00  0.00    -0.120 F 
ATOM     28  C   LIG    1      -10.939   5.763  -2.935  0.00  0.00    +0.020 A 
ENDBRANCH  19  21
ENDBRANCH  16  19
ENDBRANCH   3  15
TORSDOF 5
