REMARK  Name = ZINCvU00000005pp.0
REMARK                            x       y       z     vdW  Elec       q    Type
REMARK                         _______ _______ _______ _____ _____    ______ ____
ROOT
ATOM      1  C   LIG    1       -3.886  -4.613  -0.164  0.00  0.00    +0.270 A 
ATOM      2  N   LIG    1       -4.160  -5.880  -0.186  0.00  0.00    -0.500 NA
ATOM      3  C   LIG    1       -5.427  -6.226  -0.001  0.00  0.00    +0.130 A 
ATOM      4  C   LIG    1       -6.282  -5.203   0.180  0.00  0.00    -0.110 A 
ATOM      5  S   LIG    1       -5.367  -3.700   0.109  0.00  0.00    +0.210 S 
ENDROOT
BRANCH   3   6
ATOM      6  C   LIG    1       -5.871  -7.641   0.001  0.00  0.00    -0.040 A 
ATOM      7  C   LIG    1       -7.215  -7.950   0.201  0.00  0.00    +0.050 A 
ATOM      8  C   LIG    1       -7.626  -9.267   0.198  0.00  0.00    -0.010 A 
ATOM      9  C   LIG    1       -6.700 -10.284   0.006  0.00  0.00    +0.150 A 
ATOM     10  C   LIG    1       -5.358  -9.979  -0.188  0.00  0.00    +0.020 A 
ATOM     11  C   LIG    1       -4.943  -8.664  -0.190  0.00  0.00    +0.080 A 
BRANCH   9  12
ATOM     12  N   LIG    1       -7.118 -11.619   0.009  0.00  0.00    -0.670 N 
ATOM     13  H   LIG    1       -7.994 -11.853  -0.335  0.00  0.00    +0.410 HD
ATOM     14  C   LIG    1       -6.304 -12.579   0.489  0.00  0.00    +0.560 C 
ATOM     15  O   LIG    1       -5.247 -12.277   1.008  0.00  0.00    -0.510 OA
BRANCH  14  16
ATOM     16  C   LIG    1       -6.696 -14.001   0.385  0.00  0.00    -0.140 A 
ATOM     17  C   LIG    1       -7.912 -14.351  -0.204  0.00  0.00    +0.040 A 
ATOM     18  C   LIG    1       -8.270 -15.680  -0.302  0.00  0.00    +0.000 A 
ATOM     19  C   LIG    1       -7.432 -16.664   0.192  0.00  0.00    +0.040 A 
ATOM     20  C   LIG    1       -6.228 -16.323   0.782  0.00  0.00    +0.000 A 
ATOM     21  C   LIG    1       -5.855 -14.998   0.882  0.00  0.00    +0.080 A 
ENDBRANCH  14  16
ENDBRANCH   9  12
ENDBRANCH   3   6
BRANCH   1  24
ATOM     22  O   LIG    1       -3.417  -2.002  -0.114  0.00  0.00    -0.470 OA
ATOM     23  C   LIG    1       -2.459  -2.725  -0.297  0.00  0.00    +0.520 C 
ATOM     24  N   LIG    1       -2.622  -4.062  -0.334  0.00  0.00    -0.620 N 
ATOM     25  H   LIG    1       -1.857  -4.640  -0.480  0.00  0.00    +0.430 HD
BRANCH  23  26
ATOM     26  C   LIG    1       -1.089  -2.127  -0.482  0.00  0.00    +0.270 C 
BRANCH  26  27
ATOM     27  O   LIG    1       -1.175  -0.703  -0.402  0.00  0.00    -0.290 OA
BRANCH  27  28
ATOM     28  C   LIG    1       -0.018  -0.005  -0.549  0.00  0.00    +0.120 A 
ATOM     29  C   LIG    1       -0.029   1.381  -0.482  0.00  0.00    -0.010 A 
ATOM     30  C   LIG    1        1.148   2.088  -0.631  0.00  0.00    +0.050 A 
ATOM     31  C   LIG    1        2.337   1.415  -0.847  0.00  0.00    -0.020 A 
ATOM     32  C   LIG    1        2.350   0.034  -0.914  0.00  0.00    +0.050 A 
ATOM     33  C   LIG    1        1.176  -0.677  -0.765  0.00  0.00    -0.080 A 
ENDBRANCH  27  28
ENDBRANCH  26  27
ENDBRANCH  23  26
ENDBRANCH   1  24
TORSDOF 7
