REMARK  Name = ZINCpk00000xIhnl.0
REMARK                            x       y       z     vdW  Elec       q    Type
REMARK                         _______ _______ _______ _____ _____    ______ ____
ROOT
ATOM      1  C   LIG    1       -0.756   1.472   3.742  0.00  0.00    +0.510 C 
ATOM      2  N   LIG    1       -1.818   0.736   4.126  0.00  0.00    -0.600 N 
ATOM      3  C   LIG    1       -2.220  -0.434   3.342  0.00  0.00    +0.290 C 
ATOM      4  O   LIG    1       -0.423   2.441   4.392  0.00  0.00    -0.490 OA
ENDROOT
BRANCH   1   5
ATOM      5  C   LIG    1        0.017   1.092   2.506  0.00  0.00    +0.270 C 
BRANCH   5   6
ATOM      6  N   LIG    1        1.347   1.704   2.554  0.00  0.00    -0.740 N 
ATOM      7  H   LIG    1        2.139   1.144   2.542  0.00  0.00    +0.400 HD
ATOM      8  C   LIG    1        1.471   3.044   2.615  0.00  0.00    +0.710 C 
ATOM      9  O   LIG    1        0.478   3.746   2.631  0.00  0.00    -0.560 OA
ATOM     10  N   LIG    1        2.695   3.607   2.660  0.00  0.00    -0.870 N 
ATOM     11  H   LIG    1        2.784   4.572   2.704  0.00  0.00    +0.420 HD
ATOM     12  H   LIG    1        3.487   3.047   2.648  0.00  0.00    +0.390 HD
ENDBRANCH   5   6
BRANCH   5  13
ATOM     13  C   LIG    1       -0.728   1.589   1.265  0.00  0.00    +0.080 C 
BRANCH  13  14
ATOM     14  C   LIG    1       -0.010   1.096   0.007  0.00  0.00    +0.080 C 
BRANCH  14  16
ATOM     15  C   LIG    1        0.092   1.011  -2.829  0.00  0.00    +0.140 C 
ATOM     16  S   LIG    1       -0.894   1.685  -1.463  0.00  0.00    -0.250 S 
ENDBRANCH  14  16
ENDBRANCH  13  14
ENDBRANCH   5  13
ENDBRANCH   1   5
BRANCH   2  17
ATOM     17  C   LIG    1       -2.569   1.106   5.328  0.00  0.00    +0.330 C 
BRANCH  17  18
ATOM     18  C   LIG    1       -3.680   2.054   4.955  0.00  0.00    +0.490 C 
ATOM     19  N   LIG    1       -4.508   2.530   5.906  0.00  0.00    -0.670 N 
ATOM     20  H   LIG    1       -4.440   2.203   6.816  0.00  0.00    +0.410 HD
ATOM     21  O   LIG    1       -3.829   2.387   3.798  0.00  0.00    -0.500 OA
BRANCH  19  22
ATOM     22  C   LIG    1       -5.465   3.498   5.579  0.00  0.00    +0.150 A 
ATOM     23  C   LIG    1       -5.266   4.333   4.488  0.00  0.00    +0.010 A 
ATOM     24  C   LIG    1       -6.213   5.287   4.169  0.00  0.00    -0.070 A 
ATOM     25  C   LIG    1       -7.357   5.410   4.934  0.00  0.00    -0.020 A 
ATOM     26  C   LIG    1       -7.558   4.579   6.022  0.00  0.00    +0.030 A 
ATOM     27  C   LIG    1       -5.997   6.194   2.985  0.00  0.00    +0.100 C 
ATOM     28  C   LIG    1       -6.618   3.620   6.343  0.00  0.00    -0.130 A 
ATOM     29  C   LIG    1       -6.841   2.711   7.524  0.00  0.00    +0.090 C 
ENDBRANCH  19  22
ENDBRANCH  17  18
ENDBRANCH   2  17
TORSDOF 8
