REMARK  Name = ZINCtV000002DUl8.0
REMARK                            x       y       z     vdW  Elec       q    Type
REMARK                         _______ _______ _______ _____ _____    ______ ____
ROOT
ATOM      1  N   LIG    1        1.409   4.676   0.954  0.00  0.00    -0.620 N 
ATOM      2  C   LIG    1        0.707   3.527   1.018  0.00  0.00    +0.580 C 
ATOM      3  O   LIG    1        0.961   2.707   1.878  0.00  0.00    -0.510 OA
ENDROOT
BRANCH   2   4
ATOM      4  C   LIG    1       -0.372   3.265   0.041  0.00  0.00    -0.150 A 
ATOM      5  C   LIG    1       -0.609   1.966  -0.409  0.00  0.00    +0.070 A 
ATOM      6  C   LIG    1       -1.617   1.728  -1.321  0.00  0.00    +0.000 A 
ATOM      7  C   LIG    1       -2.388   2.776  -1.792  0.00  0.00    -0.040 A 
ATOM      8  C   LIG    1       -2.162   4.065  -1.345  0.00  0.00    -0.010 A 
ATOM      9  C   LIG    1       -1.157   4.317  -0.434  0.00  0.00    +0.050 A 
BRANCH   7  10
ATOM     10  C   LIG    1       -3.484   2.509  -2.792  0.00  0.00    -0.030 C 
ATOM     11  C   LIG    1       -2.882   1.893  -4.056  0.00  0.00    +0.040 C 
ATOM     12  C   LIG    1       -4.180   3.824  -3.148  0.00  0.00    +0.030 C 
ATOM     13  C   LIG    1       -4.502   1.540  -2.187  0.00  0.00    +0.040 C 
ENDBRANCH   7  10
ENDBRANCH   2   4
BRANCH   1  15
ATOM     14  C   LIG    1       -0.601   6.036   1.253  0.00  0.00    +0.050 C 
ATOM     15  C   LIG    1        0.749   5.917   0.542  0.00  0.00    +0.240 C 
BRANCH  15  16
ATOM     16  C   LIG    1        0.528   5.899  -0.972  0.00  0.00    +0.110 C 
BRANCH  16  17
ATOM     17  C   LIG    1        1.575   6.750  -1.642  0.00  0.00    -0.180 A 
ATOM     18  C   LIG    1        2.469   6.312  -2.530  0.00  0.00    +0.010 A 
ATOM     19  C   LIG    1        3.333   7.279  -3.014  0.00  0.00    +0.010 A 
ATOM     20  C   LIG    1        3.146   8.501  -2.513  0.00  0.00    -0.050 A 
ATOM     21  S   LIG    1        1.812   8.471  -1.368  0.00  0.00    +0.090 S 
ENDBRANCH  16  17
ENDBRANCH  15  16
ENDBRANCH   1  15
BRANCH   1  22
ATOM     22  C   LIG    1        2.834   4.683   1.296  0.00  0.00    +0.340 C 
BRANCH  22  23
ATOM     23  C   LIG    1        3.622   4.049   0.179  0.00  0.00    -0.100 A 
ATOM     24  C   LIG    1        3.558   2.683  -0.022  0.00  0.00    +0.040 A 
ATOM     25  C   LIG    1        4.277   2.101  -1.050  0.00  0.00    +0.020 A 
ATOM     26  C   LIG    1        5.069   2.885  -1.870  0.00  0.00    -0.030 A 
ATOM     27  C   LIG    1        5.137   4.251  -1.665  0.00  0.00    +0.020 A 
ATOM     28 CL   LIG    1        5.978   2.154  -3.155  0.00  0.00    -0.070 Cl
ATOM     29  C   LIG    1        4.413   4.833  -0.640  0.00  0.00    +0.050 A 
ENDBRANCH  22  23
ENDBRANCH   1  22
TORSDOF 7
