REMARK  Name = ZINCqH0000002y49.0
REMARK                            x       y       z     vdW  Elec       q    Type
REMARK                         _______ _______ _______ _____ _____    ______ ____
ROOT
ATOM      1  N   LIG    1        0.077  -1.837   5.246  0.00  0.00    -0.360 N 
ATOM      2  N   LIG    1        0.060  -1.486   4.015  0.00  0.00    -0.190 NA
ATOM      3  C   LIG    1        0.062  -2.326   3.009  0.00  0.00    +0.050 A 
ATOM      4  C   LIG    1        0.078  -3.772   3.280  0.00  0.00    -0.030 A 
ATOM      5  C   LIG    1        0.075  -4.728   2.270  0.00  0.00    +0.070 A 
ATOM      6  C   LIG    1        0.091  -6.066   2.604  0.00  0.00    +0.050 A 
ATOM      7  C   LIG    1        0.109  -6.466   3.933  0.00  0.00    +0.030 A 
ATOM      8  C   LIG    1        0.125  -5.535   4.950  0.00  0.00    +0.090 A 
ATOM      9  C   LIG    1        0.103  -4.180   4.634  0.00  0.00    -0.140 A 
ATOM     10  C   LIG    1        0.099  -3.122   5.654  0.00  0.00    +0.520 A 
ATOM     11  O   LIG    1        0.115  -3.400   6.839  0.00  0.00    -0.500 OA
ENDROOT
BRANCH   3  12
ATOM     12  C   LIG    1        0.042  -1.826   1.619  0.00  0.00    +0.600 C 
ATOM     13  N   LIG    1        0.022  -0.500   1.381  0.00  0.00    -0.710 N 
ATOM     14  H   LIG    1        0.020   0.127   2.121  0.00  0.00    +0.410 HD
ATOM     15  O   LIG    1        0.044  -2.611   0.691  0.00  0.00    -0.520 OA
BRANCH  13  16
ATOM     16  C   LIG    1        0.002  -0.004   0.002  0.00  0.00    +0.340 C 
BRANCH  16  17
ATOM     17  C   LIG    1       -0.018   1.503   0.010  0.00  0.00    -0.100 A 
ATOM     18  C   LIG    1       -1.225   2.177   0.020  0.00  0.00    +0.040 A 
ATOM     19  C   LIG    1       -1.244   3.560   0.033  0.00  0.00    +0.030 A 
ATOM     20  C   LIG    1       -0.058   4.268   0.025  0.00  0.00    +0.040 A 
ATOM     21  C   LIG    1        1.150   3.593   0.010  0.00  0.00    -0.040 A 
ATOM     22 CL   LIG    1        2.642   4.482   0.002  0.00  0.00    -0.060 Cl
ATOM     23  C   LIG    1        1.169   2.210   0.003  0.00  0.00    +0.050 A 
ENDBRANCH  16  17
ENDBRANCH  13  16
ENDBRANCH   3  12
BRANCH   1  24
ATOM     24  C   LIG    1        0.072  -0.786   6.266  0.00  0.00    +0.320 C 
BRANCH  24  25
ATOM     25  C   LIG    1        1.513  -0.400   6.608  0.00  0.00    +0.000 C 
BRANCH  25  27
ATOM     26  C   LIG    1        2.949   1.083   8.015  0.00  0.00    +0.010 C 
ATOM     27  C   LIG    1        1.508   0.698   7.673  0.00  0.00    +0.020 C 
ENDBRANCH  25  27
ENDBRANCH  24  25
ENDBRANCH   1  24
TORSDOF 6
