REMARK  Name = ZINCrH000004ljQ5.0
REMARK                            x       y       z     vdW  Elec       q    Type
REMARK                         _______ _______ _______ _____ _____    ______ ____
ROOT
ATOM      1  C   LIG    1       -1.236   2.001   0.396  0.00  0.00    -0.060 A 
ATOM      2  C   LIG    1       -2.459   1.436   0.685  0.00  0.00    +0.060 A 
ATOM      3  C   LIG    1       -3.372   2.488   0.807  0.00  0.00    +0.000 A 
ATOM      4  C   LIG    1       -2.683   3.645   0.581  0.00  0.00    +0.030 A 
ATOM      5  O   LIG    1       -1.398   3.340   0.334  0.00  0.00    -0.150 OA
ENDROOT
BRANCH   4   6
ATOM      6  C   LIG    1       -3.255   5.007   0.604  0.00  0.00    +0.040 A 
ATOM      7  C   LIG    1       -4.613   5.192   0.867  0.00  0.00    +0.060 A 
ATOM      8  C   LIG    1       -5.140   6.466   0.892  0.00  0.00    +0.110 A 
ATOM      9  C   LIG    1       -4.328   7.559   0.645  0.00  0.00    -0.040 A 
ATOM     10  C   LIG    1       -2.982   7.382   0.378  0.00  0.00    +0.110 A 
ATOM     11  C   LIG    1       -2.441   6.114   0.356  0.00  0.00    +0.050 A 
BRANCH   9  12
ATOM     12  N   LIG    1       -4.902   8.924   0.667  0.00  0.00    +0.020 N 
ATOM     13  O   LIG    1       -6.086   9.082   0.901  0.00  0.00    -0.150 OA
ATOM     14  O   LIG    1       -4.189   9.887   0.450  0.00  0.00    -0.150 OA
ENDBRANCH   9  12
ENDBRANCH   4   6
BRANCH   1  16
ATOM     15  N   LIG    1        1.123   1.939  -0.212  0.00  0.00    -0.590 N 
ATOM     16  C   LIG    1        0.019   1.275   0.185  0.00  0.00    +0.600 C 
ATOM     17  O   LIG    1        0.064   0.072   0.365  0.00  0.00    -0.500 OA
BRANCH  15  18
ATOM     18  C   LIG    1        1.042   3.365  -0.540  0.00  0.00    +0.310 C 
BRANCH  18  19
ATOM     19  C   LIG    1        1.208   4.192   0.736  0.00  0.00    +0.160 C 
BRANCH  19  21
ATOM     20  C   LIG    1        2.784   4.731   2.459  0.00  0.00    +0.200 C 
ATOM     21  O   LIG    1        2.523   3.999   1.260  0.00  0.00    -0.390 OA
ENDBRANCH  19  21
ENDBRANCH  18  19
ENDBRANCH  15  18
BRANCH  15  22
ATOM     22  C   LIG    1        2.403   1.235  -0.317  0.00  0.00    +0.420 C 
BRANCH  22  23
ATOM     23  C   LIG    1        2.552   0.666  -1.704  0.00  0.00    -0.040 A 
ATOM     24  C   LIG    1        3.106   1.294  -2.757  0.00  0.00    -0.040 A 
ATOM     25  C   LIG    1        3.040   0.399  -3.849  0.00  0.00    -0.070 A 
ATOM     26  C   LIG    1        2.443  -0.720  -3.401  0.00  0.00    +0.170 A 
ATOM     27  O   LIG    1        2.149  -0.552  -2.101  0.00  0.00    -0.160 OA
ENDBRANCH  22  23
ENDBRANCH  15  22
ENDBRANCH   1  16
TORSDOF 8
