REMARK  Name = ZINCrD000000D46f.0
REMARK                            x       y       z     vdW  Elec       q    Type
REMARK                         _______ _______ _______ _____ _____    ______ ____
ROOT
ATOM      1  O   LIG    1        3.040   2.747   1.282  0.00  0.00    -0.940 OA
ATOM      2  S   LIG    1        1.688   2.355   1.476  0.00  0.00    +2.710 S 
ATOM      3  O   LIG    1        0.655   3.270   1.817  0.00  0.00    -0.920 OA
ENDROOT
BRANCH   2   4
ATOM      4  C   LIG    1        1.702   1.128   2.741  0.00  0.00    -0.700 A 
ATOM      5  C   LIG    1        0.568   0.902   3.497  0.00  0.00    +0.200 A 
ATOM      6  C   LIG    1        0.578  -0.064   4.486  0.00  0.00    -0.010 A 
ATOM      7  C   LIG    1        1.725  -0.797   4.725  0.00  0.00    +0.180 A 
ATOM      8  C   LIG    1        2.862  -0.566   3.972  0.00  0.00    -0.700 A 
ATOM      9  C   LIG    1        2.850   0.396   2.981  0.00  0.00    +0.240 A 
BRANCH   8  10
ATOM     10  S   LIG    1        4.324  -1.500   4.277  0.00  0.00    +2.700 S 
ATOM     11  O   LIG    1        5.081  -1.464   3.075  0.00  0.00    -0.950 OA
ATOM     12  O   LIG    1        3.907  -2.709   4.897  0.00  0.00    -0.950 OA
BRANCH  10  13
ATOM     13  N   LIG    1        5.206  -0.674   5.410  0.00  0.00    -1.090 NA
ATOM     14  H   LIG    1        6.072  -0.305   5.176  0.00  0.00    +0.420 HD
BRANCH  13  15
ATOM     15  C   LIG    1        4.678  -0.502   6.766  0.00  0.00    +0.220 C 
ATOM     16  C   LIG    1        5.021   0.798   7.497  0.00  0.00    +0.020 C 
ATOM     17  C   LIG    1        5.681  -0.516   7.921  0.00  0.00    +0.030 C 
ENDBRANCH  13  15
ENDBRANCH  10  13
ENDBRANCH   8  10
ENDBRANCH   2   4
BRANCH   2  18
ATOM     18  N   LIG    1        1.211   1.611   0.076  0.00  0.00    -0.970 NA
ATOM     19  H   LIG    1        1.799   1.605  -0.695  0.00  0.00    +0.410 HD
BRANCH  18  20
ATOM     20  N   LIG    1       -0.012   1.005   0.008  0.00  0.00    -0.360 N 
ATOM     21  H   LIG    1        0.085   0.002  -0.053  0.00  0.00    +0.370 HD
BRANCH  20  22
ATOM     22  C   LIG    1       -0.758   1.502  -1.066  0.00  0.00    +0.110 A 
ATOM     23  C   LIG    1       -0.640   2.836  -1.438  0.00  0.00    -0.030 A 
ATOM     24  C   LIG    1       -1.375   3.323  -2.502  0.00  0.00    +0.090 A 
ATOM     25  C   LIG    1       -2.236   2.486  -3.190  0.00  0.00    -0.030 A 
ATOM     26  C   LIG    1       -2.360   1.159  -2.819  0.00  0.00    +0.090 A 
ATOM     27 CL   LIG    1       -3.163   3.103  -4.523  0.00  0.00    -0.040 Cl
ATOM     28 CL   LIG    1        0.435   3.887  -0.570  0.00  0.00    -0.020 Cl
ATOM     29  C   LIG    1       -1.623   0.665  -1.759  0.00  0.00    -0.050 A 
ATOM     30 CL   LIG    1       -1.779  -1.001  -1.295  0.00  0.00    -0.030 Cl
ENDBRANCH  20  22
ENDBRANCH  18  20
ENDBRANCH   2  18
TORSDOF 7
