REMARK  Name = ZINCrD000000CQHU.0
REMARK                            x       y       z     vdW  Elec       q    Type
REMARK                         _______ _______ _______ _____ _____    ______ ____
ROOT
ATOM      1  N   LIG    1        1.143   1.901   0.001  0.00  0.00    -0.680 N 
ATOM      2  H   LIG    1        1.123   2.870   0.053  0.00  0.00    +0.410 HD
ATOM      3  C   LIG    1       -0.003   1.210  -0.157  0.00  0.00    +0.720 C 
ATOM      4  N   LIG    1       -1.186   1.856  -0.142  0.00  0.00    -0.640 N 
ATOM      5  H   LIG    1       -1.213   2.817  -0.014  0.00  0.00    +0.410 HD
ATOM      6  O   LIG    1        0.031   0.006  -0.318  0.00  0.00    -0.540 OA
ENDROOT
BRANCH   1  11
ATOM      7  C   LIG    1        4.723   1.124  -0.326  0.00  0.00    -0.060 A 
ATOM      8  C   LIG    1        4.775  -0.122   0.270  0.00  0.00    -0.010 A 
ATOM      9  C   LIG    1        3.625  -0.698   0.778  0.00  0.00    +0.040 A 
ATOM     10  C   LIG    1        2.421  -0.028   0.696  0.00  0.00    +0.020 A 
ATOM     11  C   LIG    1        2.363   1.222   0.092  0.00  0.00    +0.170 A 
ATOM     12  C   LIG    1        3.520   1.797  -0.417  0.00  0.00    +0.000 A 
BRANCH   7  16
ATOM     13  O   LIG    1        9.076   0.667  -2.300  0.00  0.00    -0.530 OA
ATOM     14  C   LIG    1        8.172   1.017  -1.572  0.00  0.00    +0.520 C 
ATOM     15  C   LIG    1        6.702   0.778  -1.840  0.00  0.00    +0.070 C 
ATOM     16  C   LIG    1        5.978   1.748  -0.878  0.00  0.00    +0.040 C 
ATOM     17  C   LIG    1        7.035   1.937   0.233  0.00  0.00    +0.270 C 
ATOM     18  N   LIG    1        8.329   1.672  -0.409  0.00  0.00    -0.730 N 
ATOM     19  H   LIG    1        9.186   1.935  -0.040  0.00  0.00    +0.410 HD
ENDBRANCH   7  16
ENDBRANCH   1  11
BRANCH   4  20
ATOM     20  C   LIG    1       -2.378   1.138  -0.312  0.00  0.00    +0.320 A 
ATOM     21  N   LIG    1       -3.587   1.648  -0.318  0.00  0.00    -0.310 NA
ATOM     22  N   LIG    1       -4.507   0.610  -0.515  0.00  0.00    -0.460 N 
ATOM     23  H   LIG    1       -5.471   0.703  -0.562  0.00  0.00    +0.440 HD
ATOM     24  C   LIG    1       -3.805  -0.553  -0.629  0.00  0.00    +0.140 A 
ATOM     25  C   LIG    1       -2.480  -0.245  -0.512  0.00  0.00    -0.060 A 
BRANCH  24  26
ATOM     26  C   LIG    1       -4.375  -1.901  -0.846  0.00  0.00    -0.040 A 
ATOM     27  C   LIG    1       -3.533  -3.009  -0.950  0.00  0.00    +0.040 A 
ATOM     28  C   LIG    1       -4.070  -4.264  -1.148  0.00  0.00    +0.010 A 
ATOM     29  C   LIG    1       -5.440  -4.424  -1.254  0.00  0.00    +0.020 A 
ATOM     30  C   LIG    1       -6.280  -3.329  -1.157  0.00  0.00    +0.010 A 
ATOM     31  C   LIG    1       -5.755  -2.070  -0.954  0.00  0.00    +0.010 A 
ENDBRANCH  24  26
ENDBRANCH   4  20
TORSDOF 4
