REMARK  Name = ZINCrD00000i7a9t.0
REMARK                            x       y       z     vdW  Elec       q    Type
REMARK                         _______ _______ _______ _____ _____    ______ ____
ROOT
ATOM      1  N   LIG    1       -3.568   2.283   3.676  0.00  0.00    -0.510 N 
ATOM      2  H   LIG    1       -3.711   1.692   2.871  0.00  0.00    +0.430 HD
ATOM      3  H   LIG    1       -4.007   3.178   3.519  0.00  0.00    +0.430 HD
ENDROOT
BRANCH   1   4
ATOM      4  C   LIG    1       -2.128   2.475   3.892  0.00  0.00    +0.340 C 
BRANCH   4  10
ATOM      5  C   LIG    1       -1.410   4.457   2.543  0.00  0.00    +0.030 A 
ATOM      6  C   LIG    1       -0.846   5.018   1.413  0.00  0.00    -0.040 A 
ATOM      7  C   LIG    1       -0.380   4.202   0.391  0.00  0.00    +0.210 A 
ATOM      8  C   LIG    1       -0.476   2.825   0.507  0.00  0.00    -0.160 A 
ATOM      9  C   LIG    1       -1.048   2.264   1.639  0.00  0.00    +0.200 A 
ATOM     10  C   LIG    1       -1.512   3.084   2.658  0.00  0.00    -0.240 A 
BRANCH   5  12
ATOM     11  C   LIG    1       -0.818   5.522   4.703  0.00  0.00    +0.050 C 
ATOM     12  C   LIG    1       -1.915   5.345   3.651  0.00  0.00    +0.060 C 
ENDBRANCH   5  12
BRANCH   9  13
ATOM     13  O   LIG    1       -1.148   0.914   1.753  0.00  0.00    -0.320 OA
ATOM     14  C   LIG    1       -0.649   0.132   0.666  0.00  0.00    +0.250 C 
ENDBRANCH   9  13
BRANCH   7  15
ATOM     15  O   LIG    1        0.175   4.755  -0.720  0.00  0.00    -0.300 OA
ATOM     16  C   LIG    1        0.633   3.855  -1.731  0.00  0.00    +0.250 C 
ENDBRANCH   7  15
ENDBRANCH   4  10
ENDBRANCH   1   4
BRANCH   1  17
ATOM     17  C   LIG    1       -4.160   1.647   4.861  0.00  0.00    +0.400 C 
BRANCH  17  18
ATOM     18  C   LIG    1       -5.637   1.450   4.640  0.00  0.00    -0.080 A 
ATOM     19  C   LIG    1       -6.191   0.361   4.090  0.00  0.00    +0.070 A 
ATOM     20  C   LIG    1       -7.638   0.603   4.078  0.00  0.00    -0.210 A 
ATOM     21  C   LIG    1       -8.745  -0.122   3.650  0.00  0.00    +0.170 A 
ATOM     22  C   LIG    1      -10.008   0.462   3.802  0.00  0.00    -0.190 A 
ATOM     23  C   LIG    1      -10.102   1.738   4.372  0.00  0.00    +0.390 A 
ATOM     24  N   LIG    1       -9.033   2.392   4.764  0.00  0.00    -0.490 NA
ATOM     25  C   LIG    1       -7.814   1.882   4.642  0.00  0.00    +0.270 A 
ATOM     26  O   LIG    1       -6.589   2.344   4.961  0.00  0.00    -0.180 OA
BRANCH  22  27
ATOM     27  C   LIG    1      -11.221  -0.255   3.368  0.00  0.00    +0.530 C 
ATOM     28  O   LIG    1      -12.320   0.264   3.506  0.00  0.00    -0.670 OA
ATOM     29  O   LIG    1      -11.128  -1.369   2.872  0.00  0.00    -0.670 OA
ENDBRANCH  22  27
ENDBRANCH  17  18
ENDBRANCH   1  17
TORSDOF 8
