REMARK  Name = ZINCrg000000s9Vf.0
REMARK                            x       y       z     vdW  Elec       q    Type
REMARK                         _______ _______ _______ _____ _____    ______ ____
ROOT
ATOM      1  C   LIG    1        5.453   1.886   0.841  0.00  0.00    +0.530 C 
ATOM      2  N   LIG    1        6.748   1.826   0.473  0.00  0.00    -0.610 N 
ATOM      3  C   LIG    1        7.320   0.578  -0.052  0.00  0.00    +0.270 C 
ATOM      4  C   LIG    1        8.565   0.222   0.759  0.00  0.00    +0.020 C 
ATOM      5  C   LIG    1        9.532   1.408   0.752  0.00  0.00    +0.020 C 
ATOM      6  C   LIG    1        8.860   2.619   1.403  0.00  0.00    +0.000 C 
ATOM      7  C   LIG    1        7.617   3.004   0.595  0.00  0.00    +0.300 C 
ATOM      8  O   LIG    1        4.994   2.920   1.277  0.00  0.00    -0.530 OA
ENDROOT
BRANCH   1  11
ATOM      9  N   LIG    1        2.402   1.379  -0.014  0.00  0.00    -0.570 N 
ATOM     10  C   LIG    1        3.137   0.970   1.188  0.00  0.00    +0.310 C 
ATOM     11  C   LIG    1        4.575   0.668   0.710  0.00  0.00    +0.000 C 
ATOM     12  C   LIG    1        4.343   0.310  -0.777  0.00  0.00    +0.090 C 
ATOM     13  C   LIG    1        3.051   1.012  -1.132  0.00  0.00    +0.520 C 
ATOM     14  O   LIG    1        2.659   1.215  -2.262  0.00  0.00    -0.510 OA
BRANCH   9  19
ATOM     15  C   LIG    1       -2.557   4.140   0.048  0.00  0.00    +0.100 C 
ATOM     16  C   LIG    1       -1.241   3.406   0.032  0.00  0.00    -0.050 A 
ATOM     17  C   LIG    1       -0.055   4.116   0.025  0.00  0.00    +0.020 A 
ATOM     18  C   LIG    1        1.154   3.447   0.010  0.00  0.00    +0.070 A 
ATOM     19  C   LIG    1        1.178   2.060   0.002  0.00  0.00    +0.100 A 
ATOM     20  C   LIG    1       -0.016   1.347   0.009  0.00  0.00    +0.110 A 
ATOM     21  F   LIG    1        0.002  -0.004   0.002  0.00  0.00    -0.130 F 
ATOM     22  C   LIG    1       -1.222   2.023   0.019  0.00  0.00    -0.010 A 
ENDBRANCH   9  19
ENDBRANCH   1  11
BRANCH   6  23
ATOM     23  C   LIG    1        9.838   3.795   1.427  0.00  0.00    -0.340 C 
BRANCH  23  24
ATOM     24  S   LIG    1       11.241   3.393   2.505  0.00  0.00    +2.610 S 
ATOM     25  O   LIG    1       12.032   2.362   1.930  0.00  0.00    -0.960 OA
ATOM     26  O   LIG    1       10.824   3.327   3.862  0.00  0.00    -0.960 OA
BRANCH  24  27
ATOM     27  N   LIG    1       12.210   4.735   2.440  0.00  0.00    -1.250 NA
ATOM     28  H   LIG    1       13.037   4.760   2.945  0.00  0.00    +0.420 HD
ATOM     29  H   LIG    1       11.949   5.495   1.897  0.00  0.00    +0.410 HD
ENDBRANCH  24  27
ENDBRANCH  23  24
ENDBRANCH   6  23
TORSDOF 5
