REMARK  Name = ZINCvU00000006RQ.0
REMARK                            x       y       z     vdW  Elec       q    Type
REMARK                         _______ _______ _______ _____ _____    ______ ____
ROOT
ATOM      1  C   LIG    1       -0.590  -2.680  -0.168  0.00  0.00    +0.110 C 
ENDROOT
BRANCH   1   2
ATOM      2  C   LIG    1       -1.610  -3.789  -0.169  0.00  0.00    +0.530 C 
ATOM      3  N   LIG    1       -1.214  -5.068  -0.013  0.00  0.00    -0.670 N 
ATOM      4  H   LIG    1       -0.269  -5.283   0.023  0.00  0.00    +0.420 HD
ATOM      5  O   LIG    1       -2.786  -3.531  -0.311  0.00  0.00    -0.500 OA
BRANCH   3   6
ATOM      6  C   LIG    1       -2.168  -6.087   0.097  0.00  0.00    +0.140 A 
ATOM      7  C   LIG    1       -1.897  -7.350  -0.415  0.00  0.00    +0.000 A 
ATOM      8  C   LIG    1       -2.836  -8.359  -0.307  0.00  0.00    +0.030 A 
ATOM      9  C   LIG    1       -4.048  -8.117   0.308  0.00  0.00    +0.010 A 
ATOM     10  C   LIG    1       -4.328  -6.853   0.823  0.00  0.00    -0.000 A 
ATOM     11  C   LIG    1       -3.381  -5.837   0.720  0.00  0.00    +0.060 A 
BRANCH  10  12
ATOM     12  C   LIG    1       -5.630  -6.591   1.485  0.00  0.00    +0.110 A 
ATOM     13  C   LIG    1       -6.548  -7.554   1.705  0.00  0.00    -0.070 A 
ATOM     14  S   LIG    1       -7.928  -6.812   2.510  0.00  0.00    +0.130 S 
ATOM     15  C   LIG    1       -7.151  -5.290   2.468  0.00  0.00    +0.050 A 
ATOM     16  C   LIG    1       -7.736  -4.012   3.009  0.00  0.00    +0.180 C 
ATOM     17  N   LIG    1       -5.995  -5.389   1.908  0.00  0.00    -0.460 NA
ENDBRANCH  10  12
ENDBRANCH   3   6
ENDBRANCH   1   2
BRANCH   1  18
ATOM     18  S   LIG    1       -1.426  -1.091  -0.397  0.00  0.00    +0.100 S 
BRANCH  18  24
ATOM     19  N   LIG    1       -0.066   1.356  -0.483  0.00  0.00    -0.410 N 
ATOM     20  C   LIG    1        1.239   1.762  -0.389  0.00  0.00    +0.200 A 
ATOM     21  N   LIG    1        1.966   0.694  -0.219  0.00  0.00    -0.280 NA
ATOM     22  N   LIG    1        1.218  -0.351  -0.199  0.00  0.00    -0.290 NA
ATOM     23  C   LIG    1        1.740   3.181  -0.468  0.00  0.00    +0.200 C 
ATOM     24  C   LIG    1       -0.038  -0.006  -0.356  0.00  0.00    +0.150 A 
BRANCH  19  30
ATOM     25  C   LIG    1       -3.733   4.029   1.413  0.00  0.00    +0.100 C 
ATOM     26  C   LIG    1       -2.990   3.475   0.225  0.00  0.00    -0.080 A 
ATOM     27  C   LIG    1       -3.420   3.765  -1.056  0.00  0.00    +0.040 A 
ATOM     28  C   LIG    1       -2.740   3.258  -2.148  0.00  0.00    +0.030 A 
ATOM     29  C   LIG    1       -1.626   2.464  -1.962  0.00  0.00    -0.060 A 
ATOM     30  C   LIG    1       -1.194   2.166  -0.676  0.00  0.00    +0.100 A 
ATOM     31  C   LIG    1       -0.882   1.917  -3.152  0.00  0.00    +0.100 C 
ATOM     32  C   LIG    1       -1.879   2.677   0.418  0.00  0.00    +0.040 A 
ENDBRANCH  19  30
ENDBRANCH  18  24
ENDBRANCH   1  18
TORSDOF 6
