REMARK  Name = ZINCrD000000CqhB.0
REMARK                            x       y       z     vdW  Elec       q    Type
REMARK                         _______ _______ _______ _____ _____    ______ ____
ROOT
ATOM      1  C   LIG    1       -0.019   1.541   0.011  0.00  0.00    +0.030 C 
ATOM      2  C   LIG    1        1.490   1.876  -0.002  0.00  0.00    +0.090 C 
ATOM      3  C   LIG    1        2.147   0.654   0.600  0.00  0.00    +0.520 C 
ATOM      4  N   LIG    1        1.290  -0.381   0.595  0.00  0.00    -0.610 N 
ATOM      5  O   LIG    1        3.282   0.615   1.027  0.00  0.00    -0.520 OA
ATOM      6  C   LIG    1        0.002  -0.004   0.002  0.00  0.00    +0.300 C 
ENDROOT
BRANCH   1   8
ATOM      7  O   LIG    1       -1.141   1.315  -2.049  0.00  0.00    -0.490 OA
ATOM      8  C   LIG    1       -0.701   2.078  -1.221  0.00  0.00    +0.480 C 
BRANCH   8   9
ATOM      9  O   LIG    1       -0.820   3.403  -1.399  0.00  0.00    -0.350 OA
BRANCH   9  10
ATOM     10  C   LIG    1       -1.489   3.848  -2.608  0.00  0.00    +0.280 C 
BRANCH  10  11
ATOM     11  C   LIG    1       -1.528   5.354  -2.635  0.00  0.00    -0.050 A 
ATOM     12  C   LIG    1       -2.599   6.028  -2.078  0.00  0.00    +0.060 A 
ATOM     13  C   LIG    1       -2.633   7.410  -2.098  0.00  0.00    +0.100 A 
ATOM     14  C   LIG    1       -1.601   8.118  -2.684  0.00  0.00    -0.030 A 
ATOM     15  C   LIG    1       -0.532   7.444  -3.245  0.00  0.00    +0.100 A 
ATOM     16  C   LIG    1       -0.496   6.063  -3.221  0.00  0.00    +0.060 A 
BRANCH  14  17
ATOM     17  N   LIG    1       -1.640   9.597  -2.711  0.00  0.00    +0.020 N 
ATOM     18  O   LIG    1       -2.581  10.191  -2.216  0.00  0.00    -0.150 OA
ATOM     19  O   LIG    1       -0.731  10.221  -3.227  0.00  0.00    -0.150 OA
ENDBRANCH  14  17
ENDBRANCH  10  11
ENDBRANCH   9  10
ENDBRANCH   8   9
ENDBRANCH   1   8
BRANCH   4  20
ATOM     20  C   LIG    1        1.603  -1.716   1.113  0.00  0.00    +0.370 C 
BRANCH  20  21
ATOM     21  C   LIG    1        2.186  -2.560   0.010  0.00  0.00    -0.110 A 
ATOM     22  C   LIG    1        3.542  -2.825  -0.014  0.00  0.00    +0.060 A 
ATOM     23  C   LIG    1        4.077  -3.600  -1.027  0.00  0.00    +0.010 A 
ATOM     24  C   LIG    1        3.257  -4.109  -2.016  0.00  0.00    +0.030 A 
ATOM     25  C   LIG    1        1.900  -3.843  -1.993  0.00  0.00    +0.030 A 
ATOM     26  C   LIG    1        1.363  -3.074  -0.977  0.00  0.00    -0.020 A 
ATOM     27 CL   LIG    1       -0.341  -2.747  -0.943  0.00  0.00    -0.060 Cl
ENDBRANCH  20  21
ENDBRANCH   4  20
TORSDOF 7
