REMARK  Name = ZINCrD000000fL5X.0
REMARK                            x       y       z     vdW  Elec       q    Type
REMARK                         _______ _______ _______ _____ _____    ______ ____
ROOT
ATOM      1  N   LIG    1        1.097   1.877  -0.018  0.00  0.00    -0.450 N 
ATOM      2  C   LIG    1       -0.009   1.060  -0.014  0.00  0.00    +0.490 A 
ATOM      3  N   LIG    1       -1.072   1.797  -0.011  0.00  0.00    -0.260 NA
ATOM      4  N   LIG    1       -0.672   3.141  -0.004  0.00  0.00    -0.370 N 
ATOM      5  C   LIG    1        0.677   3.158  -0.012  0.00  0.00    +0.460 A 
ATOM      6  S   LIG    1        1.673   4.551  -0.013  0.00  0.00    -0.560 S 
ENDROOT
BRANCH   1  11
ATOM      7  C   LIG    1        4.269   0.334   1.041  0.00  0.00    +0.160 A 
ATOM      8  C   LIG    1        5.073   0.611  -0.057  0.00  0.00    +0.040 A 
ATOM      9  C   LIG    1        4.557   1.304  -1.135  0.00  0.00    +0.060 A 
ATOM     10  C   LIG    1        3.240   1.720  -1.126  0.00  0.00    +0.040 A 
ATOM     11  C   LIG    1        2.432   1.451  -0.029  0.00  0.00    +0.130 A 
ATOM     12  C   LIG    1        2.947   0.755   1.055  0.00  0.00    +0.000 A 
BRANCH   7  15
ATOM     13  C   LIG    1        6.675  -1.034   3.592  0.00  0.00    +0.110 C 
ATOM     14  C   LIG    1        6.078  -0.190   2.495  0.00  0.00    +0.510 C 
ATOM     15  N   LIG    1        4.792  -0.369   2.132  0.00  0.00    -0.680 N 
ATOM     16  H   LIG    1        4.230  -0.985   2.627  0.00  0.00    +0.410 HD
ATOM     17  O   LIG    1        6.754   0.649   1.939  0.00  0.00    -0.520 OA
ENDBRANCH   7  15
ENDBRANCH   1  11
BRANCH   4  18
ATOM     18  C   LIG    1       -1.555   4.310   0.004  0.00  0.00    +0.520 C 
BRANCH  18  19
ATOM     19  N   LIG    1       -2.144   4.487  -1.329  0.00  0.00    -0.540 NA
ATOM     20  C   LIG    1       -3.422   5.213  -1.249  0.00  0.00    +0.240 C 
ATOM     21  C   LIG    1       -3.200   6.499  -0.452  0.00  0.00    +0.050 C 
ATOM     22  C   LIG    1       -2.011   7.245  -1.000  0.00  0.00    -0.090 A 
ATOM     23  C   LIG    1       -1.855   8.580  -0.660  0.00  0.00    +0.000 A 
ATOM     24  C   LIG    1       -0.778   9.300  -1.138  0.00  0.00    +0.000 A 
ATOM     25  C   LIG    1        0.149   8.687  -1.959  0.00  0.00    +0.000 A 
ATOM     26  C   LIG    1       -0.006   7.358  -2.299  0.00  0.00    +0.030 A 
ATOM     27  C   LIG    1       -1.089   6.634  -1.821  0.00  0.00    -0.100 A 
ATOM     28  C   LIG    1       -1.218   5.188  -2.224  0.00  0.00    +0.270 C 
ENDBRANCH  18  19
ENDBRANCH   4  18
TORSDOF 4
