REMARK  Name = ZINCqH00000027UM.0
REMARK                            x       y       z     vdW  Elec       q    Type
REMARK                         _______ _______ _______ _____ _____    ______ ____
ROOT
ATOM      1  C   LIG    1        0.011  -0.019   0.010  0.00  0.00    -0.160 A 
ATOM      2  C   LIG    1        1.215  -0.688  -0.220  0.00  0.00    +0.080 A 
ATOM      3  C   LIG    1        2.402   0.014  -0.219  0.00  0.00    -0.030 A 
ATOM      4  C   LIG    1        2.406   1.380   0.010  0.00  0.00    +0.070 A 
ATOM      5  C   LIG    1        1.222   2.054   0.238  0.00  0.00    -0.070 A 
ATOM      6  C   LIG    1        0.019   1.364   0.240  0.00  0.00    +0.180 A 
ENDROOT
BRANCH   1  13
ATOM      7  C   LIG    1       -3.374  -1.815  -4.904  0.00  0.00    +0.020 C 
ATOM      8  C   LIG    1       -2.670  -2.155  -3.589  0.00  0.00    -0.020 C 
ATOM      9  C   LIG    1       -3.596  -1.828  -2.415  0.00  0.00    +0.020 C 
ATOM     10  C   LIG    1       -2.901  -2.202  -1.102  0.00  0.00    +0.270 C 
ATOM     11  N   LIG    1       -1.597  -1.528  -1.048  0.00  0.00    -0.610 N 
ATOM     12  C   LIG    1       -0.667  -1.697  -2.172  0.00  0.00    +0.260 C 
ATOM     13  C   LIG    1       -1.263  -0.763   0.011  0.00  0.00    +0.570 C 
ATOM     14  O   LIG    1       -2.011  -0.687   0.966  0.00  0.00    -0.530 OA
ATOM     15  C   LIG    1       -1.384  -1.333  -3.471  0.00  0.00    +0.020 C 
ENDBRANCH   1  13
BRANCH   6  16
ATOM     16  O   LIG    1       -1.145   2.025   0.459  0.00  0.00    -0.300 OA
BRANCH  16  17
ATOM     17  C   LIG    1       -1.058   3.433   0.686  0.00  0.00    +0.330 C 
BRANCH  17  18
ATOM     18  C   LIG    1       -2.440   3.993   0.908  0.00  0.00    +0.050 A 
ATOM     19  C   LIG    1       -3.589   3.283   0.891  0.00  0.00    +0.130 A 
ATOM     20  N   LIG    1       -4.610   4.160   1.137  0.00  0.00    -0.360 N 
ATOM     21  C   LIG    1       -5.962   4.000   1.235  0.00  0.00    +0.220 A 
ATOM     22  C   LIG    1       -6.763   5.057   1.485  0.00  0.00    +0.010 A 
ATOM     23  C   LIG    1       -6.213   6.340   1.648  0.00  0.00    +0.050 A 
ATOM     24  C   LIG    1       -4.867   6.513   1.553  0.00  0.00    +0.070 A 
ATOM     25  C   LIG    1       -4.045   5.399   1.291  0.00  0.00    +0.230 A 
ATOM     26  N   LIG    1       -2.733   5.273   1.149  0.00  0.00    -0.480 NA
ENDBRANCH  17  18
ENDBRANCH  16  17
ENDBRANCH   6  16
TORSDOF 4
