REMARK  Name = ZINCnE000001TCsS.0
REMARK                            x       y       z     vdW  Elec       q    Type
REMARK                         _______ _______ _______ _____ _____    ______ ____
ROOT
ATOM      1  C   LIG    1       -1.306   1.959   0.648  0.00  0.00    -0.020 A 
ATOM      2  C   LIG    1       -1.372   2.901   1.673  0.00  0.00    +0.050 A 
ATOM      3  C   LIG    1       -2.577   3.500   1.979  0.00  0.00    +0.000 A 
ATOM      4  C   LIG    1       -3.718   3.168   1.270  0.00  0.00    +0.020 A 
ATOM      5  C   LIG    1       -3.658   2.234   0.251  0.00  0.00    -0.100 A 
ATOM      6  C   LIG    1       -2.458   1.632  -0.067  0.00  0.00    +0.040 A 
ENDROOT
BRANCH   1  13
ATOM      7  C   LIG    1        1.104   2.096  -0.023  0.00  0.00    -0.070 A 
ATOM      8  C   LIG    1        2.312   1.473  -0.340  0.00  0.00    +0.000 A 
ATOM      9  C   LIG    1        2.402   0.095  -0.321  0.00  0.00    +0.090 A 
ATOM     10  C   LIG    1        1.298  -0.676   0.012  0.00  0.00    -0.040 A 
ATOM     11  C   LIG    1        0.096  -0.075   0.329  0.00  0.00    +0.040 A 
ATOM     12  F   LIG    1        3.573  -0.506  -0.628  0.00  0.00    -0.150 F 
ATOM     13  C   LIG    1       -0.015   1.312   0.315  0.00  0.00    -0.050 A 
BRANCH   7  15
ATOM     14  O   LIG    1        0.133   4.109  -0.712  0.00  0.00    -0.660 OA
ATOM     15  C   LIG    1        1.000   3.566  -0.042  0.00  0.00    +0.520 C 
ATOM     16  O   LIG    1        1.782   4.242   0.612  0.00  0.00    -0.680 OA
ENDBRANCH   7  15
ENDBRANCH   1  13
BRANCH   5  17
ATOM     17  C   LIG    1       -4.905   1.878  -0.517  0.00  0.00    +0.230 C 
BRANCH  17  18
ATOM     18  O   LIG    1       -5.034   2.747  -1.644  0.00  0.00    -0.360 OA
BRANCH  18  19
ATOM     19  C   LIG    1       -6.191   2.493  -2.444  0.00  0.00    +0.130 C 
ATOM     20  C   LIG    1       -6.683   3.795  -3.114  0.00  0.00    +0.010 C 
ATOM     21  C   LIG    1       -6.566   3.506  -4.627  0.00  0.00    +0.210 C 
ATOM     22  O   LIG    1       -6.626   2.067  -4.733  0.00  0.00    -0.380 OA
ATOM     23  C   LIG    1       -5.836   1.571  -3.631  0.00  0.00    +0.180 C 
ENDBRANCH  18  19
ENDBRANCH  17  18
ENDBRANCH   5  17
TORSDOF 5
