REMARK  Name = ZINCqH00000397ER.0
REMARK                            x       y       z     vdW  Elec       q    Type
REMARK                         _______ _______ _______ _____ _____    ______ ____
ROOT
ATOM      1  N   LIG    1       -0.524   1.433  -3.689  0.00  0.00    -0.630 N 
ATOM      2  H   LIG    1       -1.321   1.980  -3.768  0.00  0.00    +0.420 HD
ATOM      3  C   LIG    1       -0.047   1.107  -2.471  0.00  0.00    +0.510 C 
ATOM      4  O   LIG    1        0.949   0.422  -2.373  0.00  0.00    -0.500 OA
ENDROOT
BRANCH   1   6
ATOM      5  C   LIG    1       -0.277   1.254  -6.108  0.00  0.00    -0.210 A 
ATOM      6  C   LIG    1        0.125   0.985  -4.830  0.00  0.00    +0.040 A 
ATOM      7  S   LIG    1        1.528   0.021  -4.830  0.00  0.00    +0.300 S 
ATOM      8  C   LIG    1        1.596  -0.028  -6.584  0.00  0.00    -0.250 A 
ATOM      9  C   LIG    1        2.654  -0.756  -7.392  0.00  0.00    +0.120 C 
ATOM     10  C   LIG    1        2.152  -0.915  -8.829  0.00  0.00    +0.020 C 
ATOM     11  C   LIG    1        1.661   0.442  -9.341  0.00  0.00    +0.020 C 
ATOM     12  C   LIG    1        0.366   0.814  -8.616  0.00  0.00    +0.100 C 
ATOM     13  C   LIG    1        0.584   0.666  -7.118  0.00  0.00    -0.050 A 
BRANCH   5  17
ATOM     14  N   LIG    1       -2.662   1.463  -6.570  0.00  0.00    -0.850 N 
ATOM     15  H   LIG    1       -3.444   1.995  -6.782  0.00  0.00    +0.400 HD
ATOM     16  H   LIG    1       -2.743   0.503  -6.461  0.00  0.00    +0.400 HD
ATOM     17  C   LIG    1       -1.461   2.058  -6.428  0.00  0.00    +0.590 C 
ATOM     18  O   LIG    1       -1.358   3.263  -6.565  0.00  0.00    -0.530 OA
ENDBRANCH   5  17
ENDBRANCH   1   6
BRANCH   3  19
ATOM     19  C   LIG    1       -0.753   1.593  -1.232  0.00  0.00    +0.070 C 
BRANCH  19  20
ATOM     20  C   LIG    1       -0.013   1.086   0.008  0.00  0.00    +0.130 C 
BRANCH  20  21
ATOM     21  C   LIG    1       -0.718   1.572   1.248  0.00  0.00    -0.180 A 
ATOM     22  C   LIG    1       -0.420   2.672   1.957  0.00  0.00    +0.230 A 
ATOM     23  N   LIG    1       -1.277   2.791   3.017  0.00  0.00    -0.590 N 
ATOM     24  H   LIG    1       -1.258   3.506   3.672  0.00  0.00    +0.420 HD
ATOM     25  C   LIG    1       -2.171   1.743   3.016  0.00  0.00    +0.090 A 
ATOM     26  C   LIG    1       -3.228   1.385   3.846  0.00  0.00    -0.010 A 
ATOM     27  C   LIG    1       -3.956   0.247   3.575  0.00  0.00    +0.030 A 
ATOM     28  C   LIG    1       -3.645  -0.548   2.480  0.00  0.00    -0.020 A 
ATOM     29  C   LIG    1       -2.610  -0.215   1.652  0.00  0.00    +0.050 A 
ATOM     30  C   LIG    1       -1.863   0.937   1.904  0.00  0.00    -0.100 A 
ENDBRANCH  20  21
ENDBRANCH  19  20
ENDBRANCH   3  19
TORSDOF 5
