REMARK  Name = ZINCrH000004jo7U.1
REMARK                            x       y       z     vdW  Elec       q    Type
REMARK                         _______ _______ _______ _____ _____    ______ ____
ROOT
ATOM      1  N   LIG    1        1.131   7.304  -8.288  0.00  0.00    -0.510 N 
ATOM      2  C   LIG    1        1.175   7.574  -6.965  0.00  0.00    +0.550 A 
ATOM      3  C   LIG    1        0.303   6.794  -6.064  0.00  0.00    -0.160 A 
ATOM      4  C   LIG    1        0.293   7.015  -4.689  0.00  0.00    +0.140 A 
ATOM      5  C   LIG    1       -0.539   6.269  -3.883  0.00  0.00    +0.030 A 
ATOM      6  C   LIG    1       -1.362   5.286  -4.439  0.00  0.00    -0.060 A 
ATOM      7  C   LIG    1       -1.357   5.059  -5.814  0.00  0.00    +0.070 A 
ATOM      8  C   LIG    1       -0.527   5.811  -6.629  0.00  0.00    +0.170 A 
ATOM      9  N   LIG    1       -0.491   5.616  -8.003  0.00  0.00    -0.580 N 
ATOM     10  H   LIG    1       -1.058   4.941  -8.407  0.00  0.00    +0.450 HD
ATOM     11  O   LIG    1        1.911   8.437  -6.529  0.00  0.00    -0.470 OA
ATOM     12  C   LIG    1        0.321   6.354  -8.779  0.00  0.00    +0.530 A 
ATOM     13  S   LIG    1        0.321   6.069 -10.467  0.00  0.00    -0.540 S 
ENDROOT
BRANCH   6  14
ATOM     14  C   LIG    1       -2.249   4.486  -3.564  0.00  0.00    +0.560 C 
ATOM     15  N   LIG    1       -2.256   4.702  -2.233  0.00  0.00    -0.710 N 
ATOM     16  H   LIG    1       -1.681   5.382  -1.849  0.00  0.00    +0.400 HD
ATOM     17  O   LIG    1       -2.969   3.634  -4.045  0.00  0.00    -0.520 OA
BRANCH  15  18
ATOM     18  C   LIG    1       -3.133   3.910  -1.367  0.00  0.00    +0.250 C 
ATOM     19  C   LIG    1       -4.524   4.547  -1.331  0.00  0.00    +0.030 C 
BRANCH  18  20
ATOM     20  C   LIG    1       -2.552   3.871   0.048  0.00  0.00    +0.100 C 
BRANCH  20  21
ATOM     21  C   LIG    1       -1.238   3.135   0.031  0.00  0.00    -0.080 A 
ATOM     22  C   LIG    1       -0.050   3.841   0.024  0.00  0.00    +0.020 A 
ATOM     23  C   LIG    1        1.156   3.165   0.009  0.00  0.00    +0.020 A 
ATOM     24  C   LIG    1        1.175   1.783   0.000  0.00  0.00    +0.020 A 
ATOM     25  C   LIG    1       -0.013   1.076   0.008  0.00  0.00    +0.020 A 
ATOM     26  C   LIG    1       -1.220   1.751   0.017  0.00  0.00    -0.030 A 
ATOM     27 CL   LIG    1       -2.712   0.863   0.019  0.00  0.00    -0.060 Cl
ENDBRANCH  20  21
ENDBRANCH  18  20
ENDBRANCH  15  18
ENDBRANCH   6  14
BRANCH   1  29
ATOM     28  C   LIG    1        3.330   7.350  -9.358  0.00  0.00    +0.060 C 
ATOM     29  C   LIG    1        1.986   8.063  -9.205  0.00  0.00    +0.320 C 
ENDBRANCH   1  29
TORSDOF 5
