REMARK  Name = ZINCtV00000L6l6z.0
REMARK                            x       y       z     vdW  Elec       q    Type
REMARK                         _______ _______ _______ _____ _____    ______ ____
ROOT
ATOM      1  N   LIG    1       -0.986   1.605  -0.951  0.00  0.00    -0.490 N 
ATOM      2  C   LIG    1       -1.902   0.941  -1.683  0.00  0.00    +0.470 A 
ATOM      3  N   LIG    1       -2.226   1.718  -2.736  0.00  0.00    -0.370 N 
ATOM      4  N   LIG    1       -1.470   2.895  -2.640  0.00  0.00    -0.260 NA
ATOM      5  S   LIG    1       -2.541  -0.609  -1.337  0.00  0.00    -0.560 S 
ATOM      6  C   LIG    1       -0.733   2.814  -1.568  0.00  0.00    +0.320 A 
ENDROOT
BRANCH   6   7
ATOM      7  C   LIG    1        0.215   3.845  -1.092  0.00  0.00    -0.040 A 
ATOM      8  C   LIG    1        0.632   3.852   0.240  0.00  0.00    +0.060 A 
ATOM      9  C   LIG    1        1.520   4.813   0.677  0.00  0.00    +0.040 A 
ATOM     10  C   LIG    1        1.990   5.776  -0.201  0.00  0.00    -0.010 A 
ATOM     11  C   LIG    1        1.575   5.777  -1.522  0.00  0.00    +0.040 A 
ATOM     12 CL   LIG    1        3.102   6.986   0.358  0.00  0.00    -0.050 Cl
ATOM     13  C   LIG    1        0.692   4.818  -1.971  0.00  0.00    +0.100 A 
ENDBRANCH   6   7
BRANCH   1  15
ATOM     14  C   LIG    1       -1.253   1.480   1.477  0.00  0.00    +0.050 C 
ATOM     15  C   LIG    1       -0.362   1.125   0.285  0.00  0.00    +0.330 C 
ENDBRANCH   1  15
BRANCH   3  16
ATOM     16  C   LIG    1       -3.188   1.391  -3.792  0.00  0.00    +0.530 C 
BRANCH  16  17
ATOM     17  N   LIG    1       -2.464   1.026  -5.017  0.00  0.00    -0.550 NA
ATOM     18  C   LIG    1       -2.030   2.224  -5.748  0.00  0.00    +0.220 C 
BRANCH  17  19
ATOM     19  C   LIG    1       -3.282   0.155  -5.872  0.00  0.00    +0.240 C 
ATOM     20  C   LIG    1       -2.573  -0.057  -7.211  0.00  0.00    +0.070 C 
BRANCH  19  21
ATOM     21  C   LIG    1       -3.479  -1.175  -5.191  0.00  0.00    +0.070 A 
ATOM     22  N   LIG    1       -4.614  -1.746  -5.043  0.00  0.00    -0.470 NA
ATOM     23  C   LIG    1       -4.642  -2.936  -4.413  0.00  0.00    +0.080 A 
ATOM     24  C   LIG    1       -5.736  -3.774  -4.119  0.00  0.00    +0.070 A 
ATOM     25  C   LIG    1       -5.546  -4.953  -3.465  0.00  0.00    +0.020 A 
ATOM     26  C   LIG    1       -4.275  -5.353  -3.077  0.00  0.00    +0.030 A 
ATOM     27  C   LIG    1       -3.187  -4.555  -3.352  0.00  0.00    +0.060 A 
ATOM     28  C   LIG    1       -3.363  -3.346  -4.019  0.00  0.00    -0.180 A 
ATOM     29  S   LIG    1       -2.216  -2.110  -4.527  0.00  0.00    +0.180 S 
ENDBRANCH  19  21
ENDBRANCH  17  19
ENDBRANCH  16  17
ENDBRANCH   3  16
TORSDOF 6
