REMARK  Name = ZINCpe00000ySZST.0
REMARK                            x       y       z     vdW  Elec       q    Type
REMARK                         _______ _______ _______ _____ _____    ______ ____
ROOT
ATOM      1  C   LIG    1        3.951   7.671  -0.120  0.00  0.00    +0.040 C 
ATOM      2  C   LIG    1        3.971   6.145  -0.003  0.00  0.00    +0.230 C 
ENDROOT
BRANCH   2   3
ATOM      3  N   LIG    1        4.693   5.577  -1.144  0.00  0.00    -0.720 N 
ATOM      4  H   LIG    1        4.204   5.279  -1.927  0.00  0.00    +0.400 HD
ATOM      5  C   LIG    1        6.035   5.469  -1.106  0.00  0.00    +0.490 C 
ATOM      6  O   LIG    1        6.646   5.841  -0.127  0.00  0.00    -0.520 OA
BRANCH   5   7
ATOM      7  C   LIG    1        6.778   4.884  -2.280  0.00  0.00    +0.280 C 
BRANCH   7   8
ATOM      8  C   LIG    1        6.395   3.436  -2.446  0.00  0.00    -0.110 A 
ATOM      9  C   LIG    1        6.980   2.471  -1.647  0.00  0.00    +0.030 A 
ATOM     10  C   LIG    1        6.626   1.143  -1.794  0.00  0.00    +0.040 A 
ATOM     11  C   LIG    1        5.695   0.778  -2.748  0.00  0.00    +0.040 A 
ATOM     12  C   LIG    1        5.113   1.742  -3.552  0.00  0.00    -0.030 A 
ATOM     13 CL   LIG    1        3.944   1.284  -4.750  0.00  0.00    -0.060 Cl
ATOM     14  C   LIG    1        5.464   3.072  -3.401  0.00  0.00    +0.040 A 
ENDBRANCH   7   8
BRANCH   7  15
ATOM     15  O   LIG    1        8.185   4.982  -2.051  0.00  0.00    -0.520 OA
ATOM     16  H   LIG    1        8.488   4.515  -1.261  0.00  0.00    +0.380 HD
ENDBRANCH   7  15
ENDBRANCH   5   7
ENDBRANCH   2   3
BRANCH   2  17
ATOM     17  C   LIG    1        2.536   5.616   0.008  0.00  0.00    +0.280 C 
BRANCH  17  18
ATOM     18  N   LIG    1        2.555   4.151   0.000  0.00  0.00    -0.730 N 
ATOM     19  H   LIG    1        3.402   3.677  -0.011  0.00  0.00    +0.400 HD
ATOM     20  C   LIG    1        1.398   3.461   0.007  0.00  0.00    +0.520 C 
ATOM     21  O   LIG    1        0.339   4.053   0.021  0.00  0.00    -0.540 OA
BRANCH  20  22
ATOM     22  C   LIG    1        1.418   1.954  -0.001  0.00  0.00    +0.060 C 
BRANCH  22  23
ATOM     23  C   LIG    1       -0.017   1.425   0.010  0.00  0.00    +0.190 C 
BRANCH  23  24
ATOM     24  O   LIG    1        0.002  -0.004   0.002  0.00  0.00    -0.380 OA
BRANCH  24  25
ATOM     25  C   LIG    1       -1.295  -0.603   0.011  0.00  0.00    +0.120 C 
ATOM     26  C   LIG    1       -1.631  -1.339   1.322  0.00  0.00    +0.210 C 
ATOM     27  O   LIG    1       -2.165  -2.375   0.468  0.00  0.00    -0.370 OA
ATOM     28  C   LIG    1       -1.344  -1.992  -0.654  0.00  0.00    +0.230 C 
ENDBRANCH  24  25
ENDBRANCH  23  24
ENDBRANCH  22  23
ENDBRANCH  20  22
ENDBRANCH  17  18
ENDBRANCH   2  17
TORSDOF 10
