REMARK  Name = ZINCrD000000BWcF.0
REMARK                            x       y       z     vdW  Elec       q    Type
REMARK                         _______ _______ _______ _____ _____    ______ ____
ROOT
ATOM      1  O   LIG    1        1.209   2.820  -0.077  0.00  0.00    -0.520 OA
ATOM      2  C   LIG    1        1.174   1.607   0.005  0.00  0.00    +0.700 C 
ATOM      3  N   LIG    1        2.321   0.905   0.094  0.00  0.00    -0.730 N 
ATOM      4  H   LIG    1        2.293  -0.062   0.160  0.00  0.00    +0.400 HD
ATOM      5  N   LIG    1       -0.011   0.966   0.007  0.00  0.00    -0.670 N 
ATOM      6  H   LIG    1       -0.038  -0.004  -0.002  0.00  0.00    +0.410 HD
ENDROOT
BRANCH   5   7
ATOM      7  C   LIG    1       -1.199   1.696   0.017  0.00  0.00    +0.380 A 
ATOM      8  C   LIG    1       -2.414   1.031   0.127  0.00  0.00    -0.070 A 
ATOM      9  C   LIG    1       -3.586   1.768   0.142  0.00  0.00    -0.000 A 
ATOM     10  C   LIG    1       -3.500   3.149   0.033  0.00  0.00    -0.080 A 
ATOM     11  C   LIG    1       -2.259   3.743  -0.080  0.00  0.00    +0.300 A 
ATOM     12  N   LIG    1       -1.159   3.015  -0.085  0.00  0.00    -0.470 NA
BRANCH   9  13
ATOM     13  C   LIG    1       -4.924   1.086   0.267  0.00  0.00    +0.020 C 
ATOM     14  C   LIG    1       -5.840   1.444  -0.929  0.00  0.00    +0.010 C 
ATOM     15  C   LIG    1       -7.227   1.654  -0.292  0.00  0.00    +0.200 C 
ATOM     16  O   LIG    1       -7.097   1.386   1.114  0.00  0.00    -0.380 OA
ATOM     17  C   LIG    1       -5.722   1.651   1.469  0.00  0.00    +0.230 C 
ENDBRANCH   9  13
ENDBRANCH   5   7
BRANCH   3  18
ATOM     18  C   LIG    1        3.609   1.603   0.092  0.00  0.00    +0.340 C 
BRANCH  18  19
ATOM     19  C   LIG    1        4.641   0.754   0.789  0.00  0.00    -0.090 A 
ATOM     20  C   LIG    1        4.657  -0.614   0.595  0.00  0.00    +0.030 A 
ATOM     21  C   LIG    1        5.606  -1.392   1.231  0.00  0.00    +0.000 A 
ATOM     22  C   LIG    1        6.534  -0.802   2.068  0.00  0.00    +0.000 A 
ATOM     23  C   LIG    1        6.515   0.566   2.267  0.00  0.00    +0.000 A 
ATOM     24  C   LIG    1        5.569   1.344   1.627  0.00  0.00    +0.010 A 
ENDBRANCH  18  19
BRANCH  18  25
ATOM     25  C   LIG    1        4.049   1.857  -1.352  0.00  0.00    +0.110 C 
ATOM     26  C   LIG    1        5.051   3.014  -1.496  0.00  0.00    +0.000 C 
ATOM     27  C   LIG    1        4.285   3.415  -2.768  0.00  0.00    +0.000 C 
ATOM     28  C   LIG    1        3.059   2.718  -2.154  0.00  0.00    +0.010 C 
BRANCH  25  29
ATOM     29  O   LIG    1        4.449   0.663  -2.028  0.00  0.00    -0.540 OA
ATOM     30  H   LIG    1        4.730   0.805  -2.943  0.00  0.00    +0.380 HD
ENDBRANCH  25  29
ENDBRANCH  18  25
ENDBRANCH   3  18
TORSDOF 6
