REMARK  Name = ZINCrH00000tj1lC.0
REMARK                            x       y       z     vdW  Elec       q    Type
REMARK                         _______ _______ _______ _____ _____    ______ ____
ROOT
ATOM      1  C   LIG    1        6.823  -3.357  -5.037  0.00  0.00    +0.080 C 
ATOM      2  C   LIG    1        5.419  -2.750  -5.018  0.00  0.00    +0.250 C 
ENDROOT
BRANCH   2   3
ATOM      3  N   LIG    1        5.004  -2.517  -3.628  0.00  0.00    -0.520 NA
ATOM      4  C   LIG    1        5.926  -1.593  -2.952  0.00  0.00    +0.200 C 
ATOM      5  C   LIG    1        5.506  -1.440  -1.488  0.00  0.00    +0.200 C 
ATOM      6  N   LIG    1        4.125  -0.940  -1.427  0.00  0.00    -0.530 NA
ATOM      7  C   LIG    1        3.204  -1.864  -2.103  0.00  0.00    +0.200 C 
ATOM      8  C   LIG    1        3.623  -2.017  -3.567  0.00  0.00    +0.180 C 
BRANCH   6   9
ATOM      9  C   LIG    1        3.711  -0.707  -0.037  0.00  0.00    +0.230 C 
BRANCH   9  10
ATOM     10  C   LIG    1        2.396   0.029  -0.021  0.00  0.00    -0.080 A 
ATOM     11  C   LIG    1        1.208  -0.679  -0.013  0.00  0.00    +0.000 A 
ATOM     12  C   LIG    1        0.002  -0.004   0.002  0.00  0.00    +0.000 A 
ATOM     13  C   LIG    1       -0.017   1.378   0.010  0.00  0.00    +0.000 A 
ATOM     14  C   LIG    1        1.171   2.086   0.002  0.00  0.00    +0.000 A 
ATOM     15  C   LIG    1        2.377   1.411  -0.015  0.00  0.00    +0.020 A 
ENDBRANCH   9  10
ENDBRANCH   6   9
ENDBRANCH   2   3
BRANCH   2  16
ATOM     16  C   LIG    1        4.452  -3.699  -5.678  0.00  0.00    +0.170 A 
ATOM     17  N   LIG    1        3.987  -4.804  -5.165  0.00  0.00    -0.250 NA
ATOM     18  N   LIG    1        3.184  -5.362  -6.002  0.00  0.00    -0.270 NA
ATOM     19  C   LIG    1        3.115  -4.630  -7.089  0.00  0.00    +0.210 A 
ATOM     20  O   LIG    1        3.918  -3.563  -6.904  0.00  0.00    -0.220 OA
BRANCH  19  21
ATOM     21  C   LIG    1        2.309  -4.923  -8.293  0.00  0.00    -0.040 A 
ATOM     22  C   LIG    1        2.330  -4.047  -9.380  0.00  0.00    +0.090 A 
ATOM     23  C   LIG    1        1.579  -4.327 -10.502  0.00  0.00    +0.000 A 
ATOM     24  C   LIG    1        0.797  -5.470 -10.548  0.00  0.00    +0.130 A 
ATOM     25  C   LIG    1        0.768  -6.340  -9.470  0.00  0.00    +0.000 A 
ATOM     26  F   LIG    1        0.059  -5.737 -11.648  0.00  0.00    -0.130 F 
ATOM     27  C   LIG    1        1.519  -6.073  -8.345  0.00  0.00    +0.110 A 
ENDBRANCH  19  21
ENDBRANCH   2  16
TORSDOF 5
