REMARK  Name = ZINCnE000001C9qd.0
REMARK                            x       y       z     vdW  Elec       q    Type
REMARK                         _______ _______ _______ _____ _____    ______ ____
ROOT
ATOM      1  C   LIG    1        3.329  -3.197   0.562  0.00  0.00    +0.530 C 
ATOM      2  N   LIG    1        3.302  -1.861   0.389  0.00  0.00    -0.600 N 
ATOM      3  C   LIG    1        3.370  -0.954   1.543  0.00  0.00    +0.270 C 
ATOM      4  C   LIG    1        2.184   0.014   1.480  0.00  0.00    +0.010 C 
ATOM      5  C   LIG    1        2.182   0.723   0.123  0.00  0.00    +0.060 C 
ATOM      6  C   LIG    1        2.021  -0.311  -0.994  0.00  0.00    +0.000 C 
ATOM      7  C   LIG    1        3.205  -1.283  -0.959  0.00  0.00    +0.260 C 
ATOM      8  O   LIG    1        3.317  -3.663   1.682  0.00  0.00    -0.550 OA
ENDROOT
BRANCH   1  12
ATOM      9  C   LIG    1        1.863  -6.500  -2.466  0.00  0.00    +0.050 C 
ATOM     10  C   LIG    1        2.242  -5.586  -1.607  0.00  0.00    -0.140 C 
ATOM     11  C   LIG    1        3.023  -5.573  -0.308  0.00  0.00    +0.100 C 
ATOM     12  C   LIG    1        3.374  -4.112  -0.635  0.00  0.00    -0.100 C 
ATOM     13  C   LIG    1        4.657  -3.956  -1.454  0.00  0.00    +0.070 C 
ATOM     14  C   LIG    1        2.092  -4.081  -1.484  0.00  0.00    +0.090 C 
ENDBRANCH   1  12
BRANCH   5  15
ATOM     15  C   LIG    1        1.037   1.701   0.071  0.00  0.00    -0.030 A 
ATOM     16  C   LIG    1       -0.264   1.243   0.059  0.00  0.00    -0.030 A 
ATOM     17  C   LIG    1       -1.317   2.140   0.005  0.00  0.00    -0.020 A 
ATOM     18  C   LIG    1       -1.073   3.502  -0.028  0.00  0.00    -0.040 A 
ATOM     19  C   LIG    1        0.223   3.974  -0.017  0.00  0.00    +0.040 A 
ATOM     20  C   LIG    1        1.290   3.075   0.032  0.00  0.00    -0.140 A 
BRANCH  20  21
ATOM     21  C   LIG    1        2.679   3.573   0.044  0.00  0.00    +0.530 C 
ATOM     22  O   LIG    1        3.611   2.787  -0.052  0.00  0.00    -0.660 OA
ATOM     23  O   LIG    1        2.898   4.771   0.151  0.00  0.00    -0.680 OA
ENDBRANCH  20  21
ENDBRANCH   5  15
TORSDOF 3
