REMARK  Name = ZINCpk000000n27S.0
REMARK                            x       y       z     vdW  Elec       q    Type
REMARK                         _______ _______ _______ _____ _____    ______ ____
ROOT
ATOM      1  C   LIG    1       -2.244   1.077   1.486  0.00  0.00    +0.520 C 
ATOM      2  N   LIG    1       -3.229   1.545   0.694  0.00  0.00    -0.730 N 
ATOM      3  H   LIG    1       -3.053   2.275   0.080  0.00  0.00    +0.400 HD
ATOM      4  O   LIG    1       -2.465   0.164   2.253  0.00  0.00    -0.510 OA
ENDROOT
BRANCH   1   5
ATOM      5  C   LIG    1       -0.868   1.688   1.417  0.00  0.00    +0.170 C 
ATOM      6  C   LIG    1       -0.260   1.422   0.039  0.00  0.00    +0.060 C 
BRANCH   5   7
ATOM      7  O   LIG    1       -0.038   1.106   2.425  0.00  0.00    -0.280 OA
BRANCH   7  12
ATOM      8  C   LIG    1        2.871   2.160   4.359  0.00  0.00    -0.130 A 
ATOM      9  C   LIG    1        3.159   3.380   3.739  0.00  0.00    +0.030 A 
ATOM     10  C   LIG    1        2.377   3.821   2.692  0.00  0.00    +0.040 A 
ATOM     11  C   LIG    1        1.309   3.060   2.252  0.00  0.00    -0.050 A 
ATOM     12  C   LIG    1        1.014   1.847   2.861  0.00  0.00    +0.120 A 
ATOM     13  C   LIG    1        1.787   1.396   3.917  0.00  0.00    +0.050 A 
BRANCH   8  15
ATOM     14  C   LIG    1        4.867   2.514   5.955  0.00  0.00    +0.090 C 
ATOM     15  C   LIG    1        3.703   1.685   5.477  0.00  0.00    +0.390 C 
ATOM     16  O   LIG    1        3.451   0.627   6.013  0.00  0.00    -0.450 OA
ENDBRANCH   8  15
ENDBRANCH   7  12
ENDBRANCH   5   7
ENDBRANCH   1   5
BRANCH   2  17
ATOM     17  C   LIG    1       -4.567   0.951   0.761  0.00  0.00    +0.280 C 
BRANCH  17  18
ATOM     18  C   LIG    1       -5.489   1.660  -0.232  0.00  0.00    +0.010 C 
BRANCH  18  19
ATOM     19  C   LIG    1       -6.886   1.040  -0.163  0.00  0.00    +0.300 C 
BRANCH  19  20
ATOM     20  N   LIG    1       -7.770   1.719  -1.114  0.00  0.00    -0.520 N 
ATOM     21  C   LIG    1       -8.486   2.804  -0.718  0.00  0.00    +0.350 A 
ATOM     22  C   LIG    1       -9.298   3.426  -1.615  0.00  0.00    -0.130 A 
ATOM     23  C   LIG    1       -9.382   2.924  -2.917  0.00  0.00    +0.430 A 
ATOM     24  N   LIG    1       -8.675   1.866  -3.259  0.00  0.00    -0.550 NA
ATOM     25  C   LIG    1       -7.876   1.263  -2.376  0.00  0.00    +0.620 A 
ATOM     26  O   LIG    1       -7.232   0.286  -2.718  0.00  0.00    -0.530 OA
ENDBRANCH  19  20
ENDBRANCH  18  19
ENDBRANCH  17  18
ENDBRANCH   2  17
TORSDOF 8
