REMARK  Name = ZINCrH000004tdDz.1
REMARK                            x       y       z     vdW  Elec       q    Type
REMARK                         _______ _______ _______ _____ _____    ______ ____
ROOT
ATOM      1  N   LIG    1        4.273  -0.778   1.242  0.00  0.00    -0.530 NA
ATOM      2  C   LIG    1        3.244  -1.166   2.214  0.00  0.00    +0.180 C 
ATOM      3  C   LIG    1        3.820  -1.082   3.630  0.00  0.00    +0.050 C 
ATOM      4  C   LIG    1        5.030  -2.014   3.739  0.00  0.00    +0.090 C 
ATOM      5  C   LIG    1        6.066  -1.618   2.683  0.00  0.00    +0.050 C 
ATOM      6  C   LIG    1        5.425  -1.687   1.296  0.00  0.00    +0.180 C 
ENDROOT
BRANCH   4   7
ATOM      7  C   LIG    1        5.638  -1.891   5.112  0.00  0.00    +0.150 A 
ATOM      8  N   LIG    1        6.121  -0.800   5.650  0.00  0.00    -0.240 NA
ATOM      9  N   LIG    1        6.562  -1.044   6.834  0.00  0.00    -0.290 NA
ATOM     10  C   LIG    1        6.381  -2.323   7.118  0.00  0.00    +0.190 A 
ATOM     11  C   LIG    1        6.669  -3.115   8.246  0.00  0.00    +0.080 A 
ATOM     12  C   LIG    1        6.336  -4.434   8.234  0.00  0.00    +0.060 A 
ATOM     13  C   LIG    1        5.725  -4.989   7.097  0.00  0.00    +0.030 A 
ATOM     14  C   LIG    1        5.459  -4.218   6.021  0.00  0.00    +0.230 A 
ATOM     15  N   LIG    1        5.779  -2.893   6.022  0.00  0.00    -0.390 N 
ENDBRANCH   4   7
BRANCH   1  16
ATOM     16  C   LIG    1        3.717  -0.713  -0.116  0.00  0.00    +0.240 C 
BRANCH  16  19
ATOM     17  F   LIG    1        3.551   2.097  -0.046  0.00  0.00    -0.120 F 
ATOM     18  C   LIG    1        2.389   1.408  -0.052  0.00  0.00    +0.090 A 
ATOM     19  C   LIG    1        2.404   0.025  -0.086  0.00  0.00    -0.080 A 
ATOM     20  C   LIG    1        1.214  -0.679  -0.094  0.00  0.00    +0.000 A 
ATOM     21  C   LIG    1        0.008  -0.005  -0.066  0.00  0.00    +0.040 A 
ATOM     22  C   LIG    1       -0.013   1.377  -0.032  0.00  0.00    -0.040 A 
ATOM     23  C   LIG    1        1.177   2.087  -0.024  0.00  0.00    +0.100 A 
BRANCH  23  24
ATOM     24  O   LIG    1        1.158   3.446   0.009  0.00  0.00    -0.270 OA
BRANCH  24  25
ATOM     25  C   LIG    1       -0.119   4.080  -0.087  0.00  0.00    +0.120 C 
ATOM     26  C   LIG    1       -0.244   5.278  -1.031  0.00  0.00    +0.040 C 
ATOM     27  C   LIG    1       -0.251   5.493   0.485  0.00  0.00    +0.050 C 
ENDBRANCH  24  25
ENDBRANCH  23  24
ENDBRANCH  16  19
ENDBRANCH   1  16
TORSDOF 5
