REMARK  Name = ZINCpk000000pStc.0
REMARK                            x       y       z     vdW  Elec       q    Type
REMARK                         _______ _______ _______ _____ _____    ______ ____
ROOT
ATOM      1  N   LIG    1       -0.721   1.571  -1.179  0.00  0.00    -0.560 N 
ATOM      2  C   LIG    1       -0.434   2.739  -1.767  0.00  0.00    +0.530 C 
ATOM      3  C   LIG    1       -1.346   2.934  -2.958  0.00  0.00    +0.110 C 
ATOM      4  C   LIG    1       -2.220   1.663  -2.957  0.00  0.00    +0.060 C 
ATOM      5  O   LIG    1        0.421   3.517  -1.403  0.00  0.00    -0.470 OA
ATOM      6  C   LIG    1       -1.706   0.881  -1.768  0.00  0.00    +0.540 C 
ATOM      7  O   LIG    1       -2.121  -0.199  -1.405  0.00  0.00    -0.470 OA
ENDROOT
BRANCH   4   8
ATOM      8  C   LIG    1       -2.019   0.879  -4.228  0.00  0.00    -0.080 A 
ATOM      9  C   LIG    1       -0.763   0.406  -4.557  0.00  0.00    +0.010 A 
ATOM     10  C   LIG    1       -0.580  -0.317  -5.721  0.00  0.00    +0.020 A 
ATOM     11  C   LIG    1       -1.651  -0.558  -6.561  0.00  0.00    -0.080 A 
ATOM     12  C   LIG    1       -2.906  -0.080  -6.235  0.00  0.00    +0.010 A 
ATOM     13  C   LIG    1       -1.450  -1.342  -7.832  0.00  0.00    +0.090 C 
ATOM     14  C   LIG    1       -3.090   0.639  -5.068  0.00  0.00    +0.040 A 
ENDBRANCH   4   8
BRANCH   1  15
ATOM     15  C   LIG    1       -0.013   1.086   0.008  0.00  0.00    +0.340 C 
BRANCH  15  21
ATOM     16  C   LIG    1       -1.135   0.500   4.606  0.00  0.00    +0.140 C 
ATOM     17  C   LIG    1       -0.913   1.709   3.691  0.00  0.00    +0.260 C 
ATOM     18  N   LIG    1       -0.242   1.246   2.466  0.00  0.00    -0.610 N 
ATOM     19  C   LIG    1        0.962   0.412   2.610  0.00  0.00    +0.250 C 
ATOM     20  C   LIG    1        0.651  -0.730   3.578  0.00  0.00    +0.220 C 
ATOM     21  C   LIG    1       -0.718   1.572   1.248  0.00  0.00    +0.510 C 
ATOM     22  O   LIG    1       -1.714   2.256   1.150  0.00  0.00    -0.530 OA
ATOM     23  O   LIG    1        0.104  -0.191   4.784  0.00  0.00    -0.370 OA
BRANCH  16  25
ATOM     24  C   LIG    1       -1.994  -0.236   6.834  0.00  0.00    +0.020 C 
ATOM     25  C   LIG    1       -1.654   0.976   5.965  0.00  0.00    +0.040 C 
ENDBRANCH  16  25
ENDBRANCH  15  21
ENDBRANCH   1  15
TORSDOF 4
