REMARK  Name = ZINCqH0000036nBC.0
REMARK                            x       y       z     vdW  Elec       q    Type
REMARK                         _______ _______ _______ _____ _____    ______ ____
ROOT
ATOM      1  N   LIG    1       -1.878  -4.553   0.921  0.00  0.00    -0.740 N 
ATOM      2  H   LIG    1       -2.256  -3.998   0.221  0.00  0.00    +0.400 HD
ATOM      3  C   LIG    1       -2.672  -5.056   1.887  0.00  0.00    +0.710 C 
ATOM      4  N   LIG    1       -3.993  -4.787   1.880  0.00  0.00    -0.680 N 
ATOM      5  H   LIG    1       -4.361  -4.179   1.220  0.00  0.00    +0.410 HD
ATOM      6  O   LIG    1       -2.198  -5.752   2.764  0.00  0.00    -0.570 OA
ENDROOT
BRANCH   4   7
ATOM      7  C   LIG    1       -4.835  -5.387   2.826  0.00  0.00    +0.150 A 
ATOM      8  C   LIG    1       -6.132  -5.740   2.478  0.00  0.00    +0.030 A 
ATOM      9  C   LIG    1       -6.959  -6.337   3.409  0.00  0.00    -0.030 A 
ATOM     10  C   LIG    1       -6.498  -6.573   4.696  0.00  0.00    +0.090 A 
ATOM     11  C   LIG    1       -5.204  -6.215   5.047  0.00  0.00    +0.040 A 
ATOM     12  C   LIG    1       -4.374  -5.624   4.115  0.00  0.00    +0.080 A 
BRANCH  10  13
ATOM     13  O   LIG    1       -7.315  -7.154   5.614  0.00  0.00    -0.310 OA
BRANCH  13  14
ATOM     14  C   LIG    1       -8.634  -7.497   5.185  0.00  0.00    +0.600 C 
ATOM     15  F   LIG    1       -9.302  -6.341   4.766  0.00  0.00    -0.170 F 
ATOM     16  F   LIG    1       -9.333  -8.081   6.246  0.00  0.00    -0.130 F 
ATOM     17  F   LIG    1       -8.558  -8.403   4.122  0.00  0.00    -0.170 F 
ENDBRANCH  13  14
ENDBRANCH  10  13
ENDBRANCH   4   7
BRANCH   1  18
ATOM     18  C   LIG    1       -0.442  -4.845   0.928  0.00  0.00    +0.310 C 
BRANCH  18  19
ATOM     19  C   LIG    1        0.223  -4.160  -0.267  0.00  0.00    +0.190 C 
BRANCH  19  20
ATOM     20  O   LIG    1        0.125  -2.742  -0.118  0.00  0.00    -0.300 OA
BRANCH  20  26
ATOM     21  C   LIG    1        0.612  -0.591  -1.022  0.00  0.00    +0.100 A 
ATOM     22  C   LIG    1        1.175   0.183  -2.025  0.00  0.00    -0.030 A 
ATOM     23  C   LIG    1        1.789  -0.425  -3.104  0.00  0.00    +0.020 A 
ATOM     24  C   LIG    1        1.843  -1.804  -3.187  0.00  0.00    +0.010 A 
ATOM     25  C   LIG    1        1.283  -2.582  -2.190  0.00  0.00    -0.030 A 
ATOM     26  C   LIG    1        0.671  -1.979  -1.102  0.00  0.00    +0.100 A 
BRANCH  21  28
ATOM     27  C   LIG    1       -0.010   1.434   0.059  0.00  0.00    +0.250 C 
ATOM     28  O   LIG    1        0.008   0.006   0.040  0.00  0.00    -0.310 OA
ENDBRANCH  21  28
ENDBRANCH  20  26
ENDBRANCH  19  20
ENDBRANCH  18  19
ENDBRANCH   1  18
TORSDOF 8
