REMARK  Name = ZINCpe000000YJDy.0
REMARK                            x       y       z     vdW  Elec       q    Type
REMARK                         _______ _______ _______ _____ _____    ______ ____
ROOT
ATOM      1  N   LIG    1       -3.904  -3.574  -0.713  0.00  0.00    -0.480 N 
ATOM      2  C   LIG    1       -4.297  -4.532   0.329  0.00  0.00    +0.200 C 
ATOM      3  C   LIG    1       -5.826  -4.609   0.397  0.00  0.00    +0.310 C 
ATOM      4  N   LIG    1       -6.338  -4.909  -0.949  0.00  0.00    -0.610 N 
ATOM      5  C   LIG    1       -5.880  -4.075  -2.070  0.00  0.00    +0.290 C 
ATOM      6  C   LIG    1       -7.206  -5.921  -1.149  0.00  0.00    +0.570 C 
ATOM      7  O   LIG    1       -7.502  -6.659  -0.229  0.00  0.00    -0.530 OA
ATOM      8  C   LIG    1       -4.349  -4.018  -2.040  0.00  0.00    +0.220 C 
ENDROOT
BRANCH   6   9
ATOM      9  C   LIG    1       -7.796  -6.135  -2.486  0.00  0.00    -0.150 A 
ATOM     10  C   LIG    1       -8.066  -5.043  -3.315  0.00  0.00    +0.080 A 
ATOM     11  C   LIG    1       -8.612  -5.248  -4.564  0.00  0.00    -0.010 A 
ATOM     12  C   LIG    1       -8.902  -6.534  -4.994  0.00  0.00    +0.130 A 
ATOM     13  C   LIG    1       -8.641  -7.621  -4.173  0.00  0.00    -0.010 A 
ATOM     14  F   LIG    1       -9.442  -6.729  -6.217  0.00  0.00    -0.130 F 
ATOM     15  C   LIG    1       -8.090  -7.427  -2.924  0.00  0.00    +0.110 A 
ENDBRANCH   6   9
BRANCH   1  19
ATOM     16  C   LIG    1        0.158  -2.931  -0.693  0.00  0.00    -0.760 A 
ATOM     17  C   LIG    1       -0.550  -2.711   0.480  0.00  0.00    +0.210 A 
ATOM     18  C   LIG    1       -1.917  -2.927   0.477  0.00  0.00    -0.060 A 
ATOM     19  C   LIG    1       -2.531  -3.354  -0.695  0.00  0.00    +0.370 A 
ATOM     20  N   LIG    1       -1.821  -3.552  -1.795  0.00  0.00    -0.530 NA
ATOM     21  C   LIG    1       -0.517  -3.349  -1.823  0.00  0.00    +0.420 A 
BRANCH  16  22
ATOM     22  S   LIG    1        1.900  -2.671  -0.744  0.00  0.00    +2.710 S 
ATOM     23  O   LIG    1        2.231  -2.431  -2.104  0.00  0.00    -0.960 OA
ATOM     24  O   LIG    1        2.200  -1.757   0.302  0.00  0.00    -0.960 OA
BRANCH  22  25
ATOM     25  N   LIG    1        2.621  -4.105  -0.333  0.00  0.00    -1.250 NA
ATOM     26  H   LIG    1        3.588  -4.171  -0.306  0.00  0.00    +0.420 HD
ATOM     27  H   LIG    1        2.076  -4.879  -0.123  0.00  0.00    +0.420 HD
ENDBRANCH  22  25
ENDBRANCH  16  22
ENDBRANCH   1  19
TORSDOF 4
