REMARK  Name = ZINCvU0000000798.0
REMARK                            x       y       z     vdW  Elec       q    Type
REMARK                         _______ _______ _______ _____ _____    ______ ____
ROOT
ATOM      1  C   LIG    1       -0.850   3.833   1.196  0.00  0.00    +0.200 A 
ATOM      2  N   LIG    1       -0.141   4.410   0.255  0.00  0.00    -0.470 NA
ATOM      3  C   LIG    1       -0.140   5.744   0.444  0.00  0.00    +0.070 A 
ATOM      4  C   LIG    1       -0.886   6.008   1.576  0.00  0.00    +0.040 A 
ATOM      5  N   LIG    1       -1.331   4.785   2.042  0.00  0.00    -0.540 N 
ATOM      6  H   LIG    1       -1.883   4.634   2.826  0.00  0.00    +0.430 HD
ENDROOT
BRANCH   4   7
ATOM      7  C   LIG    1       -1.156   7.332   2.168  0.00  0.00    -0.020 A 
ATOM      8  C   LIG    1       -1.572   8.392   1.358  0.00  0.00    +0.050 A 
ATOM      9  C   LIG    1       -1.828   9.626   1.920  0.00  0.00    +0.020 A 
ATOM     10  C   LIG    1       -1.663   9.818   3.280  0.00  0.00    +0.020 A 
ATOM     11  C   LIG    1       -1.245   8.774   4.088  0.00  0.00    +0.010 A 
ATOM     12  C   LIG    1       -0.992   7.534   3.541  0.00  0.00    +0.010 A 
ENDBRANCH   4   7
BRANCH   3  13
ATOM     13  C   LIG    1        0.545   6.746  -0.404  0.00  0.00    -0.010 A 
ATOM     14  C   LIG    1        0.506   6.631  -1.794  0.00  0.00    +0.030 A 
ATOM     15  C   LIG    1        1.141   7.570  -2.579  0.00  0.00    +0.000 A 
ATOM     16  C   LIG    1        1.825   8.619  -1.991  0.00  0.00    +0.000 A 
ATOM     17  C   LIG    1        1.872   8.736  -0.614  0.00  0.00    +0.000 A 
ATOM     18  C   LIG    1        1.236   7.806   0.182  0.00  0.00    +0.020 A 
ENDBRANCH   3  13
BRANCH   1  19
ATOM     19  S   LIG    1       -1.129   2.099   1.346  0.00  0.00    +0.020 S 
BRANCH  19  20
ATOM     20  C   LIG    1       -0.206   1.507  -0.094  0.00  0.00    +0.200 C 
BRANCH  20  24
ATOM     21  O   LIG    1       -1.920  -2.532  -1.986  0.00  0.00    -0.520 OA
ATOM     22  C   LIG    1       -1.204  -1.980  -1.165  0.00  0.00    +0.510 A 
ATOM     23  C   LIG    1       -1.127  -0.584  -1.113  0.00  0.00    -0.130 A 
ATOM     24  C   LIG    1       -0.306   0.005  -0.171  0.00  0.00    +0.220 A 
ATOM     25  N   LIG    1        0.398  -0.748   0.659  0.00  0.00    -0.520 NA
ATOM     26  C   LIG    1        0.327  -2.078   0.618  0.00  0.00    +0.400 A 
ATOM     27  C   LIG    1        1.087  -2.841   1.522  0.00  0.00    +0.060 A 
ATOM     28  C   LIG    1        1.016  -4.201   1.476  0.00  0.00    +0.140 A 
ATOM     29  C   LIG    1        0.187  -4.819   0.529  0.00  0.00    -0.150 A 
ATOM     30  C   LIG    1       -0.535  -4.069  -0.334  0.00  0.00    +0.330 A 
ATOM     31 BR   LIG    1        0.081  -6.706   0.456  0.00  0.00    +0.000 Br
ATOM     32  N   LIG    1       -0.472  -2.708  -0.295  0.00  0.00    -0.430 N 
ENDBRANCH  20  24
ENDBRANCH  19  20
ENDBRANCH   1  19
TORSDOF 5
