REMARK  Name = ZINCkj000005kdpn.0
REMARK                            x       y       z     vdW  Elec       q    Type
REMARK                         _______ _______ _______ _____ _____    ______ ____
ROOT
ATOM      1  CA  LIG    1        1.229  -2.186  -0.021  0.00  0.00    +0.240 C 
ENDROOT
BRANCH   1   7
ATOM      2  C   LIG    1       -1.332   2.114   0.020  0.00  0.00    +0.100 C 
ATOM      3  C   LIG    1       -0.017   1.378   0.010  0.00  0.00    -0.070 A 
ATOM      4  C   LIG    1        1.171   2.086   0.002  0.00  0.00    +0.030 A 
ATOM      5  C   LIG    1        2.377   1.411  -0.015  0.00  0.00    -0.070 A 
ATOM      6  C   LIG    1        2.396   0.029  -0.021  0.00  0.00    +0.010 A 
ATOM      7  C   LIG    1        1.208  -0.679  -0.013  0.00  0.00    -0.130 A 
ATOM      8  C   LIG    1        3.672   2.182  -0.022  0.00  0.00    +0.100 C 
ATOM      9  C   LIG    1        0.002  -0.004   0.002  0.00  0.00    +0.030 A 
ENDBRANCH   1   7
BRANCH   1  10
ATOM     10  N   LIG    1        2.288  -2.657  -0.923  0.00  0.00    -0.500 N 
ATOM     11  H1  LIG    1        3.187  -2.379  -0.561  0.00  0.00    +0.440 HD
ATOM     12  H2  LIG    1        2.154  -2.252  -1.838  0.00  0.00    +0.430 HD
BRANCH  10  13
ATOM     13  C   LIG    1        2.230  -4.121  -1.023  0.00  0.00    +0.260 C 
BRANCH  13  14
ATOM     14  C   LIG    1        3.333  -4.612  -1.964  0.00  0.00    +0.170 C 
ATOM     15  C   LIG    1        3.209  -6.137  -2.166  0.00  0.00    +0.050 C 
ATOM     16  C   LIG    1        4.694  -6.591  -2.171  0.00  0.00    -0.020 C 
ATOM     17  C   LIG    1        5.310  -5.593  -1.159  0.00  0.00    +0.230 C 
ATOM     18  O   LIG    1        4.617  -4.355  -1.383  0.00  0.00    -0.380 OA
BRANCH  16  19
ATOM     19  C   LIG    1        4.833  -8.033  -1.679  0.00  0.00    +0.190 C 
BRANCH  19  20
ATOM     20  O   LIG    1        6.215  -8.397  -1.655  0.00  0.00    -0.570 OA
ATOM     21  H   LIG    1        6.378  -9.300  -1.352  0.00  0.00    +0.390 HD
ENDBRANCH  19  20
ENDBRANCH  16  19
ENDBRANCH  13  14
ENDBRANCH  10  13
ENDBRANCH   1  10
BRANCH   1  22
ATOM     22  C   LIG    1        1.500  -2.699   1.395  0.00  0.00    +0.220 C 
BRANCH  22  23
ATOM     23  O   LIG    1        2.707  -2.115   1.890  0.00  0.00    -0.570 OA
ATOM     24  H   LIG    1        2.942  -2.396   2.785  0.00  0.00    +0.410 HD
ENDBRANCH  22  23
ENDBRANCH   1  22
TORSDOF 8
