REMARK  Name = ZINCnE000001LNG1.0
REMARK                            x       y       z     vdW  Elec       q    Type
REMARK                         _______ _______ _______ _____ _____    ______ ____
ROOT
ATOM      1  C   LIG    1        2.658   0.749  -0.643  0.00  0.00    +0.360 A 
ATOM      2  N   LIG    1        2.424   2.051  -0.649  0.00  0.00    -0.550 NA
ATOM      3  C   LIG    1        1.212   2.542  -0.488  0.00  0.00    +0.180 A 
ATOM      4  C   LIG    1        0.114   1.701  -0.302  0.00  0.00    -0.180 A 
ATOM      5  C   LIG    1        0.308   0.321  -0.287  0.00  0.00    +0.160 A 
ATOM      6  C   LIG    1        1.008   4.035  -0.505  0.00  0.00    +0.130 C 
ATOM      7  C   LIG    1        1.608  -0.167  -0.462  0.00  0.00    -0.200 A 
ENDROOT
BRANCH   4   8
ATOM      8  C   LIG    1       -1.245   2.270  -0.128  0.00  0.00    -0.020 A 
ATOM      9  C   LIG    1       -1.476   3.277   0.807  0.00  0.00    +0.270 A 
ATOM     10  N   LIG    1       -2.682   3.787   0.959  0.00  0.00    -0.440 NA
ATOM     11  C   LIG    1       -3.711   3.364   0.250  0.00  0.00    +0.010 A 
ATOM     12  C   LIG    1       -3.563   2.364  -0.694  0.00  0.00    -0.080 A 
ATOM     13  C   LIG    1       -4.749   1.893  -1.496  0.00  0.00    +0.120 C 
ATOM     14  C   LIG    1       -2.315   1.801  -0.894  0.00  0.00    +0.080 A 
BRANCH  11  15
ATOM     15  C   LIG    1       -5.068   3.981   0.472  0.00  0.00    +0.530 C 
ATOM     16  F   LIG    1       -5.458   4.676  -0.678  0.00  0.00    -0.170 F 
ATOM     17  F   LIG    1       -5.006   4.866   1.554  0.00  0.00    -0.160 F 
ATOM     18  F   LIG    1       -5.999   2.973   0.746  0.00  0.00    -0.170 F 
ENDBRANCH  11  15
ENDBRANCH   4   8
BRANCH   7  19
ATOM     19  C   LIG    1        1.871  -1.615  -0.456  0.00  0.00    +0.530 C 
ATOM     20  O   LIG    1        3.012  -2.030  -0.610  0.00  0.00    -0.660 OA
ATOM     21  O   LIG    1        0.949  -2.403  -0.298  0.00  0.00    -0.690 OA
ENDBRANCH   7  19
BRANCH   1  23
ATOM     22  C   LIG    1        4.945   1.276  -0.994  0.00  0.00    +0.220 C 
ATOM     23  O   LIG    1        3.922   0.295  -0.814  0.00  0.00    -0.250 OA
ENDBRANCH   1  23
TORSDOF 4
