REMARK  Name = ZINCpk00000ebuf5.0
REMARK                            x       y       z     vdW  Elec       q    Type
REMARK                         _______ _______ _______ _____ _____    ______ ____
ROOT
ATOM      1  N   LIG    1       -6.096  -1.897   0.051  0.00  0.00    -0.720 N 
ATOM      2  H   LIG    1       -6.058  -0.928   0.056  0.00  0.00    +0.410 HD
ATOM      3  C   LIG    1       -4.956  -2.616   0.037  0.00  0.00    +0.570 C 
ATOM      4  O   LIG    1       -5.003  -3.831   0.032  0.00  0.00    -0.530 OA
ENDROOT
BRANCH   3   5
ATOM      5  C   LIG    1       -3.650  -1.928   0.027  0.00  0.00    -0.160 A 
ATOM      6  C   LIG    1       -2.467  -2.671   0.012  0.00  0.00    +0.130 A 
ATOM      7  C   LIG    1       -1.250  -2.026   0.003  0.00  0.00    +0.010 A 
ATOM      8  C   LIG    1       -1.199  -0.637   0.010  0.00  0.00    +0.140 A 
ATOM      9  C   LIG    1       -2.373   0.106   0.031  0.00  0.00    -0.060 A 
ATOM     10  C   LIG    1       -3.594  -0.532   0.034  0.00  0.00    +0.090 A 
BRANCH   8  11
ATOM     11  O   LIG    1        0.002  -0.004   0.002  0.00  0.00    -0.320 OA
BRANCH  11  12
ATOM     12  C   LIG    1       -0.017   1.425   0.010  0.00  0.00    +0.600 C 
ATOM     13  F   LIG    1       -0.672   1.876   1.161  0.00  0.00    -0.200 F 
ATOM     14  F   LIG    1       -0.694   1.888  -1.123  0.00  0.00    -0.200 F 
ENDBRANCH  11  12
ENDBRANCH   8  11
ENDBRANCH   3   5
BRANCH   1  15
ATOM     15  C   LIG    1       -7.392  -2.580   0.061  0.00  0.00    +0.300 C 
BRANCH  15  17
ATOM     16  O   LIG    1       -8.231  -0.374   0.080  0.00  0.00    -0.530 OA
ATOM     17  C   LIG    1       -8.498  -1.557   0.077  0.00  0.00    +0.510 C 
ATOM     18  N   LIG    1       -9.786  -1.957   0.088  0.00  0.00    -0.720 N 
ATOM     19  H   LIG    1      -10.000  -2.903   0.086  0.00  0.00    +0.410 HD
BRANCH  18  20
ATOM     20  C   LIG    1      -10.861  -0.962   0.103  0.00  0.00    +0.270 C 
BRANCH  20  21
ATOM     21  C   LIG    1      -12.215  -1.675   0.114  0.00  0.00    +0.030 C 
BRANCH  21  22
ATOM     22  C   LIG    1      -13.338  -0.637   0.130  0.00  0.00    +0.330 C 
BRANCH  22  23
ATOM     23  N   LIG    1      -14.634  -1.320   0.139  0.00  0.00    -0.380 N 
ATOM     24  C   LIG    1      -15.620  -1.140   1.044  0.00  0.00    +0.220 A 
ATOM     25  C   LIG    1      -16.646  -1.953   0.702  0.00  0.00    -0.120 A 
ATOM     26  C   LIG    1      -16.276  -2.652  -0.451  0.00  0.00    +0.230 A 
ATOM     27  N   LIG    1      -15.072  -2.270  -0.792  0.00  0.00    -0.300 NA
ENDBRANCH  22  23
ENDBRANCH  21  22
ENDBRANCH  20  21
ENDBRANCH  18  20
ENDBRANCH  15  17
ENDBRANCH   1  15
TORSDOF 9
