REMARK  Name = ZINCpe000000W4U2.0
REMARK                            x       y       z     vdW  Elec       q    Type
REMARK                         _______ _______ _______ _____ _____    ______ ____
ROOT
ATOM      1  N   LIG    1       -0.069   5.242   0.031  0.00  0.00    -0.670 N 
ATOM      2  H   LIG    1       -0.912   5.715  -0.040  0.00  0.00    +0.410 HD
ATOM      3  C   LIG    1        1.085   5.931   0.126  0.00  0.00    +0.530 C 
ATOM      4  O   LIG    1        2.146   5.342   0.114  0.00  0.00    -0.500 OA
ENDROOT
BRANCH   1  10
ATOM      5  C   LIG    1       -1.087   3.132  -0.558  0.00  0.00    -0.120 A 
ATOM      6  C   LIG    1       -1.065   1.751  -0.557  0.00  0.00    +0.060 A 
ATOM      7  C   LIG    1       -0.016   1.076   0.041  0.00  0.00    +0.000 A 
ATOM      8  C   LIG    1        1.018   1.780   0.630  0.00  0.00    +0.030 A 
ATOM      9  C   LIG    1        1.003   3.162   0.628  0.00  0.00    +0.020 A 
ATOM     10  C   LIG    1       -0.051   3.842   0.034  0.00  0.00    +0.150 A 
BRANCH   5  11
ATOM     11  C   LIG    1       -2.233   3.867  -1.204  0.00  0.00    +0.220 C 
BRANCH  11  13
ATOM     12  C   LIG    1       -4.296   3.519  -2.375  0.00  0.00    +0.200 C 
ATOM     13  O   LIG    1       -3.165   2.923  -1.737  0.00  0.00    -0.380 OA
ENDBRANCH  11  13
ENDBRANCH   5  11
ENDBRANCH   1  10
BRANCH   3  14
ATOM     14  C   LIG    1        1.058   7.432   0.248  0.00  0.00    +0.010 C 
ATOM     15  C   LIG    1        0.317   7.870   1.533  0.00  0.00    +0.080 C 
ATOM     16  C   LIG    1        1.094   9.074   2.018  0.00  0.00    +0.520 C 
ATOM     17  N   LIG    1        2.296   9.120   1.419  0.00  0.00    -0.610 N 
ATOM     18  O   LIG    1        0.690   9.880   2.830  0.00  0.00    -0.510 OA
ATOM     19  C   LIG    1        2.477   7.992   0.498  0.00  0.00    +0.310 C 
BRANCH  17  20
ATOM     20  C   LIG    1        3.297  10.164   1.654  0.00  0.00    +0.290 C 
ATOM     21  C   LIG    1        3.701  10.168   3.139  0.00  0.00    +0.060 C 
ATOM     22  C   LIG    1        4.489  11.481   3.381  0.00  0.00    -0.310 C 
ATOM     23  S   LIG    1        3.502  12.715   2.453  0.00  0.00    +2.400 S 
ATOM     24  O   LIG    1        4.376  13.570   1.730  0.00  0.00    -0.930 OA
ATOM     25  O   LIG    1        2.518  13.273   3.313  0.00  0.00    -0.920 OA
ATOM     26  C   LIG    1        2.702  11.542   1.303  0.00  0.00    -0.330 C 
ENDBRANCH  17  20
ENDBRANCH   3  14
TORSDOF 5
