REMARK  Name = ZINCtj00000u25za.1
REMARK                            x       y       z     vdW  Elec       q    Type
REMARK                         _______ _______ _______ _____ _____    ______ ____
ROOT
ATOM      1  C   LIG    1       -1.417   5.462   4.575  0.00  0.00    +0.230 C 
ATOM      2  C   LIG    1       -2.132   5.582   5.938  0.00  0.00    +0.050 C 
ATOM      3  C   LIG    1       -2.933   4.257   6.030  0.00  0.00    +0.050 C 
ATOM      4  C   LIG    1       -1.970   3.261   5.336  0.00  0.00    +0.250 C 
ATOM      5  N   LIG    1       -1.359   4.032   4.237  0.00  0.00    -0.590 N 
ATOM      6  C   LIG    1       -0.829   3.511   3.113  0.00  0.00    +0.520 C 
ATOM      7  O   LIG    1       -0.388   4.245   2.254  0.00  0.00    -0.530 OA
ENDROOT
BRANCH   6   8
ATOM      8  C   LIG    1       -0.785   2.017   2.922  0.00  0.00    +0.010 C 
ATOM      9  C   LIG    1       -2.154   1.522   2.445  0.00  0.00    +0.070 C 
ATOM     10  C   LIG    1       -2.462   2.142   1.079  0.00  0.00    +0.060 C 
ATOM     11  C   LIG    1       -1.343   1.786   0.099  0.00  0.00    +0.250 C 
ATOM     12  N   LIG    1       -0.065   2.309   0.598  0.00  0.00    -0.380 N 
ATOM     13  H   LIG    1       -0.142   3.305   0.737  0.00  0.00    +0.430 HD
ATOM     14  C   LIG    1        0.272   1.665   1.873  0.00  0.00    +0.270 C 
BRANCH  12  15
ATOM     15  C   LIG    1        0.992   2.033  -0.383  0.00  0.00    +0.160 C 
ATOM     16  C   LIG    1        0.646   2.711  -1.710  0.00  0.00    +0.080 C 
ATOM     17  C   LIG    1        2.324   2.578   0.136  0.00  0.00    +0.080 C 
ENDBRANCH  12  15
ENDBRANCH   6   8
BRANCH   1  18
ATOM     18  C   LIG    1        0.000   6.030   4.676  0.00  0.00    +0.010 C 
BRANCH  18  19
ATOM     19  C   LIG    1        0.740   5.792   3.358  0.00  0.00    +0.280 C 
BRANCH  19  21
ATOM     20  C   LIG    1        2.846   6.442   2.318  0.00  0.00    +0.580 C 
ATOM     21  N   LIG    1        2.019   6.507   3.380  0.00  0.00    -0.720 N 
ATOM     22  H   LIG    1        2.270   7.027   4.160  0.00  0.00    +0.410 HD
ATOM     23  O   LIG    1        2.491   5.869   1.306  0.00  0.00    -0.550 OA
BRANCH  20  30
ATOM     24  C   LIG    1        7.172   7.846   0.208  0.00  0.00    +0.180 C 
ATOM     25  C   LIG    1        6.254   7.746   1.399  0.00  0.00    +0.050 A 
ATOM     26  N   LIG    1        6.635   8.226   2.551  0.00  0.00    -0.190 NA
ATOM     27  N   LIG    1        5.905   8.175   3.605  0.00  0.00    -0.430 N 
ATOM     28  H   LIG    1        6.246   8.551   4.432  0.00  0.00    +0.450 HD
ATOM     29  C   LIG    1        4.678   7.621   3.595  0.00  0.00    +0.490 A 
ATOM     30  C   LIG    1        4.180   7.065   2.383  0.00  0.00    -0.230 A 
ATOM     31  O   LIG    1        4.005   7.592   4.611  0.00  0.00    -0.530 OA
ATOM     32  C   LIG    1        5.000   7.138   1.260  0.00  0.00    +0.190 A 
ENDBRANCH  20  30
ENDBRANCH  19  21
ENDBRANCH  18  19
ENDBRANCH   1  18
TORSDOF 6
