REMARK  Name = ZINCtj00000u25za.0
REMARK                            x       y       z     vdW  Elec       q    Type
REMARK                         _______ _______ _______ _____ _____    ______ ____
ROOT
ATOM      1  C   LIG    1       -2.253   7.734   3.552  0.00  0.00    +0.230 C 
ATOM      2  C   LIG    1       -2.957   7.889   4.917  0.00  0.00    +0.040 C 
ATOM      3  C   LIG    1       -3.737   6.556   5.060  0.00  0.00    +0.040 C 
ATOM      4  C   LIG    1       -2.768   5.553   4.391  0.00  0.00    +0.250 C 
ATOM      5  N   LIG    1       -2.171   6.294   3.266  0.00  0.00    -0.610 N 
ATOM      6  C   LIG    1       -1.641   5.743   2.155  0.00  0.00    +0.520 C 
ATOM      7  O   LIG    1       -1.269   6.453   1.245  0.00  0.00    -0.500 OA
ENDROOT
BRANCH   6   8
ATOM      8  C   LIG    1       -1.512   4.246   2.045  0.00  0.00    -0.020 C 
ATOM      9  C   LIG    1       -2.878   3.638   1.715  0.00  0.00    +0.060 C 
ATOM     10  C   LIG    1       -2.721   2.126   1.528  0.00  0.00    +0.070 C 
ATOM     11  C   LIG    1       -1.687   1.858   0.432  0.00  0.00    +0.250 C 
ATOM     12  N   LIG    1       -0.397   2.441   0.819  0.00  0.00    -0.380 N 
ATOM     13  H   LIG    1       -0.111   2.060   1.708  0.00  0.00    +0.420 HD
ATOM     14  C   LIG    1       -0.523   3.899   0.930  0.00  0.00    +0.280 C 
BRANCH  12  15
ATOM     15  C   LIG    1        0.611   2.114  -0.199  0.00  0.00    +0.160 C 
ATOM     16  C   LIG    1        1.958   2.714   0.207  0.00  0.00    +0.080 C 
ATOM     17  C   LIG    1        0.743   0.595  -0.316  0.00  0.00    +0.090 C 
ENDBRANCH  12  15
ENDBRANCH   6   8
BRANCH   1  18
ATOM     18  C   LIG    1       -0.847   8.333   3.617  0.00  0.00    +0.010 C 
BRANCH  18  19
ATOM     19  C   LIG    1       -0.161   8.172   2.259  0.00  0.00    +0.290 C 
BRANCH  19  21
ATOM     20  C   LIG    1        1.864   8.946   1.147  0.00  0.00    +0.580 C 
ATOM     21  N   LIG    1        1.086   8.940   2.248  0.00  0.00    -0.720 N 
ATOM     22  H   LIG    1        1.353   9.443   3.032  0.00  0.00    +0.410 HD
ATOM     23  O   LIG    1        1.486   8.391   0.133  0.00  0.00    -0.540 OA
BRANCH  20  30
ATOM     24  C   LIG    1        6.035  10.581  -1.104  0.00  0.00    +0.180 C 
ATOM     25  C   LIG    1        5.173  10.416   0.120  0.00  0.00    +0.060 A 
ATOM     26  N   LIG    1        5.580  10.888   1.267  0.00  0.00    -0.200 NA
ATOM     27  N   LIG    1        4.898  10.783   2.348  0.00  0.00    -0.430 N 
ATOM     28  H   LIG    1        5.255  11.156   3.169  0.00  0.00    +0.450 HD
ATOM     29  C   LIG    1        3.696  10.176   2.375  0.00  0.00    +0.490 A 
ATOM     30  C   LIG    1        3.172   9.625   1.172  0.00  0.00    -0.220 A 
ATOM     31  O   LIG    1        3.067  10.097   3.417  0.00  0.00    -0.530 OA
ATOM     32  C   LIG    1        3.941   9.758   0.018  0.00  0.00    +0.190 A 
ENDBRANCH  20  30
ENDBRANCH  19  21
ENDBRANCH  18  19
ENDBRANCH   1  18
TORSDOF 6
