REMARK  Name = ZINCpk00000ebBhv.0
REMARK                            x       y       z     vdW  Elec       q    Type
REMARK                         _______ _______ _______ _____ _____    ______ ____
ROOT
ATOM      1  O   LIG    1       -0.184   3.900  -0.822  0.00  0.00    -0.580 OA
ATOM      2  C   LIG    1        0.832   3.737  -1.469  0.00  0.00    +0.730 C 
ATOM      3  N   LIG    1        1.131   4.578  -2.479  0.00  0.00    -0.630 N 
ATOM      4  C   LIG    1        2.314   4.519  -3.344  0.00  0.00    +0.300 C 
ATOM      5  C   LIG    1        2.219   5.658  -4.328  0.00  0.00    -0.110 A 
ATOM      6  C   LIG    1        3.063   6.050  -5.352  0.00  0.00    +0.040 A 
ATOM      7  C   LIG    1        2.750   7.154  -6.123  0.00  0.00    +0.020 A 
ATOM      8  C   LIG    1        1.594   7.867  -5.871  0.00  0.00    +0.020 A 
ATOM      9  C   LIG    1        0.751   7.476  -4.848  0.00  0.00    +0.040 A 
ATOM     10  C   LIG    1        1.063   6.371  -4.076  0.00  0.00    -0.100 A 
ATOM     11  C   LIG    1        0.339   5.731  -2.918  0.00  0.00    +0.330 C 
ATOM     12  N   LIG    1        1.660   2.714  -1.177  0.00  0.00    -0.740 N 
ATOM     13  H   LIG    1        2.470   2.583  -1.694  0.00  0.00    +0.400 HD
ENDROOT
BRANCH  12  14
ATOM     14  C   LIG    1        1.338   1.803  -0.076  0.00  0.00    +0.260 C 
BRANCH  14  15
ATOM     15  C   LIG    1        2.344   0.649  -0.058  0.00  0.00    +0.190 C 
BRANCH  15  16
ATOM     16  N   LIG    1        2.152  -0.185  -1.252  0.00  0.00    -0.520 NA
ATOM     17  C   LIG    1        2.303   0.609  -2.480  0.00  0.00    +0.140 C 
ATOM     18  C   LIG    1        2.156  -0.309  -3.696  0.00  0.00    +0.220 C 
ATOM     19  O   LIG    1        0.892  -0.976  -3.634  0.00  0.00    -0.380 OA
ATOM     20  C   LIG    1        0.712  -1.759  -2.451  0.00  0.00    +0.220 C 
ATOM     21  C   LIG    1        0.844  -0.855  -1.222  0.00  0.00    +0.150 C 
ENDBRANCH  15  16
BRANCH  15  22
ATOM     22  C   LIG    1        3.766   1.213  -0.052  0.00  0.00    -0.030 C 
ATOM     23  C   LIG    1        3.993   2.096   1.195  0.00  0.00    +0.010 C 
ATOM     24  C   LIG    1        5.136   1.387   1.954  0.00  0.00    +0.190 C 
ATOM     25  O   LIG    1        5.834   0.626   0.944  0.00  0.00    -0.380 OA
ATOM     26  C   LIG    1        4.798   0.074   0.101  0.00  0.00    +0.220 C 
ENDBRANCH  15  22
ENDBRANCH  14  15
ENDBRANCH  12  14
TORSDOF 4
