REMARK  Name = ZINCrH000004mupD.0
REMARK                            x       y       z     vdW  Elec       q    Type
REMARK                         _______ _______ _______ _____ _____    ______ ____
ROOT
ATOM      1  C   LIG    1        1.034   1.617   0.133  0.00  0.00    +0.210 A 
ATOM      2  C   LIG    1        1.019   2.982  -0.124  0.00  0.00    +0.010 A 
ATOM      3  C   LIG    1        2.205   3.689  -0.158  0.00  0.00    +0.150 A 
ATOM      4  C   LIG    1        3.406   3.039   0.054  0.00  0.00    -0.690 A 
ATOM      5  C   LIG    1        3.425   1.679   0.305  0.00  0.00    +0.150 A 
ATOM      6  C   LIG    1        2.243   0.967   0.345  0.00  0.00    -0.030 A 
ENDROOT
BRANCH   1   8
ATOM      7  C   LIG    1       -1.279   1.473   0.668  0.00  0.00    +0.570 C 
ATOM      8  N   LIG    1       -0.165   0.898   0.173  0.00  0.00    -0.680 N 
ATOM      9  H   LIG    1       -0.196  -0.012  -0.160  0.00  0.00    +0.410 HD
ATOM     10  O   LIG    1       -1.262   2.641   1.006  0.00  0.00    -0.510 OA
BRANCH   7  14
ATOM     11  C   LIG    1       -4.849  -0.796   1.048  0.00  0.00    +0.160 A 
ATOM     12  C   LIG    1       -4.831   0.539   1.435  0.00  0.00    -0.020 A 
ATOM     13  C   LIG    1       -3.676   1.278   1.313  0.00  0.00    +0.140 A 
ATOM     14  C   LIG    1       -2.520   0.684   0.800  0.00  0.00    -0.180 A 
ATOM     15  C   LIG    1       -2.543  -0.656   0.407  0.00  0.00    +0.090 A 
ATOM     16  C   LIG    1       -3.701  -1.390   0.537  0.00  0.00    -0.080 A 
BRANCH  11  18
ATOM     17  C   LIG    1       -5.938  -2.886   0.752  0.00  0.00    +0.250 C 
ATOM     18  O   LIG    1       -5.990  -1.520   1.169  0.00  0.00    -0.310 OA
ENDBRANCH  11  18
ENDBRANCH   7  14
ENDBRANCH   1   8
BRANCH   4  19
ATOM     19  S   LIG    1        4.917   3.944   0.004  0.00  0.00    +2.690 S 
ATOM     20  O   LIG    1        5.885   3.147   0.672  0.00  0.00    -0.950 OA
ATOM     21  O   LIG    1        4.601   5.273   0.395  0.00  0.00    -0.950 OA
BRANCH  19  22
ATOM     22  N   LIG    1        5.389   4.023  -1.581  0.00  0.00    -1.060 N 
ATOM     23  H   LIG    1        6.218   3.605  -1.862  0.00  0.00    +0.430 HD
BRANCH  22  24
ATOM     24  C   LIG    1        4.593   4.690  -2.515  0.00  0.00    +0.120 A 
ATOM     25  C   LIG    1        3.836   3.966  -3.428  0.00  0.00    +0.020 A 
ATOM     26  C   LIG    1        3.046   4.629  -4.347  0.00  0.00    +0.020 A 
ATOM     27  C   LIG    1        3.016   6.012  -4.365  0.00  0.00    +0.020 A 
ATOM     28  C   LIG    1        3.771   6.735  -3.460  0.00  0.00    +0.020 A 
ATOM     29  C   LIG    1        4.559   6.079  -2.536  0.00  0.00    +0.040 A 
ENDBRANCH  22  24
ENDBRANCH  19  22
ENDBRANCH   4  19
TORSDOF 6
