REMARK  Name = ZINCrH000004tpSy.0
REMARK                            x       y       z     vdW  Elec       q    Type
REMARK                         _______ _______ _______ _____ _____    ______ ____
ROOT
ATOM      1  C   LIG    1       -3.452   5.362  -1.371  0.00  0.00    +0.500 C 
ATOM      2  N   LIG    1       -3.639   6.678  -1.596  0.00  0.00    -0.570 N 
ATOM      3  O   LIG    1       -3.429   4.585  -2.301  0.00  0.00    -0.490 OA
ENDROOT
BRANCH   2   4
ATOM      4  C   LIG    1       -3.703   7.161  -2.908  0.00  0.00    +0.140 A 
ATOM      5  C   LIG    1       -2.573   7.134  -3.715  0.00  0.00    +0.020 A 
ATOM      6  C   LIG    1       -2.641   7.606  -5.011  0.00  0.00    +0.020 A 
ATOM      7  C   LIG    1       -3.829   8.116  -5.502  0.00  0.00    +0.020 A 
ATOM      8  C   LIG    1       -4.955   8.149  -4.699  0.00  0.00    +0.020 A 
ATOM      9  C   LIG    1       -4.895   7.673  -3.404  0.00  0.00    +0.010 A 
ENDBRANCH   2   4
BRANCH   1  10
ATOM     10  C   LIG    1       -3.271   4.858   0.038  0.00  0.00    +0.380 C 
BRANCH  10  13
ATOM     11  C   LIG    1       -3.607   1.245   0.048  0.00  0.00    +0.170 A 
ATOM     12  N   LIG    1       -4.112   2.458   0.096  0.00  0.00    -0.180 NA
ATOM     13  N   LIG    1       -3.086   3.405   0.016  0.00  0.00    -0.370 N 
ATOM     14  C   LIG    1       -1.879   2.759  -0.088  0.00  0.00    +0.140 A 
ATOM     15  C   LIG    1       -0.562   3.198  -0.195  0.00  0.00    +0.000 A 
ATOM     16  C   LIG    1        0.459   2.278  -0.285  0.00  0.00    +0.080 A 
ATOM     17  C   LIG    1        0.187   0.916  -0.268  0.00  0.00    -0.010 A 
ATOM     18  C   LIG    1       -1.098   0.465  -0.164  0.00  0.00    +0.090 A 
ATOM     19  C   LIG    1       -2.149   1.379  -0.078  0.00  0.00    -0.140 A 
BRANCH  11  21
ATOM     20  N   LIG    1       -4.927  -0.955   0.146  0.00  0.00    -0.370 NA
ATOM     21  C   LIG    1       -4.343   0.018   0.103  0.00  0.00    +0.290 C 
ENDBRANCH  11  21
ENDBRANCH  10  13
ENDBRANCH   1  10
BRANCH   2  22
ATOM     22  C   LIG    1       -3.776   7.602  -0.468  0.00  0.00    +0.410 C 
BRANCH  22  23
ATOM     23  C   LIG    1       -2.416   8.121  -0.075  0.00  0.00    -0.060 A 
ATOM     24  C   LIG    1       -1.823   9.223  -0.566  0.00  0.00    -0.020 A 
ATOM     25  C   LIG    1       -0.568   9.333   0.075  0.00  0.00    -0.060 A 
ATOM     26  C   LIG    1       -0.469   8.291   0.919  0.00  0.00    +0.180 A 
ATOM     27  O   LIG    1       -1.594   7.563   0.828  0.00  0.00    -0.180 OA
ENDBRANCH  22  23
ENDBRANCH   2  22
TORSDOF 6
