REMARK  Name = ZINCqH0000002Ohd.2
REMARK                            x       y       z     vdW  Elec       q    Type
REMARK                         _______ _______ _______ _____ _____    ______ ____
ROOT
ATOM      1  N   LIG    1        1.756   5.565   1.325  0.00  0.00    -0.720 N 
ATOM      2  H   LIG    1        1.268   6.045   0.638  0.00  0.00    +0.400 HD
ATOM      3  C   LIG    1        2.321   6.241   2.345  0.00  0.00    +0.530 C 
ATOM      4  O   LIG    1        2.932   5.641   3.205  0.00  0.00    -0.520 OA
ENDROOT
BRANCH   1   5
ATOM      5  C   LIG    1        1.878   4.107   1.255  0.00  0.00    +0.280 C 
BRANCH   5   6
ATOM      6  C   LIG    1        1.152   3.594   0.010  0.00  0.00    +0.030 C 
BRANCH   6   7
ATOM      7  C   LIG    1        1.172   2.087   0.002  0.00  0.00    -0.060 A 
ATOM      8  C   LIG    1        2.378   1.412  -0.013  0.00  0.00    +0.050 A 
ATOM      9  C   LIG    1        2.398   0.030  -0.021  0.00  0.00    +0.040 A 
ATOM     10  C   LIG    1        1.210  -0.679  -0.013  0.00  0.00    -0.030 A 
ATOM     11  C   LIG    1        0.002  -0.004   0.002  0.00  0.00    +0.050 A 
ATOM     12 CL   LIG    1        1.234  -2.415  -0.022  0.00  0.00    -0.050 Cl
ATOM     13  C   LIG    1       -0.017   1.379   0.010  0.00  0.00    -0.020 A 
ATOM     14 CL   LIG    1       -1.532   2.227   0.021  0.00  0.00    -0.050 Cl
ENDBRANCH   6   7
BRANCH   6  15
ATOM     15  C   LIG    1        1.855   4.120  -1.243  0.00  0.00    +0.030 C 
BRANCH  15  17
ATOM     16  C   LIG    1        1.761   4.236  -3.737  0.00  0.00    +0.000 C 
ATOM     17  C   LIG    1        1.058   3.711  -2.484  0.00  0.00    +0.000 C 
ENDBRANCH  15  17
ENDBRANCH   6  15
ENDBRANCH   5   6
ENDBRANCH   1   5
BRANCH   3  18
ATOM     18  C   LIG    1        2.195   7.741   2.417  0.00  0.00    +0.090 C 
BRANCH  18  19
ATOM     19  S   LIG    1        3.054   8.348   3.890  0.00  0.00    +0.090 S 
BRANCH  19  20
ATOM     20  C   LIG    1        2.754  10.077   3.728  0.00  0.00    +0.360 A 
ATOM     21  N   LIG    1        2.057  10.516   2.691  0.00  0.00    -0.620 NA
ATOM     22  C   LIG    1        1.806  11.815   2.539  0.00  0.00    +0.480 A 
ATOM     23  C   LIG    1        2.297  12.714   3.481  0.00  0.00    -0.230 A 
ATOM     24  C   LIG    1        3.030  12.216   4.554  0.00  0.00    +0.480 A 
ATOM     25  N   LIG    1        3.237  10.904   4.644  0.00  0.00    -0.590 NA
BRANCH  24  26
ATOM     26  N   LIG    1        3.539  13.074   5.516  0.00  0.00    -0.840 N 
ATOM     27  H   LIG    1        3.385  14.029   5.444  0.00  0.00    +0.410 HD
ATOM     28  H   LIG    1        4.049  12.720   6.261  0.00  0.00    +0.410 HD
ENDBRANCH  24  26
BRANCH  22  29
ATOM     29  N   LIG    1        1.071  12.265   1.454  0.00  0.00    -0.840 N 
ATOM     30  H   LIG    1        0.732  11.633   0.801  0.00  0.00    +0.410 HD
ATOM     31  H   LIG    1        0.895  13.213   1.348  0.00  0.00    +0.410 HD
ENDBRANCH  22  29
ENDBRANCH  19  20
ENDBRANCH  18  19
ENDBRANCH   3  18
TORSDOF 10
