REMARK  Name = ZINCrH000004tdCX.0
REMARK                            x       y       z     vdW  Elec       q    Type
REMARK                         _______ _______ _______ _____ _____    ______ ____
ROOT
ATOM      1  C   LIG    1        5.747   2.557  -0.038  0.00  0.00    +0.230 A 
ATOM      2  N   LIG    1        4.905   1.540  -0.031  0.00  0.00    -0.450 NA
ATOM      3  C   LIG    1        3.673   2.091  -0.022  0.00  0.00    +0.210 A 
ATOM      4  N   LIG    1        3.827   3.390  -0.016  0.00  0.00    -0.360 NA
ATOM      5  O   LIG    1        5.005   3.675  -0.025  0.00  0.00    +0.110 OA
ENDROOT
BRANCH   1   8
ATOM      6  F   LIG    1        7.381   4.855  -0.042  0.00  0.00    -0.110 F 
ATOM      7  C   LIG    1        7.987   3.648  -0.053  0.00  0.00    +0.180 A 
ATOM      8  C   LIG    1        7.222   2.478  -0.052  0.00  0.00    -0.070 A 
ATOM      9  C   LIG    1        7.858   1.235  -0.059  0.00  0.00    +0.150 A 
ATOM     10  C   LIG    1        9.235   1.169  -0.076  0.00  0.00    +0.020 A 
ATOM     11  C   LIG    1        9.989   2.330  -0.077  0.00  0.00    +0.130 A 
ATOM     12  C   LIG    1        9.368   3.565  -0.066  0.00  0.00    -0.210 A 
BRANCH  12  13
ATOM     13  C   LIG    1       10.196   4.824  -0.067  0.00  0.00    +0.450 C 
ATOM     14  F   LIG    1        9.912   5.570   1.082  0.00  0.00    -0.190 F 
ATOM     15  F   LIG    1        9.892   5.582  -1.203  0.00  0.00    -0.190 F 
ENDBRANCH  12  13
ENDBRANCH   1   8
BRANCH   3  16
ATOM     16  C   LIG    1        2.382   1.358  -0.014  0.00  0.00    +0.050 A 
ATOM     17  C   LIG    1        2.350  -0.040  -0.021  0.00  0.00    -0.010 A 
ATOM     18  C   LIG    1        1.132  -0.686  -0.012  0.00  0.00    +0.300 A 
ATOM     19  N   LIG    1        0.002  -0.004   0.002  0.00  0.00    -0.510 NA
ATOM     20  C   LIG    1       -0.016   1.320   0.009  0.00  0.00    +0.320 A 
ATOM     21  C   LIG    1        1.169   2.046   0.002  0.00  0.00    +0.000 A 
BRANCH  20  22
ATOM     22  N   LIG    1       -1.233   1.991   0.019  0.00  0.00    -0.480 N 
ATOM     23  C   LIG    1       -1.322   2.905   1.167  0.00  0.00    +0.180 C 
ATOM     24  C   LIG    1       -2.650   3.666   1.105  0.00  0.00    +0.230 C 
ATOM     25  O   LIG    1       -3.729   2.728   1.075  0.00  0.00    -0.380 OA
ATOM     26  C   LIG    1       -3.675   1.823  -0.031  0.00  0.00    +0.230 C 
ATOM     27  C   LIG    1       -2.357   1.044   0.019  0.00  0.00    +0.190 C 
ENDBRANCH  20  22
ENDBRANCH   3  16
TORSDOF 4
