REMARK  Name = ZINCkj000005maJU.1
REMARK                            x       y       z     vdW  Elec       q    Type
REMARK                         _______ _______ _______ _____ _____    ______ ____
ROOT
ATOM      1  N   LIG    1       -0.202  -0.071  -0.271  0.00  0.00    -0.370 N 
ATOM      2  C   LIG    1       -0.137   1.398  -0.250  0.00  0.00    +0.270 C 
ATOM      3  C   LIG    1        1.304   1.827  -0.529  0.00  0.00    +0.130 C 
ATOM      4  C   LIG    1        1.810   1.137  -1.770  0.00  0.00    -0.090 A 
ATOM      5  C   LIG    1        2.948   1.631  -2.387  0.00  0.00    +0.040 A 
ATOM      6  C   LIG    1        3.446   1.021  -3.522  0.00  0.00    +0.050 A 
ATOM      7  C   LIG    1        2.804  -0.086  -4.045  0.00  0.00    +0.040 A 
ATOM      8  C   LIG    1        1.669  -0.578  -3.431  0.00  0.00    +0.050 A 
ATOM      9  C   LIG    1        1.169   0.034  -2.292  0.00  0.00    -0.130 A 
ATOM     10  C   LIG    1       -0.073  -0.534  -1.656  0.00  0.00    +0.330 C 
ATOM     11  H   LIG    1        0.552  -0.450   0.283  0.00  0.00    +0.430 HD
ENDROOT
BRANCH   1  15
ATOM     12  O   LIG    1       -1.879  -1.496   3.702  0.00  0.00    -0.430 OA
ATOM     13  C   LIG    1       -1.750  -1.384   2.502  0.00  0.00    +0.520 C 
ATOM     14  C   LIG    1       -1.630  -0.076   1.751  0.00  0.00    +0.130 C 
ATOM     15  C   LIG    1       -1.489  -0.515   0.280  0.00  0.00    +0.180 C 
ATOM     16  C   LIG    1       -1.546  -2.026   0.350  0.00  0.00    +0.520 C 
ATOM     17  O   LIG    1       -1.472  -2.776  -0.600  0.00  0.00    -0.430 OA
ATOM     18  N   LIG    1       -1.690  -2.399   1.631  0.00  0.00    -0.530 N 
BRANCH  18  19
ATOM     19  C   LIG    1       -1.778  -3.802   2.042  0.00  0.00    +0.180 C 
ATOM     20  C   LIG    1       -2.288  -4.095   3.454  0.00  0.00    +0.080 C 
ATOM     21  C   LIG    1       -0.806  -4.285   3.120  0.00  0.00    +0.050 C 
ENDBRANCH  18  19
ENDBRANCH   1  15
TORSDOF 2
