REMARK  Name = ZINCpe000000XpKH.0
REMARK                            x       y       z     vdW  Elec       q    Type
REMARK                         _______ _______ _______ _____ _____    ______ ____
ROOT
ATOM      1  N   LIG    1        2.410   1.044  -0.013  0.00  0.00    -0.520 NA
ATOM      2  C   LIG    1        2.466   0.267   1.232  0.00  0.00    +0.170 C 
ATOM      3  C   LIG    1        3.537  -0.821   1.104  0.00  0.00    +0.280 C 
ATOM      4  N   LIG    1        4.804  -0.186   0.710  0.00  0.00    -0.630 N 
ATOM      5  C   LIG    1        4.798   0.718  -0.450  0.00  0.00    +0.320 C 
ATOM      6  C   LIG    1        5.940  -0.425   1.394  0.00  0.00    +0.710 C 
ATOM      7  N   LIG    1        5.907  -1.176   2.513  0.00  0.00    -0.740 N 
ATOM      8  H   LIG    1        5.081  -1.605   2.786  0.00  0.00    +0.390 HD
ATOM      9  O   LIG    1        6.995   0.035   1.002  0.00  0.00    -0.590 OA
ATOM     10  C   LIG    1        3.677   1.746  -0.260  0.00  0.00    +0.170 C 
ENDROOT
BRANCH   7  11
ATOM     11  C   LIG    1        7.120  -1.345   3.318  0.00  0.00    +0.250 C 
ATOM     12  C   LIG    1        7.954  -2.494   2.748  0.00  0.00    +0.000 C 
ATOM     13  C   LIG    1        9.221  -2.670   3.588  0.00  0.00    +0.000 C 
ATOM     14  C   LIG    1        8.834  -2.989   5.033  0.00  0.00    +0.000 C 
ATOM     15  C   LIG    1        7.999  -1.840   5.603  0.00  0.00    +0.020 C 
ATOM     16  C   LIG    1        6.732  -1.664   4.763  0.00  0.00    +0.010 C 
ENDBRANCH   7  11
BRANCH   1  17
ATOM     17  C   LIG    1        1.282   1.985   0.004  0.00  0.00    +0.210 C 
BRANCH  17  24
ATOM     18  C   LIG    1       -4.743   1.100   1.063  0.00  0.00    +0.070 C 
ATOM     19  C   LIG    1       -3.340   1.702   1.156  0.00  0.00    +0.130 C 
ATOM     20  C   LIG    1       -2.467   1.145   0.020  0.00  0.00    +0.260 C 
ATOM     21  N   LIG    1       -1.189   1.875   0.023  0.00  0.00    -0.620 N 
ATOM     22  C   LIG    1       -1.232   3.345   0.031  0.00  0.00    +0.240 C 
ATOM     23  C   LIG    1       -2.165   3.795   1.162  0.00  0.00    +0.220 C 
ATOM     24  C   LIG    1       -0.013   1.215   0.013  0.00  0.00    +0.520 C 
ATOM     25  O   LIG    1        0.002   0.003   0.006  0.00  0.00    -0.520 OA
ATOM     26  O   LIG    1       -3.421   3.124   1.031  0.00  0.00    -0.370 OA
ENDBRANCH  17  24
ENDBRANCH   1  17
TORSDOF 3
