REMARK  Name = ZINCvU0000000Hhi.0
REMARK                            x       y       z     vdW  Elec       q    Type
REMARK                         _______ _______ _______ _____ _____    ______ ____
ROOT
ATOM      1  C   LIG    1        2.378   4.331   0.142  0.00  0.00    +0.510 C 
ATOM      2  O   LIG    1        3.465   3.790   0.164  0.00  0.00    -0.480 OA
ENDROOT
BRANCH   1   8
ATOM      3  C   LIG    1        1.235   2.118  -0.107  0.00  0.00    -0.080 A 
ATOM      4  C   LIG    1        0.075   1.369  -0.288  0.00  0.00    +0.040 A 
ATOM      5  C   LIG    1       -1.146   2.006  -0.415  0.00  0.00    +0.060 A 
ATOM      6  C   LIG    1       -1.225   3.386  -0.354  0.00  0.00    +0.020 A 
ATOM      7  C   LIG    1       -0.084   4.146  -0.174  0.00  0.00    +0.090 A 
ATOM      8  C   LIG    1        1.155   3.523  -0.050  0.00  0.00    -0.100 A 
BRANCH   3   9
ATOM      9  C   LIG    1        2.543   1.442   0.024  0.00  0.00    +0.450 C 
ATOM     10  O   LIG    1        2.846   0.900   1.069  0.00  0.00    -0.440 OA
BRANCH   9  15
ATOM     11  C   LIG    1        6.203   1.374  -4.415  0.00  0.00    +0.100 C 
ATOM     12  C   LIG    1        5.245   1.392  -3.253  0.00  0.00    -0.060 A 
ATOM     13  C   LIG    1        5.551   0.694  -2.097  0.00  0.00    +0.000 A 
ATOM     14  C   LIG    1        4.678   0.706  -1.029  0.00  0.00    +0.070 A 
ATOM     15  C   LIG    1        3.483   1.425  -1.116  0.00  0.00    -0.140 A 
ATOM     16  C   LIG    1        3.178   2.122  -2.287  0.00  0.00    +0.050 A 
ATOM     17  C   LIG    1        4.063   2.106  -3.345  0.00  0.00    +0.000 A 
ENDBRANCH   9  15
ENDBRANCH   3   9
ENDBRANCH   1   8
BRANCH   1  18
ATOM     18  O   LIG    1        2.286   5.666   0.291  0.00  0.00    -0.320 OA
BRANCH  18  19
ATOM     19  C   LIG    1        3.528   6.396   0.475  0.00  0.00    +0.200 C 
ATOM     20  C   LIG    1        4.077   6.819  -0.889  0.00  0.00    +0.070 C 
BRANCH  19  21
ATOM     21  C   LIG    1        3.272   7.620   1.315  0.00  0.00    +0.520 C 
ATOM     22  N   LIG    1        4.287   8.454   1.617  0.00  0.00    -0.670 N 
ATOM     23  H   LIG    1        5.193   8.231   1.354  0.00  0.00    +0.420 HD
ATOM     24  O   LIG    1        2.153   7.855   1.720  0.00  0.00    -0.490 OA
BRANCH  22  25
ATOM     25  C   LIG    1        4.033   9.642   2.312  0.00  0.00    +0.170 A 
ATOM     26  C   LIG    1        4.773  10.783   2.032  0.00  0.00    +0.020 A 
ATOM     27  C   LIG    1        4.516  11.957   2.714  0.00  0.00    -0.010 A 
ATOM     28  C   LIG    1        3.530  11.993   3.684  0.00  0.00    +0.040 A 
ATOM     29  C   LIG    1        2.794  10.856   3.969  0.00  0.00    -0.000 A 
ATOM     30 CL   LIG    1        1.558  10.905   5.187  0.00  0.00    -0.050 Cl
ATOM     31 CL   LIG    1        5.435  13.386   2.359  0.00  0.00    -0.050 Cl
ATOM     32  C   LIG    1        3.043   9.681   3.285  0.00  0.00    +0.050 A 
ENDBRANCH  22  25
ENDBRANCH  19  21
ENDBRANCH  18  19
ENDBRANCH   1  18
TORSDOF 7
