REMARK  Name = ZINCrH000004jkeH.0
REMARK                            x       y       z     vdW  Elec       q    Type
REMARK                         _______ _______ _______ _____ _____    ______ ____
ROOT
ATOM      1  N   LIG    1       -1.156  -0.694   0.009  0.00  0.00    -0.690 N 
ATOM      2  H   LIG    1       -1.998  -0.213  -0.029  0.00  0.00    +0.410 HD
ATOM      3  C   LIG    1       -0.001  -0.018   0.171  0.00  0.00    +0.700 C 
ATOM      4  N   LIG    1       -0.004   1.330   0.173  0.00  0.00    -0.730 N 
ATOM      5  H   LIG    1       -0.836   1.813   0.053  0.00  0.00    +0.400 HD
ATOM      6  O   LIG    1        1.043  -0.624   0.316  0.00  0.00    -0.570 OA
ENDROOT
BRANCH   1  10
ATOM      7  C   LIG    1       -1.109  -4.848  -0.328  0.00  0.00    -0.050 A 
ATOM      8  C   LIG    1       -2.183  -4.209   0.295  0.00  0.00    +0.100 A 
ATOM      9  C   LIG    1       -2.195  -2.836   0.405  0.00  0.00    -0.010 A 
ATOM     10  C   LIG    1       -1.140  -2.087  -0.104  0.00  0.00    +0.200 A 
ATOM     11  C   LIG    1       -0.072  -2.720  -0.730  0.00  0.00    +0.030 A 
ATOM     12  C   LIG    1       -0.051  -4.093  -0.838  0.00  0.00    +0.080 A 
BRANCH   7  16
ATOM     13  C   LIG    1       -0.517  -8.347  -0.904  0.00  0.00    +0.170 A 
ATOM     14  N   LIG    1       -1.666  -8.355  -0.289  0.00  0.00    -0.280 NA
ATOM     15  N   LIG    1       -2.013  -7.148  -0.008  0.00  0.00    -0.280 NA
ATOM     16  C   LIG    1       -1.092  -6.321  -0.446  0.00  0.00    +0.210 A 
ATOM     17  O   LIG    1       -0.126  -7.066  -1.020  0.00  0.00    -0.220 OA
BRANCH  13  19
ATOM     18  C   LIG    1       -0.190  -9.871  -2.833  0.00  0.00    +0.060 C 
ATOM     19  C   LIG    1        0.236  -9.556  -1.398  0.00  0.00    +0.180 C 
ENDBRANCH  13  19
ENDBRANCH   7  16
ENDBRANCH   1  10
BRANCH   4  20
ATOM     20  C   LIG    1        1.252   2.065   0.349  0.00  0.00    +0.260 C 
BRANCH  20  21
ATOM     21  C   LIG    1        1.123   3.452  -0.283  0.00  0.00    +0.000 C 
ATOM     22  C   LIG    1       -0.015   4.218   0.395  0.00  0.00    +0.010 C 
ATOM     23  C   LIG    1       -0.144   5.605  -0.236  0.00  0.00    +0.000 C 
ATOM     24  C   LIG    1       -0.445   5.460  -1.729  0.00  0.00    +0.000 C 
ATOM     25  C   LIG    1        0.693   4.695  -2.407  0.00  0.00    +0.000 C 
ATOM     26  C   LIG    1        0.822   3.308  -1.776  0.00  0.00    +0.010 C 
ENDBRANCH  20  21
BRANCH  20  27
ATOM     27  C   LIG    1        1.553   2.209   1.842  0.00  0.00    +0.020 C 
BRANCH  27  28
ATOM     28  C   LIG    1        1.804   0.827   2.448  0.00  0.00    +0.180 C 
BRANCH  28  29
ATOM     29  O   LIG    1        2.086   0.963   3.842  0.00  0.00    -0.580 OA
ATOM     30  H   LIG    1        2.256   0.124   4.292  0.00  0.00    +0.380 HD
ENDBRANCH  28  29
ENDBRANCH  27  28
ENDBRANCH  20  27
ENDBRANCH   4  20
TORSDOF 8
