REMARK  Name = ZINCtV00000L6jei.0
REMARK                            x       y       z     vdW  Elec       q    Type
REMARK                         _______ _______ _______ _____ _____    ______ ____
ROOT
ATOM      1  C   LIG    1        7.612   0.731   1.428  0.00  0.00    -0.160 A 
ATOM      2  C   LIG    1        7.206   1.269   0.257  0.00  0.00    +0.100 A 
ATOM      3  N   LIG    1        7.890   0.905  -0.799  0.00  0.00    -0.450 NA
ATOM      4  C   LIG    1        8.873   0.070  -0.614  0.00  0.00    +0.110 A 
ATOM      5  S   LIG    1        8.979  -0.331   1.098  0.00  0.00    +0.120 S 
ENDROOT
BRANCH   1  10
ATOM      6  C   LIG    1        5.272   1.723   6.591  0.00  0.00    +0.090 C 
ATOM      7  C   LIG    1        5.885   1.463   5.239  0.00  0.00    -0.080 A 
ATOM      8  C   LIG    1        6.100   0.163   4.819  0.00  0.00    +0.010 A 
ATOM      9  C   LIG    1        6.660  -0.082   3.582  0.00  0.00    +0.030 A 
ATOM     10  C   LIG    1        7.011   0.986   2.755  0.00  0.00    -0.020 A 
ATOM     11  C   LIG    1        6.797   2.296   3.187  0.00  0.00    +0.030 A 
ATOM     12  C   LIG    1        6.230   2.526   4.423  0.00  0.00    +0.010 A 
ENDBRANCH   1  10
BRANCH   4  13
ATOM     13  C   LIG    1        9.758  -0.459  -1.673  0.00  0.00    -0.030 A 
ATOM     14  C   LIG    1        9.570  -0.072  -3.001  0.00  0.00    +0.070 A 
ATOM     15  C   LIG    1       10.404  -0.564  -3.984  0.00  0.00    +0.010 A 
ATOM     16  C   LIG    1       11.416  -1.449  -3.657  0.00  0.00    +0.030 A 
ATOM     17  C   LIG    1       11.603  -1.842  -2.344  0.00  0.00    +0.010 A 
ATOM     18  C   LIG    1       10.781  -1.352  -1.351  0.00  0.00    +0.020 A 
ENDBRANCH   4  13
BRANCH   2  19
ATOM     19  C   LIG    1        6.048   2.230   0.172  0.00  0.00    +0.170 C 
BRANCH  19  20
ATOM     20  C   LIG    1        4.760   1.455   0.068  0.00  0.00    +0.520 C 
ATOM     21  N   LIG    1        3.585   2.110  -0.019  0.00  0.00    -0.670 N 
ATOM     22  H   LIG    1        3.572   3.078  -0.080  0.00  0.00    +0.410 HD
ATOM     23  O   LIG    1        4.780   0.242   0.063  0.00  0.00    -0.500 OA
BRANCH  21  24
ATOM     24  C   LIG    1        2.382   1.393  -0.022  0.00  0.00    +0.120 A 
ATOM     25  C   LIG    1        2.316   0.148  -0.631  0.00  0.00    +0.050 A 
ATOM     26  C   LIG    1        1.128  -0.558  -0.633  0.00  0.00    +0.020 A 
ATOM     27  C   LIG    1        0.004  -0.025  -0.028  0.00  0.00    +0.030 A 
ATOM     28  C   LIG    1        0.065   1.215   0.580  0.00  0.00    +0.000 A 
ATOM     29  C   LIG    1        1.250   1.927   0.585  0.00  0.00    +0.070 A 
ATOM     30  F   LIG    1        1.310   3.139   1.179  0.00  0.00    -0.140 F 
ENDBRANCH  21  24
ENDBRANCH  19  20
ENDBRANCH   2  19
TORSDOF 5
