REMARK  Name = ZINCvU0000000Cel.0
REMARK                            x       y       z     vdW  Elec       q    Type
REMARK                         _______ _______ _______ _____ _____    ______ ____
ROOT
ATOM      1  N   LIG    1        1.397   3.390   0.531  0.00  0.00    -0.500 N 
ATOM      2  H   LIG    1        2.231   3.878   0.448  0.00  0.00    +0.450 HD
ENDROOT
BRANCH   1   3
ATOM      3  C   LIG    1        1.395   2.008   0.465  0.00  0.00    +0.490 A 
ATOM      4  C   LIG    1        2.473   1.315  -0.138  0.00  0.00    -0.210 A 
ATOM      5  C   LIG    1        3.691   1.821  -0.758  0.00  0.00    -0.030 A 
ATOM      6  C   LIG    1        4.501   0.876  -1.233  0.00  0.00    -0.020 A 
ATOM      7  S   LIG    1        3.839  -0.725  -0.962  0.00  0.00    +0.200 S 
ATOM      8  C   LIG    1        2.408  -0.079  -0.173  0.00  0.00    +0.120 A 
ATOM      9  N   LIG    1        1.344  -0.694   0.360  0.00  0.00    -0.530 NA
ATOM     10  C   LIG    1        0.369  -0.007   0.909  0.00  0.00    +0.570 A 
ATOM     11  N   LIG    1        0.384   1.312   0.966  0.00  0.00    -0.580 NA
BRANCH   5  12
ATOM     12  C   LIG    1        4.003   3.267  -0.852  0.00  0.00    -0.040 A 
ATOM     13  C   LIG    1        3.117   4.134  -1.491  0.00  0.00    +0.030 A 
ATOM     14  C   LIG    1        3.409   5.480  -1.571  0.00  0.00    +0.080 A 
ATOM     15  C   LIG    1        4.585   5.968  -1.028  0.00  0.00    -0.080 A 
ATOM     16  C   LIG    1        5.471   5.112  -0.397  0.00  0.00    +0.050 A 
ATOM     17 BR   LIG    1        4.982   7.813  -1.147  0.00  0.00    -0.040 Br
ATOM     18  C   LIG    1        5.186   3.765  -0.306  0.00  0.00    +0.040 A 
ENDBRANCH   5  12
ENDBRANCH   1   3
BRANCH   1  20
ATOM     19  C   LIG    1        0.197   5.430   0.783  0.00  0.00    +0.570 C 
ATOM     20  N   LIG    1        0.195   4.084   0.719  0.00  0.00    -0.520 N 
ATOM     21  H   LIG    1       -0.639   3.596   0.802  0.00  0.00    +0.430 HD
ATOM     22  O   LIG    1        1.242   6.042   0.678  0.00  0.00    -0.530 OA
BRANCH  19  26
ATOM     23  C   LIG    1       -3.447   7.535   1.351  0.00  0.00    +0.250 A 
ATOM     24  C   LIG    1       -2.251   8.237   1.231  0.00  0.00    -0.080 A 
ATOM     25  C   LIG    1       -1.068   7.558   1.047  0.00  0.00    +0.140 A 
ATOM     26  C   LIG    1       -1.069   6.161   0.980  0.00  0.00    -0.200 A 
ATOM     27  C   LIG    1       -2.273   5.460   1.095  0.00  0.00    +0.090 A 
ATOM     28  C   LIG    1       -3.451   6.144   1.285  0.00  0.00    -0.080 A 
BRANCH  23  29
ATOM     29  N   LIG    1       -4.641   8.224   1.537  0.00  0.00    -0.620 N 
BRANCH  29  31
ATOM     30  C   LIG    1       -6.155   7.162   3.137  0.00  0.00    +0.020 C 
ATOM     31  C   LIG    1       -5.900   7.487   1.663  0.00  0.00    +0.270 C 
ENDBRANCH  29  31
BRANCH  29  32
ATOM     32  C   LIG    1       -4.638   9.687   1.606  0.00  0.00    +0.270 C 
ATOM     33  C   LIG    1       -4.821  10.265   0.201  0.00  0.00    +0.020 C 
ENDBRANCH  29  32
ENDBRANCH  23  29
ENDBRANCH  19  26
ENDBRANCH   1  20
TORSDOF 7
