REMARK  Name = ZINCrg00000bW3S4.0
REMARK                            x       y       z     vdW  Elec       q    Type
REMARK                         _______ _______ _______ _____ _____    ______ ____
ROOT
ATOM      1  N   LIG    1        8.337   4.708   0.230  0.00  0.00    -0.430 N 
ATOM      2  C   LIG    1        7.972   5.957  -0.451  0.00  0.00    +0.220 C 
ATOM      3  C   LIG    1        6.769   5.707  -1.364  0.00  0.00    +0.100 C 
ATOM      4  C   LIG    1        5.595   5.197  -0.525  0.00  0.00    +0.100 C 
ATOM      5  C   LIG    1        4.412   4.883  -1.439  0.00  0.00    +0.280 C 
ATOM      6  N   LIG    1        3.240   4.579  -0.603  0.00  0.00    -0.610 N 
ATOM      7  C   LIG    1        2.894   5.522   0.473  0.00  0.00    +0.260 C 
ATOM      8  C   LIG    1        4.156   5.798   1.298  0.00  0.00    +0.210 C 
ATOM      9  C   LIG    1        2.508   3.466  -0.812  0.00  0.00    +0.510 C 
ATOM     10  O   LIG    1        2.809   2.701  -1.704  0.00  0.00    -0.510 OA
ATOM     11  C   LIG    1        6.017   3.924   0.212  0.00  0.00    +0.030 C 
ATOM     12  O   LIG    1        5.214   6.195   0.422  0.00  0.00    -0.360 OA
ATOM     13  C   LIG    1        7.241   4.225   1.080  0.00  0.00    +0.230 C 
ENDROOT
BRANCH   9  14
ATOM     14  C   LIG    1        1.316   3.173   0.062  0.00  0.00    +0.230 C 
ATOM     15  C   LIG    1        0.097   3.922  -0.479  0.00  0.00    +0.040 C 
ATOM     16  C   LIG    1       -1.148   3.443   0.278  0.00  0.00    +0.050 C 
ATOM     17  C   LIG    1       -1.411   1.983  -0.106  0.00  0.00    +0.070 C 
ATOM     18  C   LIG    1       -0.145   1.187   0.024  0.00  0.00    +0.520 C 
ATOM     19  O   LIG    1       -0.230  -0.022   0.081  0.00  0.00    -0.540 OA
ATOM     20  N   LIG    1        1.069   1.737   0.074  0.00  0.00    -0.590 N 
ATOM     21  C   LIG    1        2.226   0.842   0.145  0.00  0.00    +0.290 C 
ENDBRANCH   9  14
BRANCH   1  26
ATOM     22  C   LIG    1       11.995   3.380   3.166  0.00  0.00    +0.200 C 
ATOM     23  C   LIG    1       11.213   4.338   2.305  0.00  0.00    +0.290 A 
ATOM     24  N   LIG    1       11.606   5.569   2.144  0.00  0.00    -0.480 NA
ATOM     25  S   LIG    1       10.463   6.286   1.111  0.00  0.00    +0.190 S 
ATOM     26  C   LIG    1        9.500   4.865   0.963  0.00  0.00    +0.270 A 
ATOM     27  N   LIG    1       10.115   3.959   1.693  0.00  0.00    -0.540 NA
ENDBRANCH   1  26
TORSDOF 2
