REMARK  Name = ZINCrH000004sGTz.0
REMARK                            x       y       z     vdW  Elec       q    Type
REMARK                         _______ _______ _______ _____ _____    ______ ____
ROOT
ATOM      1  N   LIG    1       -3.476   2.154  -1.502  0.00  0.00    -0.740 N 
ATOM      2  H   LIG    1       -3.108   1.284  -1.724  0.00  0.00    +0.390 HD
ATOM      3  C   LIG    1       -2.677   3.116  -0.999  0.00  0.00    +0.720 C 
ATOM      4  N   LIG    1       -1.350   2.905  -0.898  0.00  0.00    -0.620 N 
ATOM      5  C   LIG    1       -0.451   3.975  -0.460  0.00  0.00    +0.290 C 
ATOM      6  C   LIG    1        0.601   4.200  -1.559  0.00  0.00    +0.240 C 
ATOM      7  O   LIG    1       -0.012   3.935  -2.822  0.00  0.00    -0.310 OA
ATOM      8  C   LIG    1        0.049   2.683  -3.346  0.00  0.00    +0.160 A 
ATOM      9  C   LIG    1        0.484   2.570  -4.667  0.00  0.00    -0.010 A 
ATOM     10  C   LIG    1        0.492   1.345  -5.299  0.00  0.00    +0.080 A 
ATOM     11  C   LIG    1        0.069   0.216  -4.622  0.00  0.00    -0.030 A 
ATOM     12  C   LIG    1       -0.346   0.319  -3.307  0.00  0.00    +0.120 A 
ATOM     13  F   LIG    1       -0.755  -0.785  -2.644  0.00  0.00    -0.130 F 
ATOM     14  C   LIG    1       -0.344   1.549  -2.664  0.00  0.00    -0.200 A 
ATOM     15  C   LIG    1       -0.771   1.602  -1.222  0.00  0.00    +0.340 C 
ATOM     16  O   LIG    1       -3.154   4.174  -0.636  0.00  0.00    -0.580 OA
ENDROOT
BRANCH   1  17
ATOM     17  C   LIG    1       -4.901   2.421  -1.713  0.00  0.00    +0.330 C 
ATOM     18  C   LIG    1       -5.665   2.171  -0.412  0.00  0.00    +0.020 C 
BRANCH  17  24
ATOM     19  C   LIG    1       -7.412   2.980  -3.564  0.00  0.00    +0.150 C 
ATOM     20  C   LIG    1       -6.537   1.754  -3.607  0.00  0.00    +0.090 A 
ATOM     21  N   LIG    1       -6.683   0.736  -4.415  0.00  0.00    -0.290 NA
ATOM     22  N   LIG    1       -5.670  -0.192  -4.138  0.00  0.00    -0.360 N 
ATOM     23  C   LIG    1       -4.911   0.308  -3.140  0.00  0.00    +0.220 A 
ATOM     24  C   LIG    1       -5.429   1.508  -2.790  0.00  0.00    -0.240 A 
BRANCH  22  25
ATOM     25  C   LIG    1       -5.468  -1.475  -4.815  0.00  0.00    +0.180 C 
ATOM     26  C   LIG    1       -3.983  -1.651  -5.141  0.00  0.00    +0.050 C 
ATOM     27  C   LIG    1       -6.280  -1.502  -6.111  0.00  0.00    +0.060 C 
ATOM     28  C   LIG    1       -5.928  -2.612  -3.901  0.00  0.00    +0.050 C 
ENDBRANCH  22  25
ENDBRANCH  17  24
ENDBRANCH   1  17
TORSDOF 3
