REMARK  Name = ZINCrH000004tZrC.0
REMARK                            x       y       z     vdW  Elec       q    Type
REMARK                         _______ _______ _______ _____ _____    ______ ____
ROOT
ATOM      1  O   LIG    1       -2.001   4.802  -2.200  0.00  0.00    -0.500 OA
ATOM      2  C   LIG    1       -2.821   4.655  -1.318  0.00  0.00    +0.500 C 
ATOM      3  N   LIG    1       -4.136   4.728  -1.602  0.00  0.00    -0.660 N 
ATOM      4  H   LIG    1       -4.792   4.547  -0.911  0.00  0.00    +0.410 HD
ENDROOT
BRANCH   3   5
ATOM      5  C   LIG    1       -4.555   5.064  -2.891  0.00  0.00    +0.140 A 
ATOM      6  C   LIG    1       -3.833   4.655  -3.996  0.00  0.00    +0.030 A 
ATOM      7  C   LIG    1       -4.226   4.974  -5.296  0.00  0.00    +0.040 A 
ATOM      8  C   LIG    1       -5.351   5.711  -5.518  0.00  0.00    -0.090 A 
ATOM      9  C   LIG    1       -6.050   6.225  -6.753  0.00  0.00    +0.100 C 
ATOM     10  C   LIG    1       -7.284   6.994  -6.232  0.00  0.00    +0.100 C 
ATOM     11  C   LIG    1       -7.221   6.877  -4.729  0.00  0.00    -0.070 A 
ATOM     12  C   LIG    1       -7.996   7.324  -3.702  0.00  0.00    +0.020 A 
ATOM     13  C   LIG    1       -7.651   7.035  -2.381  0.00  0.00    +0.030 A 
ATOM     14  C   LIG    1       -6.543   6.305  -2.059  0.00  0.00    +0.000 A 
ATOM     15  C   LIG    1       -6.089   6.131  -4.416  0.00  0.00    -0.070 A 
ATOM     16  C   LIG    1       -5.727   5.823  -3.093  0.00  0.00    -0.050 A 
ENDBRANCH   3   5
BRANCH   2  17
ATOM     17  C   LIG    1       -2.368   4.392   0.095  0.00  0.00    +0.340 C 
BRANCH  17  18
ATOM     18  N   LIG    1       -0.904   4.360   0.141  0.00  0.00    -0.480 N 
ATOM     19  C   LIG    1       -0.215   5.506   0.372  0.00  0.00    +0.390 A 
ATOM     20  C   LIG    1        1.138   5.501   0.419  0.00  0.00    -0.290 A 
ATOM     21  C   LIG    1        1.841   4.304   0.227  0.00  0.00    +0.160 A 
ATOM     22  C   LIG    1        1.146   3.153  -0.006  0.00  0.00    -0.060 A 
ATOM     23  C   LIG    1       -0.258   3.195  -0.053  0.00  0.00    +0.520 A 
ATOM     24  O   LIG    1       -0.891   2.173  -0.266  0.00  0.00    -0.530 OA
BRANCH  20  25
ATOM     25  C   LIG    1        1.888   6.783   0.678  0.00  0.00    +0.530 C 
ATOM     26  F   LIG    1        1.103   7.871   0.281  0.00  0.00    -0.180 F 
ATOM     27  F   LIG    1        3.083   6.779  -0.049  0.00  0.00    -0.170 F 
ATOM     28  F   LIG    1        2.174   6.888   2.044  0.00  0.00    -0.170 F 
ENDBRANCH  20  25
ENDBRANCH  17  18
ENDBRANCH   2  17
TORSDOF 4
