REMARK  Name = ZINCpk00000e9hjv.0
REMARK                            x       y       z     vdW  Elec       q    Type
REMARK                         _______ _______ _______ _____ _____    ______ ____
ROOT
ATOM      1  C   LIG    1        0.293  -0.510  -2.473  0.00  0.00    -0.020 A 
ATOM      2  N   LIG    1        0.182   0.754  -2.824  0.00  0.00    -0.180 NA
ATOM      3  N   LIG    1        0.309   1.137  -4.040  0.00  0.00    -0.270 N 
ATOM      4  C   LIG    1        0.556   0.286  -5.067  0.00  0.00    +0.130 A 
ATOM      5  C   LIG    1        0.689  -1.044  -4.849  0.00  0.00    -0.080 A 
ATOM      6  C   LIG    1        0.683   0.828  -6.467  0.00  0.00    +0.150 C 
ATOM      7  C   LIG    1        0.561  -1.513  -3.516  0.00  0.00    +0.380 A 
ATOM      8  O   LIG    1        0.669  -2.699  -3.246  0.00  0.00    -0.440 OA
ENDROOT
BRANCH   3   9
ATOM      9  C   LIG    1        0.180   2.501  -4.324  0.00  0.00    +0.120 A 
ATOM     10  C   LIG    1        1.198   3.172  -4.991  0.00  0.00    +0.050 A 
ATOM     11  C   LIG    1        1.066   4.517  -5.274  0.00  0.00    +0.060 A 
ATOM     12  C   LIG    1       -0.074   5.199  -4.885  0.00  0.00    -0.020 A 
ATOM     13  C   LIG    1       -1.087   4.534  -4.216  0.00  0.00    +0.060 A 
ATOM     14 CL   LIG    1       -0.234   6.891  -5.237  0.00  0.00    -0.050 Cl
ATOM     15  C   LIG    1       -0.963   3.188  -3.934  0.00  0.00    +0.050 A 
ENDBRANCH   3   9
BRANCH   1  17
ATOM     16  N   LIG    1       -0.010   0.021  -0.104  0.00  0.00    -0.580 N 
ATOM     17  C   LIG    1        0.147  -0.915  -1.061  0.00  0.00    +0.590 C 
ATOM     18  O   LIG    1        0.167  -2.093  -0.761  0.00  0.00    -0.490 OA
BRANCH  16  20
ATOM     19  C   LIG    1       -1.478  -0.557   1.765  0.00  0.00    +0.020 C 
ATOM     20  C   LIG    1       -0.030  -0.370   1.308  0.00  0.00    +0.280 C 
ENDBRANCH  16  20
BRANCH  16  21
ATOM     21  C   LIG    1       -0.160   1.430  -0.476  0.00  0.00    +0.330 C 
BRANCH  21  22
ATOM     22  C   LIG    1        1.200   2.041  -0.692  0.00  0.00    +0.500 C 
ATOM     23  N   LIG    1        1.309   3.337  -1.044  0.00  0.00    -0.730 N 
ATOM     24  H   LIG    1        0.512   3.877  -1.158  0.00  0.00    +0.400 HD
ATOM     25  C   LIG    1        2.632   3.930  -1.254  0.00  0.00    +0.270 C 
ATOM     26  O   LIG    1        2.198   1.365  -0.550  0.00  0.00    -0.530 OA
ENDBRANCH  21  22
ENDBRANCH  16  21
ENDBRANCH   1  17
TORSDOF 5
