REMARK  Name = ZINCpk000000nz9Q.0
REMARK                            x       y       z     vdW  Elec       q    Type
REMARK                         _______ _______ _______ _____ _____    ______ ____
ROOT
ATOM      1  C   LIG    1       -3.535  -0.689   7.850  0.00  0.00    +0.230 C 
ATOM      2  C   LIG    1       -4.864  -0.956   8.616  0.00  0.00    +0.170 C 
ATOM      3  S   LIG    1       -5.950  -1.417   7.200  0.00  0.00    -0.250 S 
ATOM      4  C   LIG    1       -5.131  -0.292   6.003  0.00  0.00    +0.380 C 
ATOM      5  N   LIG    1       -3.827   0.021   6.606  0.00  0.00    -0.610 N 
ATOM      6  C   LIG    1       -2.963   0.893   6.051  0.00  0.00    +0.580 C 
ATOM      7  O   LIG    1       -1.842   1.013   6.506  0.00  0.00    -0.500 OA
ENDROOT
BRANCH   6   8
ATOM      8  C   LIG    1       -3.378   1.705   4.886  0.00  0.00    -0.110 A 
ATOM      9  C   LIG    1       -4.532   1.371   4.175  0.00  0.00    +0.030 A 
ATOM     10  C   LIG    1       -4.917   2.131   3.089  0.00  0.00    +0.040 A 
ATOM     11  C   LIG    1       -4.167   3.226   2.705  0.00  0.00    +0.040 A 
ATOM     12  C   LIG    1       -3.014   3.564   3.404  0.00  0.00    +0.130 A 
ATOM     13  C   LIG    1       -2.618   2.808   4.496  0.00  0.00    +0.070 A 
BRANCH  12  14
ATOM     14  N   LIG    1       -2.257   4.670   3.008  0.00  0.00    -1.060 N 
ATOM     15  H   LIG    1       -1.955   5.313   3.669  0.00  0.00    +0.430 HD
BRANCH  14  16
ATOM     16  S   LIG    1       -1.874   4.883   1.411  0.00  0.00    +2.610 S 
ATOM     17  O   LIG    1       -3.124   4.819   0.740  0.00  0.00    -0.950 OA
ATOM     18  O   LIG    1       -1.093   6.070   1.394  0.00  0.00    -0.950 OA
ATOM     19  C   LIG    1       -0.853   3.443   0.994  0.00  0.00    -0.280 C 
ENDBRANCH  14  16
ENDBRANCH  12  14
ENDBRANCH   6   8
BRANCH   1  21
ATOM     20  N   LIG    1       -1.665  -0.437   9.449  0.00  0.00    -0.610 N 
ATOM     21  C   LIG    1       -2.623   0.152   8.706  0.00  0.00    +0.530 C 
ATOM     22  O   LIG    1       -2.752   1.358   8.726  0.00  0.00    -0.520 OA
ATOM     23  C   LIG    1       -1.439  -1.880   9.343  0.00  0.00    +0.280 C 
BRANCH  20  25
ATOM     24  C   LIG    1       -1.033  -0.141  11.793  0.00  0.00    +0.030 C 
ATOM     25  C   LIG    1       -0.849   0.368  10.361  0.00  0.00    +0.230 C 
ATOM     26  C   LIG    1        0.625   0.252   9.965  0.00  0.00    +0.030 C 
ENDBRANCH  20  25
ENDBRANCH   1  21
TORSDOF 5
