REMARK  Name = ZINCqH0000050zJE.0
REMARK                            x       y       z     vdW  Elec       q    Type
REMARK                         _______ _______ _______ _____ _____    ______ ____
ROOT
ATOM      1  O   LIG    1       -0.774   3.014   0.918  0.00  0.00    -0.320 OA
ENDROOT
BRANCH   1   2
ATOM      2  C   LIG    1       -0.742   1.574   1.106  0.00  0.00    +0.190 C 
ATOM      3  C   LIG    1        0.045   0.929  -0.036  0.00  0.00    +0.080 C 
BRANCH   2   6
ATOM      4  N   LIG    1       -2.372  -0.267   1.374  0.00  0.00    -0.670 N 
ATOM      5  H   LIG    1       -1.623  -0.874   1.483  0.00  0.00    +0.410 HD
ATOM      6  C   LIG    1       -2.149   1.036   1.113  0.00  0.00    +0.520 C 
ATOM      7  O   LIG    1       -3.083   1.776   0.883  0.00  0.00    -0.490 OA
BRANCH   4  13
ATOM      8  C   LIG    1       -5.622  -3.902   0.750  0.00  0.00    +0.090 C 
ATOM      9  C   LIG    1       -5.286  -2.502   1.195  0.00  0.00    -0.070 A 
ATOM     10  C   LIG    1       -6.273  -1.688   1.718  0.00  0.00    +0.000 A 
ATOM     11  C   LIG    1       -5.968  -0.402   2.127  0.00  0.00    +0.040 A 
ATOM     12  C   LIG    1       -4.675   0.070   2.020  0.00  0.00    +0.000 A 
ATOM     13  C   LIG    1       -3.682  -0.744   1.490  0.00  0.00    +0.150 A 
ATOM     14  C   LIG    1       -3.991  -2.034   1.080  0.00  0.00    -0.010 A 
ENDBRANCH   4  13
ENDBRANCH   2   6
ENDBRANCH   1   2
BRANCH   1  15
ATOM     15  C   LIG    1        0.220   3.724   1.474  0.00  0.00    +0.490 C 
ATOM     16  O   LIG    1        1.089   3.161   2.097  0.00  0.00    -0.480 OA
BRANCH  15  17
ATOM     17  C   LIG    1        0.252   5.223   1.321  0.00  0.00    +0.120 C 
BRANCH  17  18
ATOM     18  S   LIG    1        1.704   5.885   2.176  0.00  0.00    +0.160 S 
BRANCH  18  19
ATOM     19  C   LIG    1        1.496   7.603   1.844  0.00  0.00    +0.200 A 
ATOM     20  N   LIG    1        2.304   8.549   2.253  0.00  0.00    -0.450 NA
ATOM     21  C   LIG    1        1.832   9.747   1.811  0.00  0.00    +0.030 A 
ATOM     22  C   LIG    1        2.274  11.064   1.942  0.00  0.00    +0.080 A 
ATOM     23  C   LIG    1        1.556  12.086   1.361  0.00  0.00    +0.020 A 
ATOM     24  C   LIG    1        0.398  11.814   0.650  0.00  0.00    +0.050 A 
ATOM     25  C   LIG    1       -0.050  10.515   0.513  0.00  0.00    +0.050 A 
ATOM     26  C   LIG    1        0.660   9.476   1.089  0.00  0.00    +0.010 A 
ATOM     27  O   LIG    1        0.489   8.134   1.128  0.00  0.00    -0.210 OA
ENDBRANCH  18  19
ENDBRANCH  17  18
ENDBRANCH  15  17
ENDBRANCH   1  15
TORSDOF 7
