REMARK  Name = ZINCrH00000No4Su.0
REMARK                            x       y       z     vdW  Elec       q    Type
REMARK                         _______ _______ _______ _____ _____    ______ ____
ROOT
ATOM      1  C   LIG    1        1.264  -0.445  -0.012  0.00  0.00    +0.180 A 
ATOM      2  N   LIG    1        2.041   0.610  -0.014  0.00  0.00    -0.460 NA
ATOM      3  C   LIG    1        1.207   1.675  -0.001  0.00  0.00    +0.210 A 
ATOM      4  N   LIG    1       -0.014   1.209   0.009  0.00  0.00    -0.360 NA
ATOM      5  O   LIG    1        0.002  -0.004   0.002  0.00  0.00    +0.100 OA
ENDROOT
BRANCH   3   6
ATOM      6  C   LIG    1        1.605   3.105   0.003  0.00  0.00    +0.010 A 
ATOM      7  C   LIG    1        2.953   3.455  -0.003  0.00  0.00    +0.070 A 
ATOM      8  C   LIG    1        3.317   4.787  -0.005  0.00  0.00    +0.080 A 
ATOM      9  C   LIG    1        2.346   5.772   0.009  0.00  0.00    -0.160 A 
ATOM     10  C   LIG    1        1.006   5.429   0.020  0.00  0.00    +0.080 A 
ATOM     11  C   LIG    1        0.631   4.101   0.017  0.00  0.00    +0.060 A 
BRANCH   9  12
ATOM     12  C   LIG    1        2.750   7.224   0.013  0.00  0.00    +0.510 C 
ATOM     13  F   LIG    1        1.768   7.982  -0.633  0.00  0.00    -0.170 F 
ATOM     14  F   LIG    1        3.969   7.371  -0.657  0.00  0.00    -0.170 F 
ATOM     15  F   LIG    1        2.888   7.666   1.333  0.00  0.00    -0.170 F 
ENDBRANCH   9  12
ENDBRANCH   3   6
BRANCH   1  17
ATOM     16  C   LIG    1        1.490  -2.475  -1.419  0.00  0.00    +0.080 C 
ATOM     17  C   LIG    1        1.709  -1.884  -0.024  0.00  0.00    +0.380 C 
BRANCH  17  18
ATOM     18  N   LIG    1        0.930  -2.645   0.956  0.00  0.00    -1.110 NA
ATOM     19  H   LIG    1       -0.002  -2.424   1.111  0.00  0.00    +0.430 HD
BRANCH  18  20
ATOM     20  S   LIG    1        1.641  -3.880   1.799  0.00  0.00    +2.700 S 
ATOM     21  O   LIG    1        2.313  -4.686   0.841  0.00  0.00    -0.940 OA
ATOM     22  O   LIG    1        0.648  -4.387   2.681  0.00  0.00    -0.940 OA
BRANCH  20  23
ATOM     23  C   LIG    1        2.891  -3.167   2.815  0.00  0.00    -0.680 A 
ATOM     24  C   LIG    1        4.181  -3.036   2.334  0.00  0.00    +0.120 A 
ATOM     25  C   LIG    1        5.161  -2.472   3.130  0.00  0.00    +0.000 A 
ATOM     26  C   LIG    1        4.854  -2.049   4.410  0.00  0.00    +0.070 A 
ATOM     27  C   LIG    1        3.566  -2.185   4.892  0.00  0.00    -0.010 A 
ATOM     28  C   LIG    1        2.584  -2.744   4.095  0.00  0.00    +0.120 A 
ENDBRANCH  20  23
ENDBRANCH  18  20
ENDBRANCH  17  18
ENDBRANCH   1  17
TORSDOF 6
