REMARK  Name = ZINCvU0000000GLy.0
REMARK                            x       y       z     vdW  Elec       q    Type
REMARK                         _______ _______ _______ _____ _____    ______ ____
ROOT
ATOM      1  C   LIG    1       -4.958  -3.215   4.608  0.00  0.00    -0.690 A 
ATOM      2  C   LIG    1       -4.514  -2.700   3.408  0.00  0.00    +0.230 A 
ATOM      3  C   LIG    1       -3.489  -1.752   3.396  0.00  0.00    -0.140 A 
ATOM      4  C   LIG    1       -2.916  -1.335   4.599  0.00  0.00    +0.170 A 
ATOM      5  C   LIG    1       -3.372  -1.853   5.793  0.00  0.00    +0.020 A 
ATOM      6  C   LIG    1       -4.389  -2.794   5.799  0.00  0.00    +0.090 A 
ATOM      7 CL   LIG    1       -4.952  -3.447   7.305  0.00  0.00    -0.030 Cl
ENDROOT
BRANCH   1   8
ATOM      8  S   LIG    1       -6.251  -4.412   4.626  0.00  0.00    +2.690 S 
ATOM      9  O   LIG    1       -6.574  -4.675   3.268  0.00  0.00    -0.930 OA
ATOM     10  O   LIG    1       -7.204  -3.959   5.578  0.00  0.00    -0.920 OA
BRANCH   8  12
ATOM     11  C   LIG    1       -6.050  -6.311   6.541  0.00  0.00    +0.310 C 
ATOM     12  N   LIG    1       -5.613  -5.814   5.234  0.00  0.00    -0.930 N 
BRANCH  12  13
ATOM     13  C   LIG    1       -4.657  -6.522   4.502  0.00  0.00    +0.160 A 
ATOM     14  C   LIG    1       -4.605  -6.394   3.119  0.00  0.00    -0.020 A 
ATOM     15  C   LIG    1       -3.656  -7.092   2.398  0.00  0.00    +0.050 A 
ATOM     16  C   LIG    1       -2.765  -7.925   3.050  0.00  0.00    -0.010 A 
ATOM     17  C   LIG    1       -2.818  -8.058   4.426  0.00  0.00    +0.040 A 
ATOM     18  C   LIG    1       -3.761  -7.359   5.153  0.00  0.00    -0.010 A 
ENDBRANCH  12  13
ENDBRANCH   8  12
ENDBRANCH   1   8
BRANCH   3  19
ATOM     19  C   LIG    1       -3.009  -1.196   2.114  0.00  0.00    +0.520 C 
ATOM     20  O   LIG    1       -3.506  -1.564   1.069  0.00  0.00    -0.490 OA
BRANCH  19  21
ATOM     21  O   LIG    1       -2.020  -0.281   2.105  0.00  0.00    -0.340 OA
BRANCH  21  22
ATOM     22  C   LIG    1       -1.599   0.221   0.809  0.00  0.00    +0.360 C 
BRANCH  22  23
ATOM     23  C   LIG    1       -0.492   1.227   0.996  0.00  0.00    +0.070 A 
ATOM     24  N   LIG    1        0.752   0.933   1.017  0.00  0.00    -0.440 NA
ATOM     25  C   LIG    1        1.633   1.936   1.192  0.00  0.00    +0.080 A 
ATOM     26  C   LIG    1        3.041   1.898   1.255  0.00  0.00    +0.080 A 
ATOM     27  C   LIG    1        3.754   3.043   1.440  0.00  0.00    +0.030 A 
ATOM     28  C   LIG    1        3.113   4.266   1.571  0.00  0.00    +0.050 A 
ATOM     29  C   LIG    1        1.739   4.334   1.514  0.00  0.00    +0.060 A 
ATOM     30  C   LIG    1        0.992   3.173   1.325  0.00  0.00    -0.180 A 
ATOM     31  S   LIG    1       -0.743   2.902   1.205  0.00  0.00    +0.140 S 
ENDBRANCH  22  23
ENDBRANCH  21  22
ENDBRANCH  19  21
ENDBRANCH   3  19
TORSDOF 7
