REMARK  Name = ZINCpk000000ohYR.0
REMARK                            x       y       z     vdW  Elec       q    Type
REMARK                         _______ _______ _______ _____ _____    ______ ____
ROOT
ATOM      1  N   LIG    1        1.128   3.088  -0.020  0.00  0.00    -0.540 N 
ATOM      2  C   LIG    1        1.190   1.745  -0.057  0.00  0.00    +0.710 A 
ATOM      3  N   LIG    1        0.074   0.995  -0.062  0.00  0.00    -0.660 N 
ATOM      4  H   LIG    1        0.146   0.028  -0.089  0.00  0.00    +0.430 HD
ATOM      5  C   LIG    1       -1.143   1.571  -0.035  0.00  0.00    +0.570 A 
ATOM      6  C   LIG    1       -1.246   2.974   0.010  0.00  0.00    -0.140 A 
ATOM      7  O   LIG    1       -2.149   0.882  -0.044  0.00  0.00    -0.510 OA
ATOM      8  O   LIG    1        2.276   1.198  -0.087  0.00  0.00    -0.530 OA
ATOM      9  C   LIG    1       -0.090   3.727   0.014  0.00  0.00    +0.480 A 
ENDROOT
BRANCH   6  10
ATOM     10  N   LIG    1       -2.510   3.600   0.044  0.00  0.00    -0.540 N 
ATOM     11  C   LIG    1       -3.313   3.442   1.117  0.00  0.00    +0.520 C 
ATOM     12  O   LIG    1       -2.986   2.693   2.014  0.00  0.00    -0.500 OA
ATOM     13  C   LIG    1       -2.951   4.422  -1.086  0.00  0.00    +0.290 C 
BRANCH  11  14
ATOM     14  C   LIG    1       -4.615   4.196   1.202  0.00  0.00    +0.110 C 
BRANCH  14  15
ATOM     15  C   LIG    1       -5.316   3.845   2.489  0.00  0.00    -0.080 A 
ATOM     16  C   LIG    1       -6.200   2.784   2.527  0.00  0.00    +0.020 A 
ATOM     17  C   LIG    1       -6.840   2.458   3.709  0.00  0.00    +0.000 A 
ATOM     18  C   LIG    1       -6.602   3.201   4.850  0.00  0.00    -0.090 A 
ATOM     19  C   LIG    1       -5.721   4.266   4.811  0.00  0.00    +0.000 A 
ATOM     20  C   LIG    1       -7.303   2.850   6.137  0.00  0.00    +0.090 C 
ATOM     21  C   LIG    1       -5.078   4.588   3.631  0.00  0.00    +0.020 A 
ENDBRANCH  14  15
ENDBRANCH  11  14
ENDBRANCH   6  10
BRANCH   9  22
ATOM     22  N   LIG    1       -0.154   5.099   0.051  0.00  0.00    -0.830 N 
ATOM     23  H   LIG    1       -1.013   5.546   0.004  0.00  0.00    +0.420 HD
ATOM     24  H   LIG    1        0.661   5.621   0.123  0.00  0.00    +0.410 HD
ENDBRANCH   9  22
BRANCH   1  25
ATOM     25  C   LIG    1        2.364   3.875  -0.016  0.00  0.00    +0.300 C 
BRANCH  25  26
ATOM     26  C   LIG    1        2.773   4.188  -1.457  0.00  0.00    +0.010 C 
BRANCH  26  28
ATOM     27  C   LIG    1        4.474   5.322  -2.893  0.00  0.00    +0.020 C 
ATOM     28  C   LIG    1        4.064   5.009  -1.453  0.00  0.00    +0.020 C 
ENDBRANCH  26  28
ENDBRANCH  25  26
ENDBRANCH   1  25
TORSDOF 7
