REMARK  Name = ZINCrg000000sEf8.0
REMARK                            x       y       z     vdW  Elec       q    Type
REMARK                         _______ _______ _______ _____ _____    ______ ____
ROOT
ATOM      1  N   LIG    1       -6.640  10.219   1.894  0.00  0.00    -0.510 N 
ATOM      2  C   LIG    1       -5.683  11.295   1.679  0.00  0.00    +0.270 C 
ATOM      3  C   LIG    1       -4.354  10.987   2.372  0.00  0.00    +0.320 C 
ATOM      4  N   LIG    1       -3.981   9.599   2.054  0.00  0.00    -0.640 N 
ATOM      5  C   LIG    1       -4.899   8.537   2.489  0.00  0.00    +0.330 C 
ATOM      6  C   LIG    1       -2.845   9.314   1.385  0.00  0.00    +0.710 C 
ATOM      7  N   LIG    1       -2.530   8.033   1.108  0.00  0.00    -0.750 N 
ATOM      8  H   LIG    1       -3.120   7.317   1.389  0.00  0.00    +0.390 HD
ATOM      9  O   LIG    1       -2.106  10.212   1.032  0.00  0.00    -0.580 OA
ATOM     10  C   LIG    1       -6.311   8.967   2.218  0.00  0.00    +0.510 C 
ATOM     11  O   LIG    1       -7.194   8.138   2.293  0.00  0.00    -0.530 OA
ENDROOT
BRANCH   1  15
ATOM     12  C   LIG    1      -10.837  12.612   0.928  0.00  0.00    +0.360 C 
ATOM     13  N   LIG    1       -9.878  11.578   1.324  0.00  0.00    -0.370 N 
ATOM     14  C   LIG    1       -8.525  11.697   1.316  0.00  0.00    +0.210 A 
ATOM     15  C   LIG    1       -8.007  10.520   1.751  0.00  0.00    -0.010 A 
ATOM     16  C   LIG    1       -9.077   9.656   2.026  0.00  0.00    +0.270 A 
ATOM     17  N   LIG    1      -10.193  10.290   1.776  0.00  0.00    -0.290 NA
ENDBRANCH   1  15
BRANCH   7  18
ATOM     18  C   LIG    1       -1.296   7.723   0.381  0.00  0.00    +0.290 C 
BRANCH  18  19
ATOM     19  C   LIG    1       -1.178   6.209   0.199  0.00  0.00    +0.000 C 
BRANCH  19  20
ATOM     20  C   LIG    1        0.110   5.886  -0.560  0.00  0.00    +0.180 C 
ATOM     21  C   LIG    1        0.135   6.663  -1.878  0.00  0.00    +0.070 C 
BRANCH  20  22
ATOM     22  C   LIG    1        0.166   4.407  -0.848  0.00  0.00    -0.120 A 
ATOM     23  C   LIG    1        1.388   3.766  -0.936  0.00  0.00    +0.030 A 
ATOM     24  C   LIG    1        1.439   2.410  -1.200  0.00  0.00    +0.000 A 
ATOM     25  C   LIG    1        0.269   1.695  -1.375  0.00  0.00    +0.000 A 
ATOM     26  C   LIG    1       -0.952   2.337  -1.292  0.00  0.00    +0.000 A 
ATOM     27  C   LIG    1       -1.004   3.692  -1.024  0.00  0.00    +0.010 A 
ENDBRANCH  20  22
BRANCH  20  28
ATOM     28  O   LIG    1        1.238   6.259   0.234  0.00  0.00    -0.550 OA
ATOM     29  H   LIG    1        1.286   5.805   1.086  0.00  0.00    +0.380 HD
ENDBRANCH  20  28
ENDBRANCH  19  20
ENDBRANCH  18  19
ENDBRANCH   7  18
TORSDOF 6
