REMARK  Name = ZINCqH00000098KS.0
REMARK                            x       y       z     vdW  Elec       q    Type
REMARK                         _______ _______ _______ _____ _____    ______ ____
ROOT
ATOM      1  N   LIG    1        1.143   1.898   0.001  0.00  0.00    -0.720 N 
ATOM      2  H   LIG    1        1.130   2.868   0.007  0.00  0.00    +0.410 HD
ATOM      3  C   LIG    1       -0.014   1.209   0.009  0.00  0.00    +0.520 C 
ATOM      4  O   LIG    1        0.002  -0.004   0.002  0.00  0.00    -0.490 OA
ENDROOT
BRANCH   1   6
ATOM      5  C   LIG    1        2.792   0.832  -1.457  0.00  0.00    +0.060 C 
ATOM      6  C   LIG    1        2.422   1.183  -0.015  0.00  0.00    +0.350 C 
BRANCH   6   7
ATOM      7  C   LIG    1        3.495   2.058   0.580  0.00  0.00    +0.020 A 
ATOM      8  C   LIG    1        4.465   1.633   1.400  0.00  0.00    -0.020 A 
ATOM      9  C   LIG    1        5.274   2.814   1.725  0.00  0.00    -0.130 A 
ATOM     10  C   LIG    1        6.404   3.034   2.511  0.00  0.00    +0.060 A 
ATOM     11  C   LIG    1        6.926   4.306   2.610  0.00  0.00    +0.000 A 
ATOM     12  C   LIG    1        6.332   5.360   1.933  0.00  0.00    +0.050 A 
ATOM     13  C   LIG    1        5.213   5.155   1.153  0.00  0.00    +0.020 A 
ATOM     14  C   LIG    1        4.671   3.882   1.039  0.00  0.00    +0.060 A 
ATOM     15  O   LIG    1        3.613   3.381   0.370  0.00  0.00    -0.190 OA
ENDBRANCH   6   7
ENDBRANCH   1   6
BRANCH   3  16
ATOM     16  C   LIG    1       -1.330   1.944   0.019  0.00  0.00    +0.240 C 
BRANCH  16  17
ATOM     17  O   LIG    1       -2.403   1.001   0.019  0.00  0.00    -0.250 OA
BRANCH  17  18
ATOM     18  C   LIG    1       -3.666   1.503   0.028  0.00  0.00    +0.230 A 
ATOM     19  C   LIG    1       -3.867   2.875   0.042  0.00  0.00    -0.100 A 
ATOM     20  C   LIG    1       -5.154   3.384   0.045  0.00  0.00    +0.200 A 
ATOM     21  C   LIG    1       -6.239   2.523   0.045  0.00  0.00    -0.030 A 
ATOM     22  C   LIG    1       -6.038   1.156   0.037  0.00  0.00    +0.180 A 
ATOM     23  F   LIG    1       -5.352   4.720   0.052  0.00  0.00    -0.110 F 
ATOM     24  C   LIG    1       -4.755   0.644   0.028  0.00  0.00    -0.090 A 
BRANCH  24  25
ATOM     25  N   LIG    1       -4.543  -0.821   0.020  0.00  0.00    +0.030 N 
ATOM     26  O   LIG    1       -3.411  -1.272   0.012  0.00  0.00    -0.120 OA
ATOM     27  O   LIG    1       -5.499  -1.575   0.020  0.00  0.00    -0.180 OA
ENDBRANCH  24  25
ENDBRANCH  17  18
ENDBRANCH  16  17
ENDBRANCH   3  16
TORSDOF 6
