REMARK  Name = ZINCqH0000007B5F.0
REMARK                            x       y       z     vdW  Elec       q    Type
REMARK                         _______ _______ _______ _____ _____    ______ ____
ROOT
ATOM      1  C   LIG    1        6.054   0.416   0.748  0.00  0.00    +0.610 C 
ATOM      2  N   LIG    1        6.611  -0.556  -0.002  0.00  0.00    -0.660 N 
ATOM      3  H   LIG    1        6.047  -1.205  -0.451  0.00  0.00    +0.420 HD
ATOM      4  O   LIG    1        6.763   1.179   1.378  0.00  0.00    -0.490 OA
ENDROOT
BRANCH   1  10
ATOM      5  C   LIG    1        0.105   1.375   1.289  0.00  0.00    +0.110 A 
ATOM      6  C   LIG    1        0.052   0.285   0.424  0.00  0.00    -0.010 A 
ATOM      7  C   LIG    1        1.208  -0.322  -0.015  0.00  0.00    +0.070 A 
ATOM      8  C   LIG    1        2.445   0.151   0.405  0.00  0.00    +0.050 A 
ATOM      9  O   LIG    1        3.713  -0.231   0.149  0.00  0.00    -0.180 OA
ATOM     10  C   LIG    1        4.593   0.554   0.804  0.00  0.00    -0.040 A 
ATOM     11  C   LIG    1        3.924   1.493   1.523  0.00  0.00    -0.060 A 
ATOM     12  C   LIG    1        4.525   2.565   2.396  0.00  0.00    +0.140 C 
ATOM     13  C   LIG    1        2.502   1.252   1.280  0.00  0.00    -0.110 A 
ATOM     14  C   LIG    1        1.324   1.861   1.719  0.00  0.00    +0.040 A 
BRANCH   5  16
ATOM     15  C   LIG    1       -2.272   1.415   1.220  0.00  0.00    +0.240 C 
ATOM     16  O   LIG    1       -1.046   1.965   1.708  0.00  0.00    -0.310 OA
ENDBRANCH   5  16
ENDBRANCH   1  10
BRANCH   2  17
ATOM     17  C   LIG    1        7.996  -0.627  -0.134  0.00  0.00    +0.170 A 
ATOM     18  C   LIG    1        8.619  -1.866  -0.254  0.00  0.00    -0.010 A 
ATOM     19  C   LIG    1        9.987  -1.940  -0.390  0.00  0.00    +0.070 A 
ATOM     20  C   LIG    1       10.751  -0.770  -0.396  0.00  0.00    -0.150 A 
ATOM     21  C   LIG    1       10.123   0.472  -0.269  0.00  0.00    +0.100 A 
ATOM     22  C   LIG    1        8.754   0.540  -0.139  0.00  0.00    +0.010 A 
BRANCH  20  23
ATOM     23  C   LIG    1       12.218  -0.846  -0.535  0.00  0.00    +0.560 C 
ATOM     24  N   LIG    1       12.873  -1.964  -0.164  0.00  0.00    -0.620 N 
ATOM     25  C   LIG    1       12.145  -3.061   0.477  0.00  0.00    +0.280 C 
ATOM     26  C   LIG    1       14.314  -2.082  -0.403  0.00  0.00    +0.300 C 
ATOM     27  O   LIG    1       12.836   0.101  -0.983  0.00  0.00    -0.530 OA
ENDBRANCH  20  23
ENDBRANCH   2  17
TORSDOF 4
