REMARK  Name = ZINCpk00000y6vun.0
REMARK                            x       y       z     vdW  Elec       q    Type
REMARK                         _______ _______ _______ _____ _____    ______ ____
ROOT
ATOM      1  C   LIG    1       -3.088   2.384   1.587  0.00  0.00    +0.240 C 
ENDROOT
BRANCH   1   4
ATOM      2  C   LIG    1       -6.461   2.585  -0.104  0.00  0.00    +0.140 A 
ATOM      3  C   LIG    1       -5.137   2.832   0.223  0.00  0.00    -0.070 A 
ATOM      4  C   LIG    1       -4.529   2.116   1.238  0.00  0.00    -0.040 A 
ATOM      5  C   LIG    1       -5.242   1.161   1.936  0.00  0.00    +0.020 A 
ATOM      6  C   LIG    1       -6.570   0.910   1.618  0.00  0.00    +0.090 A 
ATOM      7  O   LIG    1       -7.255  -0.038   2.314  0.00  0.00    -0.300 OA
ATOM      8  C   LIG    1       -8.683  -0.000   2.219  0.00  0.00    +0.220 C 
ATOM      9  C   LIG    1       -9.062   0.173   0.742  0.00  0.00    +0.220 C 
ATOM     10  O   LIG    1       -8.485   1.397   0.272  0.00  0.00    -0.300 OA
ATOM     11  C   LIG    1       -7.182   1.624   0.597  0.00  0.00    +0.020 A 
BRANCH   2  13
ATOM     12  C   LIG    1       -6.256   4.256  -1.784  0.00  0.00    +0.250 C 
ATOM     13  O   LIG    1       -7.056   3.285  -1.106  0.00  0.00    -0.300 OA
ENDBRANCH   2  13
ENDBRANCH   1   4
BRANCH   1  14
ATOM     14  N   LIG    1       -2.220   1.507   0.790  0.00  0.00    -0.490 NA
ATOM     15  C   LIG    1       -2.231   1.904  -0.635  0.00  0.00    +0.170 C 
ATOM     16  C   LIG    1       -0.822   1.629  -1.192  0.00  0.00    +0.170 C 
ATOM     17  C   LIG    1       -0.013   1.086   0.008  0.00  0.00    +0.080 C 
ATOM     18  C   LIG    1       -0.801   1.617   1.232  0.00  0.00    +0.250 C 
BRANCH  18  19
ATOM     19  C   LIG    1       -0.548   0.755   2.442  0.00  0.00    +0.160 A 
ATOM     20  N   LIG    1       -1.024  -0.439   2.652  0.00  0.00    -0.240 NA
ATOM     21  N   LIG    1       -0.599  -0.876   3.784  0.00  0.00    -0.290 NA
ATOM     22  C   LIG    1        0.156   0.029   4.340  0.00  0.00    +0.160 A 
ATOM     23  C   LIG    1        0.847  -0.084   5.675  0.00  0.00    +0.240 C 
ATOM     24  O   LIG    1        0.206   1.080   3.506  0.00  0.00    -0.230 OA
ENDBRANCH  18  19
BRANCH  16  25
ATOM     25  O   LIG    1       -0.882   0.651  -2.232  0.00  0.00    -0.550 OA
ATOM     26  H   LIG    1       -1.379   0.936  -3.012  0.00  0.00    +0.380 HD
ENDBRANCH  16  25
ENDBRANCH   1  14
TORSDOF 5
