REMARK  Name = ZINCpe000000UN01.0
REMARK                            x       y       z     vdW  Elec       q    Type
REMARK                         _______ _______ _______ _____ _____    ______ ____
ROOT
ATOM      1  C   LIG    1        4.236  -2.895   0.990  0.00  0.00    +0.570 C 
ATOM      2  N   LIG    1        3.089  -2.197   0.869  0.00  0.00    -0.610 N 
ATOM      3  C   LIG    1        1.917  -2.767   0.186  0.00  0.00    +0.300 C 
ATOM      4  C   LIG    1        0.795  -2.923   1.212  0.00  0.00    +0.120 C 
ATOM      5  C   LIG    1        0.631  -1.661   2.018  0.00  0.00    +0.070 A 
ATOM      6  N   LIG    1       -0.508  -1.473   2.641  0.00  0.00    -0.220 NA
ATOM      7  N   LIG    1       -0.741  -0.448   3.374  0.00  0.00    -0.340 N 
ATOM      8  C   LIG    1        0.184   0.513   3.560  0.00  0.00    +0.480 A 
ATOM      9  C   LIG    1        1.433   0.394   2.913  0.00  0.00    -0.020 A 
ATOM     10  O   LIG    1       -0.054   1.472   4.276  0.00  0.00    -0.530 OA
ATOM     11  C   LIG    1       -2.048  -0.316   4.022  0.00  0.00    +0.360 C 
ATOM     12  C   LIG    1        1.646  -0.707   2.129  0.00  0.00    -0.040 A 
ATOM     13  C   LIG    1        2.963  -0.839   1.412  0.00  0.00    +0.360 C 
ATOM     14  O   LIG    1        4.282  -4.056   0.631  0.00  0.00    -0.520 OA
ENDROOT
BRANCH   1  23
ATOM     15  C   LIG    1        7.755  -3.416   4.976  0.00  0.00    +0.220 C 
ATOM     16  N   LIG    1        8.324  -3.162   3.646  0.00  0.00    -0.490 N 
ATOM     17  C   LIG    1        9.658  -2.560   3.750  0.00  0.00    +0.210 C 
ATOM     18  C   LIG    1        9.500  -1.092   4.169  0.00  0.00    +0.210 C 
ATOM     19  O   LIG    1        8.792  -0.411   3.129  0.00  0.00    -0.300 OA
ATOM     20  C   LIG    1        7.694  -1.037   2.626  0.00  0.00    +0.120 A 
ATOM     21  C   LIG    1        6.803  -0.299   1.854  0.00  0.00    +0.000 A 
ATOM     22  C   LIG    1        5.682  -0.896   1.322  0.00  0.00    +0.070 A 
ATOM     23  C   LIG    1        5.436  -2.251   1.558  0.00  0.00    -0.160 A 
ATOM     24  C   LIG    1        6.326  -2.991   2.338  0.00  0.00    +0.120 A 
ATOM     25  C   LIG    1        7.456  -2.387   2.869  0.00  0.00    +0.020 A 
ENDBRANCH   1  23
TORSDOF 1
