REMARK  Name = ZINCrg00001JduSd.0
REMARK                            x       y       z     vdW  Elec       q    Type
REMARK                         _______ _______ _______ _____ _____    ______ ____
ROOT
ATOM      1  C   LIG    1        3.499   2.082  -0.630  0.00  0.00    +0.230 C 
ATOM      2  C   LIG    1        3.102   2.448  -2.061  0.00  0.00    +0.030 C 
ENDROOT
BRANCH   1   3
ATOM      3  N   LIG    1        4.778   1.367  -0.646  0.00  0.00    -0.700 N 
ATOM      4  H   LIG    1        4.791   0.397  -0.651  0.00  0.00    +0.410 HD
ATOM      5  C   LIG    1        5.936   2.056  -0.653  0.00  0.00    +0.530 C 
ATOM      6  O   LIG    1        5.919   3.269  -0.647  0.00  0.00    -0.530 OA
BRANCH   5   7
ATOM      7  C   LIG    1        7.251   1.321  -0.670  0.00  0.00    +0.000 C 
ATOM      8  C   LIG    1        8.399   2.333  -0.675  0.00  0.00    +0.060 C 
ATOM      9  C   LIG    1        9.705   1.583  -0.969  0.00  0.00    +0.040 C 
ATOM     10  C   LIG    1        9.659   1.066  -2.407  0.00  0.00    +0.220 C 
ATOM     11  N   LIG    1        8.419   0.340  -2.650  0.00  0.00    -0.710 N 
ATOM     12  H   LIG    1        8.387  -0.266  -3.406  0.00  0.00    +0.400 HD
ATOM     13  C   LIG    1        7.324   0.458  -1.897  0.00  0.00    +0.530 C 
ATOM     14  O   LIG    1        6.336  -0.166  -2.220  0.00  0.00    -0.550 OA
BRANCH  10  15
ATOM     15  C   LIG    1       10.844   0.127  -2.644  0.00  0.00    -0.030 C 
ATOM     16  C   LIG    1       12.152   0.887  -2.414  0.00  0.00    +0.030 C 
ATOM     17  C   LIG    1       10.802  -0.393  -4.083  0.00  0.00    +0.020 C 
ENDBRANCH  10  15
ENDBRANCH   5   7
ENDBRANCH   1   3
BRANCH   1  18
ATOM     18  C   LIG    1        2.422   1.187  -0.015  0.00  0.00    +0.240 C 
ATOM     19  C   LIG    1        2.819   0.820   1.417  0.00  0.00    +0.040 C 
BRANCH  18  21
ATOM     20  C   LIG    1       -0.014   1.212   0.009  0.00  0.00    +0.610 C 
ATOM     21  N   LIG    1        1.143   1.902   0.001  0.00  0.00    -0.710 N 
ATOM     22  H   LIG    1        1.130   2.872   0.007  0.00  0.00    +0.410 HD
ATOM     23  O   LIG    1        0.002  -0.004   0.002  0.00  0.00    -0.540 OA
BRANCH  20  27
ATOM     24  N   LIG    1       -3.437   2.380   0.032  0.00  0.00    -0.460 N 
ATOM     25  C   LIG    1       -2.740   3.546   0.035  0.00  0.00    +0.400 A 
ATOM     26  N   LIG    1       -1.466   3.279   0.033  0.00  0.00    -0.460 NA
ATOM     27  C   LIG    1       -1.300   1.931   0.019  0.00  0.00    -0.070 A 
ATOM     28  C   LIG    1       -2.541   1.365   0.021  0.00  0.00    +0.230 A 
BRANCH  24  30
ATOM     29  C   LIG    1       -5.396   2.189   1.482  0.00  0.00    +0.040 C 
ATOM     30  C   LIG    1       -4.895   2.245   0.038  0.00  0.00    +0.300 C 
ENDBRANCH  24  30
ENDBRANCH  20  27
ENDBRANCH  18  21
ENDBRANCH   1  18
TORSDOF 7
