REMARK  Name = ZINCqH0000000fgM.0
REMARK                            x       y       z     vdW  Elec       q    Type
REMARK                         _______ _______ _______ _____ _____    ______ ____
ROOT
ATOM      1  N   LIG    1        6.229   0.496   2.314  0.00  0.00    -0.600 N 
ATOM      2  C   LIG    1        5.128  -0.066   1.779  0.00  0.00    +0.500 C 
ATOM      3  O   LIG    1        4.340  -0.654   2.489  0.00  0.00    -0.510 OA
ENDROOT
BRANCH   1   4
ATOM      4  C   LIG    1        7.180   1.206   1.456  0.00  0.00    +0.310 C 
BRANCH   4   6
ATOM      5  C   LIG    1        7.655   3.591   1.677  0.00  0.00    +0.040 C 
ATOM      6  C   LIG    1        6.789   2.659   1.366  0.00  0.00    -0.080 C 
ENDBRANCH   4   6
ENDBRANCH   1   4
BRANCH   2   7
ATOM      7  C   LIG    1        4.875   0.034   0.296  0.00  0.00    +0.330 C 
BRANCH   7   8
ATOM      8  N   LIG    1        3.624  -0.652  -0.034  0.00  0.00    -0.530 N 
ATOM      9  C   LIG    1        3.626  -1.964  -0.356  0.00  0.00    +0.500 C 
ATOM     10  C   LIG    1        2.333  -2.644  -0.730  0.00  0.00    +0.230 C 
ATOM     11  O   LIG    1        1.248  -2.036  -0.024  0.00  0.00    -0.300 OA
ATOM     12  C   LIG    1        1.211  -0.677  -0.013  0.00  0.00    +0.090 A 
ATOM     13  C   LIG    1        0.002  -0.004   0.002  0.00  0.00    +0.030 A 
ATOM     14  C   LIG    1       -0.017   1.379   0.010  0.00  0.00    +0.030 A 
ATOM     15  C   LIG    1        1.168   2.092   0.002  0.00  0.00    +0.020 A 
ATOM     16  C   LIG    1        2.380   1.427  -0.013  0.00  0.00    +0.000 A 
ATOM     17  C   LIG    1        2.102  -2.505  -2.236  0.00  0.00    +0.060 C 
ATOM     18  O   LIG    1        4.663  -2.592  -0.345  0.00  0.00    -0.500 OA
ATOM     19  C   LIG    1        2.406   0.042  -0.020  0.00  0.00    +0.100 A 
ENDBRANCH   7   8
ENDBRANCH   2   7
BRANCH   1  20
ATOM     20  C   LIG    1        6.474   0.398   3.755  0.00  0.00    +0.390 C 
BRANCH  20  21
ATOM     21  C   LIG    1        7.276  -0.845   4.045  0.00  0.00    -0.200 A 
ATOM     22  C   LIG    1        8.607  -0.911   4.074  0.00  0.00    +0.030 A 
ATOM     23  C   LIG    1        9.123  -2.163   4.363  0.00  0.00    +0.020 A 
ATOM     24  C   LIG    1        8.209  -3.113   4.569  0.00  0.00    -0.150 A 
ATOM     25 CL   LIG    1        8.557  -4.771   4.949  0.00  0.00    -0.010 Cl
ATOM     26  S   LIG    1        6.598  -2.427   4.404  0.00  0.00    +0.190 S 
ENDBRANCH  20  21
ENDBRANCH   1  20
TORSDOF 6
