REMARK  Name = ZINCpk00000FeKkw.0
REMARK                            x       y       z     vdW  Elec       q    Type
REMARK                         _______ _______ _______ _____ _____    ______ ____
ROOT
ATOM      1  C   LIG    1        0.948   1.543  -3.576  0.00  0.00    +0.550 C 
ATOM      2  N   LIG    1        1.508   1.204  -2.398  0.00  0.00    -0.600 N 
ATOM      3  C   LIG    1        2.053   2.273  -1.539  0.00  0.00    +0.250 C 
ATOM      4  C   LIG    1        1.704   2.061  -0.055  0.00  0.00    +0.020 C 
ATOM      5  C   LIG    1        0.284   1.571   0.079  0.00  0.00    +0.030 C 
ATOM      6  C   LIG    1        0.273   0.045   0.083  0.00  0.00    +0.230 C 
ATOM      7  C   LIG    1        0.261  -0.565  -1.255  0.00  0.00    +0.000 C 
ATOM      8  C   LIG    1        1.551  -0.193  -2.027  0.00  0.00    +0.290 C 
ATOM      9  O   LIG    1        0.574   0.677  -4.342  0.00  0.00    -0.520 OA
ENDROOT
BRANCH   1  14
ATOM     10  C   LIG    1        0.287   7.039  -4.954  0.00  0.00    +0.330 C 
ATOM     11  N   LIG    1        0.466   5.628  -4.602  0.00  0.00    -0.500 N 
ATOM     12  C   LIG    1       -0.586   4.923  -4.114  0.00  0.00    +0.310 A 
ATOM     13  C   LIG    1       -0.457   3.618  -3.784  0.00  0.00    -0.060 A 
ATOM     14  C   LIG    1        0.789   2.974  -3.938  0.00  0.00    -0.010 A 
ATOM     15  C   LIG    1        1.859   3.696  -4.436  0.00  0.00    -0.060 A 
ATOM     16  C   LIG    1        1.671   5.052  -4.769  0.00  0.00    +0.510 A 
ATOM     17  O   LIG    1        2.603   5.705  -5.210  0.00  0.00    -0.540 OA
ENDBRANCH   1  14
BRANCH   6  18
ATOM     18  N   LIG    1       -0.915  -0.409   0.809  0.00  0.00    -0.750 N 
ATOM     19  H   LIG    1       -1.695   0.164   0.871  0.00  0.00    +0.400 HD
BRANCH  18  20
ATOM     20  C   LIG    1       -0.926  -1.672   1.415  0.00  0.00    +0.110 A 
ATOM     21  C   LIG    1       -2.050  -2.111   2.113  0.00  0.00    +0.020 A 
ATOM     22  C   LIG    1       -2.018  -3.367   2.691  0.00  0.00    -0.060 A 
ATOM     23  C   LIG    1       -0.869  -4.140   2.568  0.00  0.00    +0.350 A 
ATOM     24  N   LIG    1        0.182  -3.690   1.902  0.00  0.00    -0.510 NA
ATOM     25  C   LIG    1        0.184  -2.499   1.333  0.00  0.00    +0.220 A 
BRANCH  23  26
ATOM     26  N   LIG    1       -0.824  -5.404   3.152  0.00  0.00    -0.860 N 
ATOM     27  H   LIG    1       -1.591  -5.740   3.642  0.00  0.00    +0.400 HD
ATOM     28  H   LIG    1       -0.025  -5.949   3.070  0.00  0.00    +0.400 HD
ENDBRANCH  23  26
ENDBRANCH  18  20
ENDBRANCH   6  18
TORSDOF 4
