REMARK  Name = ZINCrH000004sw3w.0
REMARK                            x       y       z     vdW  Elec       q    Type
REMARK                         _______ _______ _______ _____ _____    ______ ____
ROOT
ATOM      1  N   LIG    1       -3.590   2.326   0.530  0.00  0.00    -0.740 N 
ATOM      2  H   LIG    1       -3.521   3.279   0.698  0.00  0.00    +0.400 HD
ATOM      3  C   LIG    1       -2.480   1.601   0.290  0.00  0.00    +0.700 C 
ATOM      4  N   LIG    1       -1.272   2.200   0.282  0.00  0.00    -0.670 N 
ATOM      5  H   LIG    1       -1.208   3.163   0.379  0.00  0.00    +0.420 HD
ATOM      6  O   LIG    1       -2.567   0.407   0.080  0.00  0.00    -0.560 OA
ENDROOT
BRANCH   4   7
ATOM      7  C   LIG    1       -0.109   1.431   0.135  0.00  0.00    +0.200 A 
ATOM      8  C   LIG    1       -0.053   0.148   0.659  0.00  0.00    +0.040 A 
ATOM      9  C   LIG    1        1.093  -0.611   0.508  0.00  0.00    +0.050 A 
ATOM     10  C   LIG    1        2.185  -0.095  -0.164  0.00  0.00    +0.020 A 
ATOM     11  C   LIG    1        2.138   1.183  -0.690  0.00  0.00    -0.050 A 
ATOM     12 CL   LIG    1        3.512   1.827  -1.534  0.00  0.00    -0.050 Cl
ATOM     13  C   LIG    1        0.992   1.952  -0.543  0.00  0.00    +0.070 A 
BRANCH  13  14
ATOM     14  N   LIG    1        0.941   3.246  -1.075  0.00  0.00    -0.500 N 
ATOM     15  C   LIG    1        1.089   3.221  -2.536  0.00  0.00    +0.210 C 
ATOM     16  C   LIG    1        1.958   4.109  -0.458  0.00  0.00    +0.210 C 
ENDBRANCH  13  14
ENDBRANCH   4   7
BRANCH   1  17
ATOM     17  C   LIG    1       -4.903   1.675   0.539  0.00  0.00    +0.430 C 
BRANCH  17  22
ATOM     18  C   LIG    1       -5.359   1.966  -4.484  0.00  0.00    +0.200 C 
ATOM     19  C   LIG    1       -5.629   1.721  -3.022  0.00  0.00    +0.180 A 
ATOM     20  N   LIG    1       -6.727   1.238  -2.508  0.00  0.00    -0.290 NA
ATOM     21  N   LIG    1       -6.609   1.159  -1.230  0.00  0.00    -0.270 NA
ATOM     22  C   LIG    1       -5.433   1.597  -0.870  0.00  0.00    +0.170 A 
ATOM     23  N   LIG    1       -4.777   1.963  -1.997  0.00  0.00    -0.570 N 
ATOM     24  H   LIG    1       -3.879   2.325  -2.058  0.00  0.00    +0.420 HD
ENDBRANCH  17  22
BRANCH  17  25
ATOM     25  C   LIG    1       -5.855   2.474   1.391  0.00  0.00    -0.090 A 
ATOM     26  C   LIG    1       -5.828   3.856   1.346  0.00  0.00    +0.010 A 
ATOM     27  C   LIG    1       -6.704   4.589   2.125  0.00  0.00    +0.010 A 
ATOM     28  C   LIG    1       -7.601   3.941   2.954  0.00  0.00    +0.020 A 
ATOM     29  C   LIG    1       -7.624   2.560   3.002  0.00  0.00    +0.020 A 
ATOM     30  C   LIG    1       -6.750   1.826   2.220  0.00  0.00    +0.050 A 
ENDBRANCH  17  25
ENDBRANCH   1  17
TORSDOF 5
