REMARK  Name = ZINCrH000004sw3w.1
REMARK                            x       y       z     vdW  Elec       q    Type
REMARK                         _______ _______ _______ _____ _____    ______ ____
ROOT
ATOM      1  N   LIG    1       -5.540   2.564   1.574  0.00  0.00    -0.730 N 
ATOM      2  H   LIG    1       -5.459   1.597   1.575  0.00  0.00    +0.400 HD
ATOM      3  C   LIG    1       -4.441   3.332   1.432  0.00  0.00    +0.710 C 
ATOM      4  N   LIG    1       -3.230   2.756   1.294  0.00  0.00    -0.670 N 
ATOM      5  H   LIG    1       -3.156   1.791   1.230  0.00  0.00    +0.410 HD
ATOM      6  O   LIG    1       -4.542   4.543   1.430  0.00  0.00    -0.560 OA
ENDROOT
BRANCH   4   7
ATOM      7  C   LIG    1       -2.077   3.552   1.240  0.00  0.00    +0.200 A 
ATOM      8  C   LIG    1       -2.120   4.797   0.632  0.00  0.00    +0.040 A 
ATOM      9  C   LIG    1       -0.982   5.581   0.580  0.00  0.00    +0.050 A 
ATOM     10  C   LIG    1        0.201   5.128   1.134  0.00  0.00    +0.010 A 
ATOM     11  C   LIG    1        0.251   3.889   1.748  0.00  0.00    -0.050 A 
ATOM     12 CL   LIG    1        1.737   3.328   2.449  0.00  0.00    -0.060 Cl
ATOM     13  C   LIG    1       -0.885   3.094   1.799  0.00  0.00    +0.070 A 
BRANCH  13  14
ATOM     14  N   LIG    1       -0.835   1.838   2.416  0.00  0.00    -0.500 N 
ATOM     15  C   LIG    1       -0.540   1.966   3.849  0.00  0.00    +0.200 C 
ATOM     16  C   LIG    1        0.142   0.965   1.753  0.00  0.00    +0.190 C 
ENDBRANCH  13  14
ENDBRANCH   4   7
BRANCH   1  17
ATOM     17  C   LIG    1       -6.856   3.190   1.724  0.00  0.00    +0.440 C 
BRANCH  17  21
ATOM     18  C   LIG    1      -10.280   1.492   4.960  0.00  0.00    +0.210 C 
ATOM     19  C   LIG    1       -9.258   1.526   3.852  0.00  0.00    +0.290 A 
ATOM     20  N   LIG    1       -8.599   2.581   3.448  0.00  0.00    -0.530 NA
ATOM     21  C   LIG    1       -7.779   2.247   2.451  0.00  0.00    +0.230 A 
ATOM     22  N   LIG    1       -7.912   0.971   2.203  0.00  0.00    -0.300 NA
ATOM     23  N   LIG    1       -8.866   0.478   3.108  0.00  0.00    -0.480 N 
ATOM     24  H   LIG    1       -9.182  -0.436   3.179  0.00  0.00    +0.440 HD
ENDBRANCH  17  21
BRANCH  17  25
ATOM     25  C   LIG    1       -7.423   3.500   0.363  0.00  0.00    -0.100 A 
ATOM     26  C   LIG    1       -7.260   2.602  -0.675  0.00  0.00    +0.030 A 
ATOM     27  C   LIG    1       -7.784   2.884  -1.922  0.00  0.00    +0.000 A 
ATOM     28  C   LIG    1       -8.465   4.068  -2.134  0.00  0.00    +0.010 A 
ATOM     29  C   LIG    1       -8.624   4.968  -1.097  0.00  0.00    +0.010 A 
ATOM     30  C   LIG    1       -8.104   4.684   0.151  0.00  0.00    +0.040 A 
ENDBRANCH  17  25
ENDBRANCH   1  17
TORSDOF 5
