REMARK  Name = ZINCnE000001Ssf0.0
REMARK                            x       y       z     vdW  Elec       q    Type
REMARK                         _______ _______ _______ _____ _____    ______ ____
ROOT
ATOM      1  O   LIG    1       -1.709   2.265   1.150  0.00  0.00    -0.500 OA
ATOM      2  C   LIG    1       -0.717   1.573   1.248  0.00  0.00    +0.510 C 
ATOM      3  N   LIG    1       -0.242   1.246   2.466  0.00  0.00    -0.690 N 
ATOM      4  H   LIG    1        0.511   0.639   2.546  0.00  0.00    +0.410 HD
ENDROOT
BRANCH   3   5
ATOM      5  C   LIG    1       -0.834   1.782   3.615  0.00  0.00    +0.180 A 
ATOM      6  C   LIG    1       -2.203   2.006   3.652  0.00  0.00    +0.050 A 
ATOM      7  C   LIG    1       -2.786   2.534   4.788  0.00  0.00    +0.060 A 
ATOM      8  C   LIG    1       -2.006   2.842   5.888  0.00  0.00    -0.060 A 
ATOM      9  C   LIG    1       -0.639   2.620   5.854  0.00  0.00    -0.010 A 
ATOM     10 CL   LIG    1        0.338   3.007   7.237  0.00  0.00    -0.050 Cl
ATOM     11 CL   LIG    1       -2.741   3.507   7.313  0.00  0.00    -0.060 Cl
ATOM     12  C   LIG    1       -0.052   2.086   4.723  0.00  0.00    +0.000 A 
ENDBRANCH   3   5
BRANCH   2  13
ATOM     13  C   LIG    1       -0.016   1.080   0.008  0.00  0.00    +0.180 C 
BRANCH  13  14
ATOM     14  C   LIG    1       -0.743   1.583  -1.213  0.00  0.00    -0.430 A 
ATOM     15  C   LIG    1       -0.502   2.732  -1.852  0.00  0.00    +0.410 A 
ATOM     16  N   LIG    1       -1.277   2.948  -2.902  0.00  0.00    -0.550 NA
ATOM     17  C   LIG    1       -2.158   2.036  -3.177  0.00  0.00    +0.230 A 
ATOM     18  O   LIG    1        0.462   3.607  -1.455  0.00  0.00    -0.710 OA
ATOM     19  S   LIG    1       -2.053   0.754  -2.051  0.00  0.00    +0.030 S 
BRANCH  17  20
ATOM     20  N   LIG    1       -3.053   2.091  -4.234  0.00  0.00    -0.440 N 
ATOM     21  C   LIG    1       -4.455   2.120  -3.745  0.00  0.00    +0.190 C 
ATOM     22  C   LIG    1       -5.239   2.699  -4.949  0.00  0.00    +0.030 C 
ATOM     23  C   LIG    1       -4.266   3.756  -5.520  0.00  0.00    +0.010 C 
ATOM     24  C   LIG    1       -2.873   3.333  -5.017  0.00  0.00    +0.200 C 
ENDBRANCH  17  20
ENDBRANCH  13  14
ENDBRANCH   2  13
TORSDOF 4
