REMARK  Name = ZINCrg000000tzWI.0
REMARK                            x       y       z     vdW  Elec       q    Type
REMARK                         _______ _______ _______ _____ _____    ______ ____
ROOT
ATOM      1  N   LIG    1       -4.904   3.865   0.067  0.00  0.00    -0.510 N 
ATOM      2  H   LIG    1       -4.915   4.835   0.073  0.00  0.00    +0.430 HD
ATOM      3  C   LIG    1       -6.063   3.178   0.074  0.00  0.00    +0.490 C 
ATOM      4  O   LIG    1       -6.050   1.965   0.068  0.00  0.00    -0.520 OA
ENDROOT
BRANCH   3   5
ATOM      5  C   LIG    1       -7.377   3.917   0.090  0.00  0.00    +0.270 C 
ATOM      6  C   LIG    1       -7.491   4.757   1.379  0.00  0.00    +0.060 C 
ATOM      7  C   LIG    1       -8.986   4.604   1.763  0.00  0.00    +0.050 C 
ATOM      8  C   LIG    1       -9.270   3.144   1.332  0.00  0.00    +0.270 C 
ATOM      9  N   LIG    1       -8.490   2.957   0.095  0.00  0.00    -0.990 NA
BRANCH   9  10
ATOM     10  S   LIG    1       -8.815   1.849  -1.092  0.00  0.00    +2.710 S 
ATOM     11  O   LIG    1       -8.221   2.350  -2.282  0.00  0.00    -0.950 OA
ATOM     12  O   LIG    1      -10.198   1.541  -0.986  0.00  0.00    -0.950 OA
BRANCH  10  13
ATOM     13  C   LIG    1       -7.943   0.374  -0.683  0.00  0.00    -0.660 A 
ATOM     14  C   LIG    1       -6.656   0.181  -1.148  0.00  0.00    +0.180 A 
ATOM     15  C   LIG    1       -5.970  -0.975  -0.823  0.00  0.00    -0.020 A 
ATOM     16  C   LIG    1       -6.575  -1.941  -0.041  0.00  0.00    +0.070 A 
ATOM     17  C   LIG    1       -7.864  -1.750   0.420  0.00  0.00    -0.020 A 
ATOM     18  C   LIG    1       -8.548  -0.592   0.099  0.00  0.00    +0.110 A 
ENDBRANCH  10  13
ENDBRANCH   9  10
ENDBRANCH   3   5
BRANCH   1  21
ATOM     19  O   LIG    1       -2.537   5.081   0.052  0.00  0.00    -0.520 OA
ATOM     20  C   LIG    1       -2.523   3.865   0.045  0.00  0.00    +0.560 C 
ATOM     21  N   LIG    1       -3.683   3.178   0.052  0.00  0.00    -0.520 N 
ATOM     22  H   LIG    1       -3.672   2.208   0.047  0.00  0.00    +0.430 HD
BRANCH  20  23
ATOM     23  C   LIG    1       -1.238   3.142   0.030  0.00  0.00    -0.160 A 
ATOM     24  C   LIG    1       -1.217   1.746   0.017  0.00  0.00    +0.060 A 
ATOM     25  C   LIG    1       -0.013   1.076   0.008  0.00  0.00    +0.000 A 
ATOM     26  C   LIG    1        1.179   1.782   0.000  0.00  0.00    +0.070 A 
ATOM     27  C   LIG    1        1.173   3.162   0.008  0.00  0.00    -0.010 A 
ATOM     28  C   LIG    1       -0.029   3.853   0.023  0.00  0.00    +0.180 A 
BRANCH  28  29
ATOM     29  O   LIG    1       -0.036   5.209   0.030  0.00  0.00    -0.480 OA
ATOM     30  H   LIG    1       -0.046   5.607  -0.851  0.00  0.00    +0.400 HD
ENDBRANCH  28  29
ENDBRANCH  20  23
ENDBRANCH   1  21
TORSDOF 6
