REMARK  Name = ZINCtV000002yAGg.0
REMARK                            x       y       z     vdW  Elec       q    Type
REMARK                         _______ _______ _______ _____ _____    ______ ____
ROOT
ATOM      1  C   LIG    1        7.157  -0.086   1.106  0.00  0.00    +0.140 C 
ENDROOT
BRANCH   1   6
ATOM      2  C   LIG    1        7.225  -2.838   5.502  0.00  0.00    -0.010 A 
ATOM      3  C   LIG    1        7.841  -3.635   4.561  0.00  0.00    +0.040 A 
ATOM      4  C   LIG    1        7.987  -3.183   3.255  0.00  0.00    +0.160 A 
ATOM      5  C   LIG    1        7.503  -1.910   2.907  0.00  0.00    -0.150 A 
ATOM      6  C   LIG    1        7.661  -1.443   1.526  0.00  0.00    +0.030 A 
ATOM      7  C   LIG    1        8.269  -2.267   0.636  0.00  0.00    -0.050 A 
ATOM      8  C   LIG    1        8.735  -3.532   1.056  0.00  0.00    +0.510 A 
ATOM      9  O   LIG    1        9.283  -4.261   0.249  0.00  0.00    -0.450 OA
ATOM     10  C   LIG    1        6.880  -1.111   3.871  0.00  0.00    +0.110 A 
ATOM     11  O   LIG    1        8.587  -3.952   2.322  0.00  0.00    -0.270 OA
ATOM     12  C   LIG    1        6.746  -1.580   5.159  0.00  0.00    -0.060 A 
ATOM     13 CL   LIG    1        5.973  -0.594   6.361  0.00  0.00    -0.050 Cl
BRANCH   2  15
ATOM     14  C   LIG    1        8.160  -2.719   7.795  0.00  0.00    +0.040 C 
ATOM     15  C   LIG    1        7.071  -3.336   6.915  0.00  0.00    +0.080 C 
ENDBRANCH   2  15
ENDBRANCH   1   6
BRANCH   1  16
ATOM     16  S   LIG    1        5.354  -0.132   0.956  0.00  0.00    +0.030 S 
BRANCH  16  17
ATOM     17  C   LIG    1        5.045   1.532   0.468  0.00  0.00    +0.200 A 
ATOM     18  C   LIG    1        3.732   2.017   0.216  0.00  0.00    -0.150 A 
ATOM     19  C   LIG    1        3.562   3.354  -0.168  0.00  0.00    +0.080 A 
ATOM     20  S   LIG    1        1.867   3.685  -0.413  0.00  0.00    +0.190 S 
ATOM     21  C   LIG    1        1.411   2.038  -0.001  0.00  0.00    -0.170 A 
ATOM     22  C   LIG    1       -0.019   1.526   0.010  0.00  0.00    +0.120 C 
ATOM     23  C   LIG    1        0.002  -0.004   0.002  0.00  0.00    +0.030 C 
ATOM     24  C   LIG    1        0.950  -0.492   1.102  0.00  0.00    +0.030 C 
ATOM     25  C   LIG    1        2.390  -0.175   0.699  0.00  0.00    +0.120 C 
ATOM     26  N   LIG    1        4.616   4.173  -0.299  0.00  0.00    -0.470 NA
ATOM     27  C   LIG    1        5.812   3.670  -0.052  0.00  0.00    +0.520 A 
ATOM     28  C   LIG    1        2.481   1.294   0.302  0.00  0.00    -0.070 A 
ATOM     29  N   LIG    1        6.027   2.422   0.312  0.00  0.00    -0.540 NA
ENDBRANCH  16  17
ENDBRANCH   1  16
TORSDOF 4
