REMARK  Name = ZINCrD000000C4dr.0
REMARK                            x       y       z     vdW  Elec       q    Type
REMARK                         _______ _______ _______ _____ _____    ______ ____
ROOT
ATOM      1  O   LIG    1       -1.105  -4.670   0.093  0.00  0.00    -0.560 OA
ATOM      2  C   LIG    1        0.060  -5.016   0.075  0.00  0.00    +0.710 C 
ATOM      3  N   LIG    1        0.377  -6.322   0.165  0.00  0.00    -0.620 N 
ATOM      4  C   LIG    1        1.781  -6.747   0.260  0.00  0.00    +0.270 C 
ATOM      5  C   LIG    1        1.942  -7.645   1.490  0.00  0.00    +0.030 C 
ATOM      6  C   LIG    1        0.941  -8.799   1.409  0.00  0.00    +0.050 C 
ATOM      7  C   LIG    1       -0.486  -8.237   1.409  0.00  0.00    -0.070 C 
ATOM      8  C   LIG    1       -0.705  -7.405   2.669  0.00  0.00    +0.060 C 
ATOM      9  C   LIG    1       -1.855  -7.947   3.540  0.00  0.00    -0.300 C 
ATOM     10  S   LIG    1       -1.918  -9.724   3.074  0.00  0.00    +2.380 S 
ATOM     11  O   LIG    1       -3.255 -10.198   3.161  0.00  0.00    -0.930 OA
ATOM     12  O   LIG    1       -0.866 -10.429   3.719  0.00  0.00    -0.930 OA
ATOM     13  C   LIG    1       -1.477  -9.418   1.316  0.00  0.00    -0.290 C 
ATOM     14  C   LIG    1       -0.674  -7.348   0.178  0.00  0.00    +0.320 C 
ATOM     15  N   LIG    1        1.035  -4.091  -0.036  0.00  0.00    -0.680 N 
ATOM     16  H   LIG    1        1.959  -4.371  -0.134  0.00  0.00    +0.410 HD
ENDROOT
BRANCH  15  17
ATOM     17  C   LIG    1        0.715  -2.733  -0.010  0.00  0.00    +0.170 A 
ATOM     18  C   LIG    1       -0.436  -2.291   0.613  0.00  0.00    +0.020 A 
ATOM     19  C   LIG    1       -0.783  -0.940   0.656  0.00  0.00    +0.050 A 
ATOM     20  C   LIG    1        0.016  -0.002   0.075  0.00  0.00    -0.100 A 
ATOM     21  C   LIG    1       -0.049   1.500  -0.066  0.00  0.00    +0.100 C 
ATOM     22  C   LIG    1        1.220   1.890  -0.856  0.00  0.00    +0.100 C 
ATOM     23  C   LIG    1        1.939   0.590  -1.122  0.00  0.00    -0.070 A 
ATOM     24  C   LIG    1        3.094   0.250  -1.758  0.00  0.00    +0.010 A 
ATOM     25  C   LIG    1        3.491  -1.087  -1.831  0.00  0.00    +0.010 A 
ATOM     26  C   LIG    1        2.756  -2.098  -1.280  0.00  0.00    +0.000 A 
ATOM     27  C   LIG    1        1.180  -0.430  -0.556  0.00  0.00    -0.060 A 
ATOM     28  C   LIG    1        1.561  -1.782  -0.619  0.00  0.00    -0.060 A 
ENDBRANCH  15  17
TORSDOF 1
