REMARK  Name = ZINCqH0000001JY0.0
REMARK                            x       y       z     vdW  Elec       q    Type
REMARK                         _______ _______ _______ _____ _____    ______ ____
ROOT
ATOM      1  N   LIG    1       -0.018   1.465   0.010  0.00  0.00    -0.480 N 
ATOM      2  H1  LIG    1       -0.490   1.790   0.840  0.00  0.00    +0.400 HD
ATOM      3  H2  LIG    1       -0.506   1.799  -0.807  0.00  0.00    +0.420 HD
ENDROOT
BRANCH   1   4
ATOM      4  C   ACE A  0        0.002  -0.004   0.002  0.00  0.00    +0.320 C 
BRANCH   4   9
ATOM      5  C   LIG    1       -3.369  -1.236  -1.173  0.00  0.00    -0.050 A 
ATOM      6  C   LIG    1       -4.009  -1.483   0.025  0.00  0.00    +0.010 A 
ATOM      7  C   LIG    1       -3.349  -1.251   1.224  0.00  0.00    +0.110 A 
ATOM      8  C   LIG    1       -2.046  -0.776   1.214  0.00  0.00    +0.000 A 
ATOM      9  C   LIG    1       -1.412  -0.526   0.013  0.00  0.00    -0.120 A 
ATOM     10  C   LIG    1       -2.071  -0.758  -1.180  0.00  0.00    +0.050 A 
BRANCH   5  12
ATOM     11  C   LIG    1       -4.479  -2.964  -2.563  0.00  0.00    +0.030 C 
ATOM     12  C   LIG    1       -4.085  -1.488  -2.475  0.00  0.00    +0.030 C 
ATOM     13  C   LIG    1       -5.342  -0.620  -2.542  0.00  0.00    +0.030 C 
ENDBRANCH   5  12
BRANCH   7  14
ATOM     14  O   LIG    1       -3.978  -1.492   2.404  0.00  0.00    -0.500 OA
ATOM     15  H   LIG    1       -3.854  -2.391   2.739  0.00  0.00    +0.400 HD
ENDBRANCH   7  14
ENDBRANCH   4   9
ENDBRANCH   1   4
BRANCH   1  16
ATOM     16  CA  LIG    1        1.360   1.973  -0.000  0.00  0.00    +0.080 C 
BRANCH  16  17
ATOM     17  C   LIG    1        2.027   1.591  -1.296  0.00  0.00    +0.500 C 
ATOM     18  OXT LIG    1        3.227   1.755  -1.436  0.00  0.00    -0.630 OA
ATOM     19  O   LIG    1        1.367   1.117  -2.205  0.00  0.00    -0.670 OA
ENDBRANCH  16  17
BRANCH  16  20
ATOM     20  CB  LIG    1        1.343   3.497   0.134  0.00  0.00    +0.160 C 
BRANCH  20  21
ATOM     21  CG  LIG    1        0.788   3.877   1.483  0.00  0.00    -0.190 A 
ATOM     22  CD1 LIG    1       -0.486   4.193   1.762  0.00  0.00    +0.210 A 
ATOM     23  NE1 LIG    1       -0.615   4.481   3.093  0.00  0.00    -0.590 N 
ATOM     24  HE1 LIG    1       -1.442   4.737   3.531  0.00  0.00    +0.420 HD
ATOM     25  CE2 LIG    1        0.605   4.353   3.720  0.00  0.00    +0.100 A 
ATOM     26  CZ2 LIG    1        1.029   4.523   5.033  0.00  0.00    -0.010 A 
ATOM     27  CH2 LIG    1        2.352   4.315   5.357  0.00  0.00    +0.040 A 
ATOM     28  CZ3 LIG    1        3.268   3.936   4.386  0.00  0.00    -0.010 A 
ATOM     29  CE3 LIG    1        2.873   3.763   3.089  0.00  0.00    +0.060 A 
ATOM     30  CD2 LIG    1        1.536   3.963   2.739  0.00  0.00    -0.100 A 
ENDBRANCH  20  21
ENDBRANCH  16  20
ENDBRANCH   1  16
TORSDOF 8
