REMARK  Name = ZINCc70000001Zft.0
REMARK                            x       y       z     vdW  Elec       q    Type
REMARK                         _______ _______ _______ _____ _____    ______ ____
ROOT
ATOM      1  C   LIG    1       -2.678   5.151   0.043  0.00  0.00    +0.020 C 
ENDROOT
BRANCH   1   2
ATOM      2  C   LIG    1       -4.127   5.641   0.052  0.00  0.00    +0.010 C 
BRANCH   2   3
ATOM      3  C   LIG    1       -4.148   7.171   0.061  0.00  0.00    +0.260 C 
BRANCH   3   6
ATOM      4  C   LIG    1       -7.227   9.445   0.088  0.00  0.00    +0.110 C 
ATOM      5  C   LIG    1       -5.800   8.962   0.078  0.00  0.00    +0.510 C 
ATOM      6  N   LIG    1       -5.535   7.641   0.070  0.00  0.00    -0.730 N 
ATOM      7  H   LIG    1       -6.264   7.000   0.070  0.00  0.00    +0.400 HD
ATOM      8  O   LIG    1       -4.889   9.763   0.078  0.00  0.00    -0.550 OA
ENDBRANCH   3   6
ENDBRANCH   2   3
ENDBRANCH   1   2
BRANCH   1   9
ATOM      9  C   LIG    1       -2.657   3.621   0.034  0.00  0.00    +0.030 C 
BRANCH   9  10
ATOM     10  C   LIG    1       -1.208   3.131   0.025  0.00  0.00    +0.060 C 
BRANCH  10  11
ATOM     11  C   LIG    1       -1.187   1.624   0.017  0.00  0.00    +0.510 C 
ATOM     12  O   LIG    1       -2.229   1.003   0.018  0.00  0.00    -0.540 OA
ATOM     13  N   LIG    1       -0.011   0.966   0.007  0.00  0.00    -0.860 N 
ATOM     14  H   LIG    1        0.822   1.462   0.002  0.00  0.00    +0.400 HD
ATOM     15  H   LIG    1        0.002  -0.004   0.002  0.00  0.00    +0.400 HD
ENDBRANCH  10  11
ENDBRANCH   9  10
ENDBRANCH   1   9
TORSDOF 6
