REMARK  Name = ZINCrg000015vu2d.0
REMARK                            x       y       z     vdW  Elec       q    Type
REMARK                         _______ _______ _______ _____ _____    ______ ____
ROOT
ATOM      1  C   LIG    1       -0.014   1.209   0.009  0.00  0.00    +0.520 C 
ATOM      2  N   LIG    1       -1.191   1.867   0.018  0.00  0.00    -0.610 N 
ATOM      3  C   LIG    1       -1.233   3.337   0.032  0.00  0.00    +0.290 C 
ATOM      4  C   LIG    1       -2.163   3.803  -1.099  0.00  0.00    +0.190 C 
ATOM      5  N   LIG    1       -3.468   3.143  -0.957  0.00  0.00    -0.480 N 
ATOM      6  C   LIG    1       -3.347   1.687  -1.105  0.00  0.00    +0.190 C 
ATOM      7  C   LIG    1       -2.466   1.133   0.020  0.00  0.00    +0.300 C 
ATOM      8  O   LIG    1        0.002  -0.004   0.002  0.00  0.00    -0.510 OA
ENDROOT
BRANCH   5   9
ATOM      9  C   LIG    1       -4.395   3.664  -1.866  0.00  0.00    +0.070 A 
ATOM     10  C   LIG    1       -5.051   2.819  -2.751  0.00  0.00    +0.000 A 
ATOM     11  C   LIG    1       -5.970   3.333  -3.644  0.00  0.00    -0.050 A 
ATOM     12  C   LIG    1       -6.230   4.696  -3.666  0.00  0.00    +0.110 A 
ATOM     13  C   LIG    1       -5.571   5.542  -2.786  0.00  0.00    +0.000 A 
ATOM     14  C   LIG    1       -4.655   5.028  -1.888  0.00  0.00    +0.030 A 
BRANCH  12  15
ATOM     15  O   LIG    1       -7.130   5.202  -4.550  0.00  0.00    -0.320 OA
ATOM     16  C   LIG    1       -7.772   4.274  -5.426  0.00  0.00    +0.240 C 
ENDBRANCH  12  15
ENDBRANCH   5   9
BRANCH   1  17
ATOM     17  C   LIG    1        1.280   1.980   0.001  0.00  0.00    +0.270 C 
BRANCH  17  18
ATOM     18  O   LIG    1        2.397   1.051  -0.015  0.00  0.00    -0.320 OA
BRANCH  18  19
ATOM     19  C   LIG    1        3.635   1.583  -0.024  0.00  0.00    +0.500 C 
ATOM     20  O   LIG    1        3.777   2.789  -0.019  0.00  0.00    -0.490 OA
BRANCH  19  22
ATOM     21  C   LIG    1        6.051   1.231  -0.049  0.00  0.00    +0.070 C 
ATOM     22  C   LIG    1        4.817   0.700  -0.040  0.00  0.00    +0.070 C 
BRANCH  21  23
ATOM     23  C   LIG    1        7.233   0.348  -0.065  0.00  0.00    +0.490 C 
ATOM     24  O   LIG    1        7.090  -0.858  -0.070  0.00  0.00    -0.490 OA
BRANCH  23  25
ATOM     25  O   LIG    1        8.471   0.880  -0.074  0.00  0.00    -0.350 OA
BRANCH  25  27
ATOM     26  C   LIG    1       10.902   0.734  -0.098  0.00  0.00    +0.070 C 
ATOM     27  C   LIG    1        9.588  -0.049  -0.090  0.00  0.00    +0.200 C 
ENDBRANCH  25  27
ENDBRANCH  23  25
ENDBRANCH  21  23
ENDBRANCH  19  22
ENDBRANCH  18  19
ENDBRANCH  17  18
ENDBRANCH   1  17
TORSDOF 9
