REMARK  Name = ZINCpe000027pHdq.0
REMARK                            x       y       z     vdW  Elec       q    Type
REMARK                         _______ _______ _______ _____ _____    ______ ____
ROOT
ATOM      1  C   LIG    1       -2.343   1.090  -2.823  0.00  0.00    -0.060 C 
ATOM      2  C   LIG    1       -2.049  -0.248  -2.141  0.00  0.00    +0.140 C 
ATOM      3 CL   LIG    1       -1.302   1.560  -4.218  0.00  0.00    -0.080 Cl
ATOM      4  C   LIG    1       -1.698   1.062  -1.439  0.00  0.00    -0.100 C 
ATOM      5  C   LIG    1       -0.217   1.441  -1.332  0.00  0.00    +0.110 C 
ATOM      6  C   LIG    1        0.312   0.962   0.025  0.00  0.00    +0.270 C 
ATOM      7  N   LIG    1       -0.504   1.537   1.100  0.00  0.00    -0.380 N 
ATOM      8  C   LIG    1       -1.869   1.002   1.042  0.00  0.00    +0.270 C 
ATOM      9  H   LIG    1       -0.534   2.540   0.997  0.00  0.00    +0.420 HD
ATOM     10  C   LIG    1       -2.554   1.484  -0.241  0.00  0.00    +0.120 C 
ENDROOT
BRANCH   1  11
ATOM     11  C   LIG    1       -3.783   1.526  -2.911  0.00  0.00    +0.500 C 
ATOM     12  O   LIG    1       -4.382   1.836  -1.909  0.00  0.00    -0.490 OA
BRANCH  11  14
ATOM     13  C   LIG    1       -5.787   1.998  -4.111  0.00  0.00    +0.280 C 
ATOM     14  O   LIG    1       -4.400   1.569  -4.102  0.00  0.00    -0.340 OA
ENDBRANCH  11  14
ENDBRANCH   1  11
BRANCH   7  15
ATOM     15  C   LIG    1        0.095   1.202   2.399  0.00  0.00    +0.270 C 
BRANCH  15  16
ATOM     16  C   LIG    1        0.049  -0.314   2.606  0.00  0.00    +0.060 C 
BRANCH  16  17
ATOM     17  C   LIG    1        0.760  -0.668   3.886  0.00  0.00    +0.530 C 
ATOM     18  N   LIG    1        0.846  -1.955   4.275  0.00  0.00    -1.130 NA
ATOM     19  O   LIG    1        1.256   0.206   4.566  0.00  0.00    -0.630 OA
BRANCH  18  20
ATOM     20  S   LIG    1        1.628  -2.344   5.682  0.00  0.00    +2.580 S 
ATOM     21  O   LIG    1        0.852  -1.724   6.698  0.00  0.00    -1.010 OA
ATOM     22  O   LIG    1        2.976  -1.959   5.452  0.00  0.00    -1.010 OA
BRANCH  20  23
ATOM     23  C   LIG    1        1.492  -4.150   5.791  0.00  0.00    -0.330 C 
BRANCH  23  24
ATOM     24  C   LIG    1        2.185  -4.638   7.065  0.00  0.00    -0.040 C 
ATOM     25  C   LIG    1        3.405  -5.547   6.902  0.00  0.00    +0.030 C 
ATOM     26  C   LIG    1        2.079  -6.127   7.401  0.00  0.00    +0.030 C 
ENDBRANCH  23  24
ENDBRANCH  20  23
ENDBRANCH  18  20
ENDBRANCH  16  17
ENDBRANCH  15  16
ENDBRANCH   7  15
TORSDOF 8
