REMARK  Name = ZINCrH00000No4Do.0
REMARK                            x       y       z     vdW  Elec       q    Type
REMARK                         _______ _______ _______ _____ _____    ______ ____
ROOT
ATOM      1  C   LIG    1       -2.800   0.079  -5.419  0.00  0.00    +0.090 A 
ATOM      2  C   LIG    1       -2.265  -0.055  -4.155  0.00  0.00    +0.160 A 
ATOM      3  N   LIG    1       -2.124  -1.395  -3.925  0.00  0.00    -0.370 N 
ATOM      4  C   LIG    1       -1.657  -2.103  -2.849  0.00  0.00    +0.190 A 
ATOM      5  C   LIG    1       -1.628  -3.450  -2.872  0.00  0.00    +0.050 A 
ATOM      6  C   LIG    1       -2.083  -4.151  -4.003  0.00  0.00    +0.010 A 
ATOM      7  C   LIG    1       -2.556  -3.465  -5.079  0.00  0.00    +0.160 A 
ATOM      8  F   LIG    1       -2.996  -4.128  -6.171  0.00  0.00    -0.110 F 
ATOM      9  C   LIG    1       -2.582  -2.053  -5.043  0.00  0.00    +0.180 A 
ATOM     10  N   LIG    1       -2.979  -1.153  -5.928  0.00  0.00    -0.420 NA
ENDROOT
BRANCH   1  15
ATOM     11  C   LIG    1       -3.960   2.554  -8.013  0.00  0.00    +0.110 A 
ATOM     12  C   LIG    1       -3.721   3.754  -7.361  0.00  0.00    -0.060 A 
ATOM     13  C   LIG    1       -3.185   3.759  -6.086  0.00  0.00    +0.050 A 
ATOM     14  C   LIG    1       -2.885   2.571  -5.452  0.00  0.00    +0.020 A 
ATOM     15  C   LIG    1       -3.122   1.357  -6.097  0.00  0.00    +0.010 A 
ATOM     16  C   LIG    1       -3.658   1.351  -7.387  0.00  0.00    +0.090 A 
BRANCH  11  18
ATOM     17  C   LIG    1       -4.768   3.827  -9.852  0.00  0.00    +0.240 C 
ATOM     18  O   LIG    1       -4.487   2.554  -9.267  0.00  0.00    -0.310 OA
ENDBRANCH  11  18
BRANCH  16  19
ATOM     19  O   LIG    1       -3.887   0.172  -8.025  0.00  0.00    -0.310 OA
ATOM     20  C   LIG    1       -5.171  -0.427  -7.841  0.00  0.00    +0.220 C 
ENDBRANCH  16  19
ENDBRANCH   1  15
BRANCH   2  21
ATOM     21  N   LIG    1       -1.927   0.979  -3.280  0.00  0.00    -0.570 N 
ATOM     22  H   LIG    1       -2.740   1.522  -3.030  0.00  0.00    +0.370 HD
BRANCH  21  23
ATOM     23  C   LIG    1       -1.253   0.458  -2.083  0.00  0.00    +0.200 C 
BRANCH  23  24
ATOM     24  C   LIG    1       -0.768   1.625  -1.222  0.00  0.00    +0.170 C 
ATOM     25  C   LIG    1        0.049   1.091  -0.029  0.00  0.00    +0.010 C 
ATOM     26  C   LIG    1       -0.703   1.622   1.217  0.00  0.00    +0.000 C 
ATOM     27  C   LIG    1       -1.510   2.808   0.625  0.00  0.00    +0.210 C 
ATOM     28  O   LIG    1       -1.895   2.337  -0.684  0.00  0.00    -0.380 OA
ENDBRANCH  23  24
ENDBRANCH  21  23
ENDBRANCH   2  21
TORSDOF 6
