REMARK  Name = ZINCkj000005kraG.0
REMARK                            x       y       z     vdW  Elec       q    Type
REMARK                         _______ _______ _______ _____ _____    ______ ____
ROOT
ATOM      1  N   LIG    1        5.210   2.668  -1.408  0.00  0.00    -0.690 N 
ATOM      2  H   LIG    1        4.571   2.719  -2.137  0.00  0.00    +0.410 HD
ATOM      3  C   LIG    1        6.531   2.727  -1.665  0.00  0.00    +0.500 C 
ATOM      4  O   LIG    1        7.330   2.663  -0.754  0.00  0.00    -0.530 OA
ENDROOT
BRANCH   3   5
ATOM      5  C   LIG    1        7.017   2.871  -3.084  0.00  0.00    +0.180 C 
ATOM      6  C   LIG    1        6.466   4.167  -3.683  0.00  0.00    +0.120 C 
BRANCH   5   7
ATOM      7  N   LIG    1        8.486   2.911  -3.098  0.00  0.00    -0.460 N 
ATOM      8  H   LIG    1        8.848   2.094  -2.629  0.00  0.00    +0.430 HD
ATOM      9  H   LIG    1        8.804   3.741  -2.621  0.00  0.00    +0.430 HD
BRANCH   7  10
ATOM     10  C   LIG    1        8.963   2.931  -4.487  0.00  0.00    +0.090 C 
ATOM     11  C   LIG    1        9.795   1.739  -4.965  0.00  0.00    +0.100 C 
ATOM     12  C   LIG    1       10.467   3.091  -4.715  0.00  0.00    +0.110 C 
ENDBRANCH   7  10
ENDBRANCH   5   7
ENDBRANCH   3   5
BRANCH   1  13
ATOM     13  C   LIG    1        4.737   2.528  -0.029  0.00  0.00    +0.410 C 
BRANCH  13  19
ATOM     14  C   LIG    1       -2.482   0.947   0.019  0.00  0.00    +0.120 C 
ATOM     15  C   LIG    1       -1.194   1.728   0.017  0.00  0.00    -0.090 A 
ATOM     16  C   LIG    1       -0.013   1.076   0.008  0.00  0.00    +0.210 A 
ATOM     17  N   LIG    1        1.164   1.768   0.000  0.00  0.00    -0.360 N 
ATOM     18  C   LIG    1        2.473   1.369  -0.014  0.00  0.00    +0.120 A 
ATOM     19  C   LIG    1        3.231   2.487  -0.015  0.00  0.00    +0.020 A 
ATOM     20  N   LIG    1        2.423   3.550  -0.002  0.00  0.00    -0.480 NA
ATOM     21  C   LIG    1        1.163   3.139   0.007  0.00  0.00    +0.230 A 
ATOM     22  C   LIG    1       -0.063   3.835   0.022  0.00  0.00    +0.080 A 
ATOM     23  C   LIG    1       -1.228   3.133   0.029  0.00  0.00    +0.060 A 
ENDBRANCH  13  19
ENDBRANCH   1  13
TORSDOF 5
