REMARK  Name = ZINCpk00000y6tRp.0
REMARK                            x       y       z     vdW  Elec       q    Type
REMARK                         _______ _______ _______ _____ _____    ______ ____
ROOT
ATOM      1  N   LIG    1       -0.449   0.646  -0.617  0.00  0.00    -0.570 N 
ATOM      2  C   LIG    1        0.518   1.746  -0.432  0.00  0.00    +0.270 C 
ATOM      3  C   LIG    1        1.547   1.434   0.670  0.00  0.00    +0.010 C 
ATOM      4  C   LIG    1        0.869   0.758   1.836  0.00  0.00    +0.010 C 
ATOM      5  C   LIG    1        0.935  -0.755   1.652  0.00  0.00    +0.250 C 
ATOM      6  C   LIG    1       -0.143  -1.312   0.820  0.00  0.00    +0.020 C 
ATOM      7  C   LIG    1       -0.059  -0.746  -0.619  0.00  0.00    +0.300 C 
ENDROOT
BRANCH   1  12
ATOM      8  N   LIG    1       -4.094   0.257  -1.036  0.00  0.00    -0.480 N 
ATOM      9  C   LIG    1       -4.408   1.577  -1.164  0.00  0.00    +0.160 A 
ATOM     10  C   LIG    1       -3.450   2.526  -1.110  0.00  0.00    +0.190 A 
ATOM     11  N   LIG    1       -2.166   2.216  -0.932  0.00  0.00    -0.510 NA
ATOM     12  C   LIG    1       -1.788   0.962  -0.802  0.00  0.00    +0.340 A 
ATOM     13  C   LIG    1       -2.801  -0.098  -0.861  0.00  0.00    +0.480 A 
ATOM     14  O   LIG    1       -2.485  -1.270  -0.749  0.00  0.00    -0.520 OA
BRANCH   8  16
ATOM     15  C   LIG    1       -5.332  -1.216  -2.546  0.00  0.00    +0.030 C 
ATOM     16  C   LIG    1       -5.142  -0.765  -1.096  0.00  0.00    +0.280 C 
ENDBRANCH   8  16
ENDBRANCH   1  12
BRANCH   5  17
ATOM     17  N   LIG    1        0.875  -1.385   2.973  0.00  0.00    -0.990 NA
BRANCH  17  18
ATOM     18  S   LIG    1        2.130  -2.329   3.498  0.00  0.00    +2.600 S 
ATOM     19  O   LIG    1        2.788  -2.733   2.305  0.00  0.00    -0.950 OA
ATOM     20  O   LIG    1        1.517  -3.282   4.355  0.00  0.00    -0.950 OA
ATOM     21  C   LIG    1        3.179  -1.198   4.452  0.00  0.00    -0.290 C 
ENDBRANCH  17  18
BRANCH  17  22
ATOM     22  C   LIG    1       -0.296  -1.180   3.830  0.00  0.00    +0.250 C 
ATOM     23  C   LIG    1        0.031  -1.192   5.332  0.00  0.00    -0.010 C 
ATOM     24  C   LIG    1       -1.273  -1.983   5.530  0.00  0.00    +0.030 C 
ATOM     25  C   LIG    1       -1.110  -2.461   4.077  0.00  0.00    +0.020 C 
ENDBRANCH  17  22
ENDBRANCH   5  17
TORSDOF 5
