REMARK  Name = ZINCrH000004pT4H.0
REMARK                            x       y       z     vdW  Elec       q    Type
REMARK                         _______ _______ _______ _____ _____    ______ ____
ROOT
ATOM      1  N   LIG    1        4.458   0.686   0.062  0.00  0.00    -0.740 N 
ATOM      2  H   LIG    1        4.585   1.350   0.757  0.00  0.00    +0.400 HD
ATOM      3  C   LIG    1        3.284   0.033  -0.041  0.00  0.00    +0.710 C 
ATOM      4  N   LIG    1        2.285   0.302   0.823  0.00  0.00    -0.630 N 
ATOM      5  C   LIG    1        2.476   1.306   1.874  0.00  0.00    +0.280 C 
ATOM      6  O   LIG    1        3.126  -0.800  -0.912  0.00  0.00    -0.570 OA
ENDROOT
BRANCH   1  10
ATOM      7  C   LIG    1        6.957   0.732  -3.303  0.00  0.00    +0.090 C 
ATOM      8  C   LIG    1        7.539   1.371  -2.040  0.00  0.00    -0.390 C 
ATOM      9  C   LIG    1        6.420   1.628  -1.021  0.00  0.00    +0.080 C 
ATOM     10  C   LIG    1        5.544   0.393  -0.877  0.00  0.00    +0.330 C 
ATOM     11  C   LIG    1        6.325  -0.805  -0.370  0.00  0.00    +0.010 A 
ATOM     12  C   LIG    1        7.657  -0.958  -0.495  0.00  0.00    -0.760 A 
ATOM     13  S   LIG    1        8.168  -2.486   0.203  0.00  0.00    +0.220 S 
ATOM     14  C   LIG    1        6.515  -2.864   0.662  0.00  0.00    -0.010 A 
ATOM     15  C   LIG    1        5.712  -1.877   0.283  0.00  0.00    +0.010 A 
ATOM     16  S   LIG    1        8.727   0.231  -1.260  0.00  0.00    +2.500 S 
ATOM     17  O   LIG    1        9.441  -0.507  -2.242  0.00  0.00    -0.920 OA
ATOM     18  O   LIG    1        9.397   0.861  -0.176  0.00  0.00    -0.920 OA
ENDBRANCH   1  10
BRANCH   4  19
ATOM     19  C   LIG    1        1.009  -0.408   0.712  0.00  0.00    +0.340 C 
BRANCH  19  20
ATOM     20  C   LIG    1        0.059   0.388  -0.186  0.00  0.00    -0.110 C 
ATOM     21  C   LIG    1        0.237   1.907  -0.232  0.00  0.00    +0.020 C 
ATOM     22  C   LIG    1        0.652   1.050  -1.431  0.00  0.00    +0.030 C 
BRANCH  20  23
ATOM     23  C   LIG    1       -1.345  -0.151  -0.286  0.00  0.00    -0.040 A 
ATOM     24  C   LIG    1       -1.894  -0.421  -1.526  0.00  0.00    +0.010 A 
ATOM     25  C   LIG    1       -3.180  -0.920  -1.618  0.00  0.00    +0.000 A 
ATOM     26  C   LIG    1       -3.920  -1.140  -0.471  0.00  0.00    +0.000 A 
ATOM     27  C   LIG    1       -3.373  -0.865   0.768  0.00  0.00    +0.000 A 
ATOM     28  C   LIG    1       -2.085  -0.370   0.860  0.00  0.00    +0.010 A 
ENDBRANCH  20  23
ENDBRANCH  19  20
ENDBRANCH   4  19
TORSDOF 4
