REMARK  Name = ZINCtV00000L6jnL.0
REMARK                            x       y       z     vdW  Elec       q    Type
REMARK                         _______ _______ _______ _____ _____    ______ ____
ROOT
ATOM      1  C   LIG    1        1.756   2.096  -0.004  0.00  0.00    +0.010 C 
ATOM      2  C   LIG    1        2.359   1.600  -1.319  0.00  0.00    +0.090 C 
ENDROOT
BRANCH   1   3
ATOM      3  C   LIG    1        1.986   3.580   0.126  0.00  0.00    +0.540 C 
ATOM      4  N   LIG    1        3.183   4.043   0.538  0.00  0.00    -0.720 N 
ATOM      5  H   LIG    1        3.896   3.421   0.752  0.00  0.00    +0.400 HD
ATOM      6  O   LIG    1        1.094   4.357  -0.141  0.00  0.00    -0.520 OA
BRANCH   4   7
ATOM      7  C   LIG    1        3.406   5.485   0.664  0.00  0.00    +0.290 C 
ATOM      8  C   LIG    1        3.817   6.058  -0.694  0.00  0.00    +0.040 C 
BRANCH   7   9
ATOM      9  C   LIG    1        4.502   5.738   1.668  0.00  0.00    -0.080 A 
ATOM     10  C   LIG    1        5.448   4.762   1.919  0.00  0.00    +0.050 A 
ATOM     11  C   LIG    1        6.456   4.996   2.836  0.00  0.00    +0.040 A 
ATOM     12  C   LIG    1        6.512   6.202   3.511  0.00  0.00    -0.020 A 
ATOM     13  C   LIG    1        5.562   7.177   3.264  0.00  0.00    +0.050 A 
ATOM     14 CL   LIG    1        7.774   6.492   4.667  0.00  0.00    -0.050 Cl
ATOM     15  C   LIG    1        4.556   6.945   2.343  0.00  0.00    -0.020 A 
ATOM     16 CL   LIG    1        3.364   8.168   2.033  0.00  0.00    -0.040 Cl
ENDBRANCH   7   9
ENDBRANCH   4   7
ENDBRANCH   1   3
BRANCH   1  17
ATOM     17  S   LIG    1       -0.022   1.758   0.012  0.00  0.00    +0.020 S 
BRANCH  17  24
ATOM     18  C   LIG    1        1.407  -6.248  -0.040  0.00  0.00    +0.090 C 
ATOM     19  C   LIG    1        1.327  -4.744  -0.033  0.00  0.00    -0.080 A 
ATOM     20  C   LIG    1        0.109  -4.135  -0.019  0.00  0.00    +0.030 A 
ATOM     21  C   LIG    1        0.034  -2.733  -0.012  0.00  0.00    -0.100 A 
ATOM     22  C   LIG    1       -1.209  -2.068   0.003  0.00  0.00    -0.010 A 
ATOM     23  C   LIG    1       -1.212  -0.706   0.016  0.00  0.00    -0.020 A 
ATOM     24  C   LIG    1        0.002  -0.004   0.002  0.00  0.00    +0.140 A 
ATOM     25  N   LIG    1        1.161  -0.632  -0.012  0.00  0.00    -0.480 NA
ATOM     26  C   LIG    1       -2.501  -2.844   0.012  0.00  0.00    +0.120 C 
ATOM     27  C   LIG    1        1.226  -1.968  -0.020  0.00  0.00    +0.140 A 
ATOM     28  C   LIG    1        2.464  -2.632  -0.035  0.00  0.00    -0.060 A 
ATOM     29  C   LIG    1        3.747  -1.841  -0.043  0.00  0.00    +0.110 C 
ATOM     30  C   LIG    1        2.501  -3.993  -0.041  0.00  0.00    +0.030 A 
ENDBRANCH  17  24
ENDBRANCH   1  17
TORSDOF 5
