REMARK  Name = ZINCrD000002GIIq.0
REMARK                            x       y       z     vdW  Elec       q    Type
REMARK                         _______ _______ _______ _____ _____    ______ ____
ROOT
ATOM      1  C   LIG    1        1.092   0.643   4.733  0.00  0.00    +0.250 C 
ENDROOT
BRANCH   1   2
ATOM      2  C   LIG    1        1.965   0.181   5.902  0.00  0.00    -0.020 C 
ATOM      3  C   LIG    1        1.653  -1.290   6.246  0.00  0.00    +0.020 C 
ATOM      4  C   LIG    1        1.754  -1.349   7.790  0.00  0.00    +0.020 C 
ATOM      5  C   LIG    1        1.142   0.006   8.225  0.00  0.00    +0.000 C 
ATOM      6  C   LIG    1        1.641   1.005   7.160  0.00  0.00    +0.010 C 
ENDBRANCH   1   2
BRANCH   1   7
ATOM      7  N   LIG    1        1.422   2.030   4.395  0.00  0.00    -0.720 N 
ATOM      8  H   LIG    1        2.338   2.274   4.189  0.00  0.00    +0.400 HD
ATOM      9  C   LIG    1        0.453   2.966   4.371  0.00  0.00    +0.560 C 
ATOM     10  O   LIG    1       -0.676   2.682   4.721  0.00  0.00    -0.510 OA
BRANCH   9  11
ATOM     11  C   LIG    1        0.762   4.335   3.919  0.00  0.00    -0.130 A 
ATOM     12  C   LIG    1        2.058   4.666   3.516  0.00  0.00    +0.070 A 
ATOM     13  C   LIG    1        2.340   5.948   3.095  0.00  0.00    -0.010 A 
ATOM     14  C   LIG    1        1.345   6.912   3.069  0.00  0.00    +0.060 A 
ATOM     15  C   LIG    1        0.060   6.601   3.464  0.00  0.00    -0.020 A 
ATOM     16  C   LIG    1       -0.246   5.313   3.886  0.00  0.00    -0.040 A 
BRANCH  16  17
ATOM     17  S   LIG    1       -1.888   4.910   4.384  0.00  0.00    +0.000 S 
ATOM     18  C   LIG    1       -2.777   6.475   4.161  0.00  0.00    +0.070 C 
ENDBRANCH  16  17
ENDBRANCH   9  11
ENDBRANCH   1   7
BRANCH   1  19
ATOM     19  C   LIG    1        1.349  -0.252   3.519  0.00  0.00    +0.260 C 
BRANCH  19  21
ATOM     20  C   LIG    1        0.679  -0.372   1.180  0.00  0.00    +0.490 C 
ATOM     21  N   LIG    1        0.604   0.261   2.367  0.00  0.00    -0.720 N 
ATOM     22  H   LIG    1        0.057   1.057   2.459  0.00  0.00    +0.410 HD
ATOM     23  O   LIG    1        1.364  -1.367   1.065  0.00  0.00    -0.530 OA
BRANCH  20  24
ATOM     24  C   LIG    1       -0.087   0.156  -0.006  0.00  0.00    +0.120 C 
ATOM     25  C   LIG    1       -1.516  -0.387   0.028  0.00  0.00    +0.090 C 
BRANCH  24  26
ATOM     26  O   LIG    1       -0.119   1.584   0.046  0.00  0.00    -0.540 OA
ATOM     27  H   LIG    1        0.755   1.998   0.028  0.00  0.00    +0.380 HD
ENDBRANCH  24  26
BRANCH  24  28
ATOM     28  C   LIG    1        0.599  -0.292  -1.297  0.00  0.00    +0.020 C 
BRANCH  28  30
ATOM     29  C   LIG    1        0.508  -0.204  -3.793  0.00  0.00    +0.010 C 
ATOM     30  C   LIG    1       -0.178   0.244  -2.501  0.00  0.00    +0.020 C 
ENDBRANCH  28  30
ENDBRANCH  24  28
ENDBRANCH  20  24
ENDBRANCH  19  21
ENDBRANCH   1  19
TORSDOF 10
