REMARK  Name = ZINCpe00000MJJaQ.0
REMARK                            x       y       z     vdW  Elec       q    Type
REMARK                         _______ _______ _______ _____ _____    ______ ____
ROOT
ATOM      1  C   LIG    1        4.205   0.746  -3.655  0.00  0.00    +0.130 C 
ATOM      2  C   LIG    1        3.703   2.098  -4.168  0.00  0.00    +0.010 C 
ATOM      3  C   LIG    1        4.061   3.186  -3.152  0.00  0.00    +0.040 C 
ATOM      4  C   LIG    1        3.445   2.833  -1.796  0.00  0.00    +0.160 C 
ATOM      5  N   LIG    1        3.958   1.532  -1.348  0.00  0.00    -0.500 NA
ATOM      6  C   LIG    1        3.586   0.464  -2.285  0.00  0.00    +0.220 C 
ENDROOT
BRANCH   1   7
ATOM      7  O   LIG    1        5.629   0.779  -3.538  0.00  0.00    -0.530 OA
ATOM      8  H   LIG    1        6.088   0.957  -4.370  0.00  0.00    +0.370 HD
ENDBRANCH   1   7
BRANCH   5   9
ATOM      9  C   LIG    1        3.496   1.224   0.012  0.00  0.00    +0.360 C 
BRANCH   9  10
ATOM     10  C   LIG    1        1.997   1.068   0.010  0.00  0.00    +0.150 A 
ATOM     11  N   LIG    1        1.332  -0.015  -0.289  0.00  0.00    -0.280 NA
ATOM     12  N   LIG    1        0.070   0.205  -0.186  0.00  0.00    -0.290 NA
ATOM     13  C   LIG    1       -0.137   1.440   0.184  0.00  0.00    +0.380 A 
ATOM     14  N   LIG    1        1.083   2.030   0.321  0.00  0.00    -0.430 N 
BRANCH  14  15
ATOM     15  C   LIG    1        1.345   3.353   0.704  0.00  0.00    +0.110 A 
ATOM     16  C   LIG    1        2.162   3.613   1.796  0.00  0.00    +0.020 A 
ATOM     17  C   LIG    1        2.421   4.918   2.167  0.00  0.00    +0.040 A 
ATOM     18  C   LIG    1        1.861   5.965   1.459  0.00  0.00    +0.030 A 
ATOM     19  C   LIG    1        1.043   5.709   0.374  0.00  0.00    +0.040 A 
ATOM     20  C   LIG    1        0.784   4.406  -0.005  0.00  0.00    +0.020 A 
ENDBRANCH  14  15
ENDBRANCH   9  10
ENDBRANCH   5   9
BRANCH   1  21
ATOM     21  C   LIG    1        3.800  -0.356  -4.636  0.00  0.00    +0.320 C 
BRANCH  21  22
ATOM     22  N   LIG    1        4.389  -0.083  -5.949  0.00  0.00    -0.290 N 
ATOM     23  C   LIG    1        5.171  -0.929  -6.659  0.00  0.00    +0.150 A 
ATOM     24  C   LIG    1        5.492  -0.278  -7.801  0.00  0.00    +0.140 A 
ATOM     25  N   LIG    1        4.898   0.920  -7.735  0.00  0.00    -0.270 NA
ATOM     26  N   LIG    1        4.249   1.002  -6.628  0.00  0.00    -0.090 NA
ENDBRANCH  21  22
ENDBRANCH   1  21
TORSDOF 6
