REMARK  Name = ZINCpe00000MJKxL.0
REMARK                            x       y       z     vdW  Elec       q    Type
REMARK                         _______ _______ _______ _____ _____    ______ ____
ROOT
ATOM      1  C   LIG    1        4.672  -1.270   3.171  0.00  0.00    +0.170 C 
ATOM      2  C   LIG    1        6.087  -0.744   2.918  0.00  0.00    +0.030 C 
ENDROOT
BRANCH   1   3
ATOM      3  N   LIG    1        4.748  -2.601   3.786  0.00  0.00    -0.520 NA
ATOM      4  C   LIG    1        5.722  -3.451   3.087  0.00  0.00    +0.170 C 
ATOM      5  C   LIG    1        5.726  -4.844   3.722  0.00  0.00    +0.240 C 
ATOM      6  O   LIG    1        6.014  -4.726   5.117  0.00  0.00    -0.370 OA
ATOM      7  C   LIG    1        5.084  -3.905   5.830  0.00  0.00    +0.270 C 
ATOM      8  C   LIG    1        5.075  -2.503   5.216  0.00  0.00    +0.190 C 
BRANCH   7   9
ATOM      9  C   LIG    1        5.496  -3.818   7.277  0.00  0.00    +0.180 A 
ATOM     10  N   LIG    1        6.586  -3.270   7.740  0.00  0.00    -0.260 NA
ATOM     11  N   LIG    1        6.614  -3.375   9.021  0.00  0.00    -0.290 NA
ATOM     12  C   LIG    1        5.543  -3.996   9.434  0.00  0.00    +0.190 A 
ATOM     13  C   LIG    1        5.193  -4.320  10.864  0.00  0.00    +0.200 C 
ATOM     14  N   LIG    1        4.800  -4.290   8.339  0.00  0.00    -0.570 N 
ATOM     15  H   LIG    1        3.945  -4.748   8.320  0.00  0.00    +0.430 HD
ENDBRANCH   7   9
ENDBRANCH   1   3
BRANCH   1  17
ATOM     16  N   LIG    1        3.257  -0.294   1.392  0.00  0.00    -0.610 N 
ATOM     17  C   LIG    1        3.930  -1.363   1.862  0.00  0.00    +0.530 C 
ATOM     18  O   LIG    1        3.939  -2.399   1.232  0.00  0.00    -0.510 OA
ATOM     19  C   LIG    1        3.184   0.934   2.188  0.00  0.00    +0.280 C 
BRANCH  16  20
ATOM     20  C   LIG    1        2.599  -0.360   0.085  0.00  0.00    +0.400 C 
BRANCH  20  24
ATOM     21  C   LIG    1       -2.446  -0.683   0.678  0.00  0.00    +0.180 C 
ATOM     22  C   LIG    1       -0.976  -0.975   0.515  0.00  0.00    -0.030 A 
ATOM     23  C   LIG    1        0.021  -0.067   0.384  0.00  0.00    -0.060 A 
ATOM     24  C   LIG    1        1.187  -0.857   0.258  0.00  0.00    -0.010 A 
ATOM     25  N   LIG    1        0.799  -2.098   0.321  0.00  0.00    -0.340 NA
ATOM     26  O   LIG    1       -0.399  -2.183   0.464  0.00  0.00    +0.100 OA
ENDBRANCH  20  24
ENDBRANCH  16  20
ENDBRANCH   1  17
TORSDOF 5
