REMARK  Name = ZINCpe00000MJKxL.1
REMARK                            x       y       z     vdW  Elec       q    Type
REMARK                         _______ _______ _______ _____ _____    ______ ____
ROOT
ATOM      1  C   LIG    1       -1.451   3.568   2.449  0.00  0.00    +0.180 C 
ATOM      2  C   LIG    1       -2.801   2.878   2.655  0.00  0.00    +0.020 C 
ENDROOT
BRANCH   1   3
ATOM      3  N   LIG    1       -0.817   3.048   1.230  0.00  0.00    -0.510 NA
ATOM      4  C   LIG    1       -0.731   1.580   1.266  0.00  0.00    +0.170 C 
ATOM      5  C   LIG    1       -0.013   1.086   0.008  0.00  0.00    +0.240 C 
ATOM      6  O   LIG    1       -0.706   1.560  -1.149  0.00  0.00    -0.370 OA
ATOM      7  C   LIG    1       -0.807   2.985  -1.216  0.00  0.00    +0.290 C 
ATOM      8  C   LIG    1       -1.534   3.499   0.029  0.00  0.00    +0.170 C 
BRANCH   7   9
ATOM      9  C   LIG    1       -1.579   3.378  -2.449  0.00  0.00    +0.230 A 
ATOM     10  N   LIG    1       -2.687   2.820  -2.861  0.00  0.00    -0.290 NA
ATOM     11  N   LIG    1       -3.066   3.489  -4.036  0.00  0.00    -0.480 N 
ATOM     12  H   LIG    1       -3.848   3.309  -4.581  0.00  0.00    +0.440 HD
ATOM     13  C   LIG    1       -2.126   4.425  -4.259  0.00  0.00    +0.290 A 
ATOM     14  C   LIG    1       -2.099   5.394  -5.412  0.00  0.00    +0.190 C 
ATOM     15  N   LIG    1       -1.241   4.347  -3.299  0.00  0.00    -0.530 NA
ENDBRANCH   7   9
ENDBRANCH   1   3
BRANCH   1  17
ATOM     16  N   LIG    1       -0.942   3.686   4.867  0.00  0.00    -0.620 N 
ATOM     17  C   LIG    1       -0.561   3.295   3.634  0.00  0.00    +0.520 C 
ATOM     18  O   LIG    1        0.497   2.724   3.479  0.00  0.00    -0.500 OA
ATOM     19  C   LIG    1       -2.221   4.376   5.054  0.00  0.00    +0.280 C 
BRANCH  16  20
ATOM     20  C   LIG    1       -0.077   3.421   6.019  0.00  0.00    +0.400 C 
BRANCH  20  24
ATOM     21  C   LIG    1        2.127   7.737   7.577  0.00  0.00    +0.180 C 
ATOM     22  C   LIG    1        1.794   6.434   6.897  0.00  0.00    -0.030 A 
ATOM     23  C   LIG    1        0.683   5.682   7.084  0.00  0.00    -0.060 A 
ATOM     24  C   LIG    1        0.866   4.581   6.217  0.00  0.00    -0.010 A 
ATOM     25  N   LIG    1        2.011   4.764   5.627  0.00  0.00    -0.340 NA
ATOM     26  O   LIG    1        2.539   5.790   5.987  0.00  0.00    +0.100 OA
ENDBRANCH  20  24
ENDBRANCH  16  20
ENDBRANCH   1  17
TORSDOF 5
