REMARK  Name = ZINCvU0000000Iz2.0
REMARK                            x       y       z     vdW  Elec       q    Type
REMARK                         _______ _______ _______ _____ _____    ______ ____
ROOT
ATOM      1  C   LIG    1       -6.047   3.078   0.047  0.00  0.00    -0.060 A 
ATOM      2  C   LIG    1       -5.441   2.740  -1.169  0.00  0.00    +0.100 A 
ATOM      3  C   LIG    1       -4.250   2.071  -1.174  0.00  0.00    +0.030 A 
ATOM      4  C   LIG    1       -3.639   1.724   0.029  0.00  0.00    +0.230 A 
ATOM      5  C   LIG    1       -4.242   2.053   1.241  0.00  0.00    -0.050 A 
ATOM      6  C   LIG    1       -5.429   2.727   1.255  0.00  0.00    +0.130 A 
ENDROOT
BRANCH   5   7
ATOM      7  N   LIG    1       -3.591   1.676   2.516  0.00  0.00    +0.030 N 
ATOM      8  O   LIG    1       -2.529   1.079   2.504  0.00  0.00    -0.130 OA
ATOM      9  O   LIG    1       -4.117   1.962   3.576  0.00  0.00    -0.170 OA
ENDBRANCH   5   7
BRANCH   1  11
ATOM     10  C   LIG    1       -7.921   4.136  -1.109  0.00  0.00    -0.080 C 
ATOM     11  C   LIG    1       -7.327   3.798   0.057  0.00  0.00    +0.120 C 
BRANCH  10  12
ATOM     12  C   LIG    1       -9.195   4.853  -1.099  0.00  0.00    +0.420 C 
ATOM     13  O   LIG    1       -9.721   5.146  -0.040  0.00  0.00    -0.440 OA
BRANCH  12  17
ATOM     14  C   LIG    1      -11.063   5.915  -4.765  0.00  0.00    +0.200 A 
ATOM     15  C   LIG    1       -9.850   5.234  -4.773  0.00  0.00    -0.120 A 
ATOM     16  C   LIG    1       -9.242   4.888  -3.588  0.00  0.00    +0.140 A 
ATOM     17  C   LIG    1       -9.843   5.222  -2.371  0.00  0.00    -0.240 A 
ATOM     18  C   LIG    1      -11.069   5.906  -2.365  0.00  0.00    +0.220 A 
ATOM     19  C   LIG    1      -11.668   6.252  -3.563  0.00  0.00    -0.120 A 
BRANCH  14  21
ATOM     20  C   LIG    1      -10.980   5.875  -7.139  0.00  0.00    +0.250 C 
ATOM     21  O   LIG    1      -11.656   6.252  -5.938  0.00  0.00    -0.310 OA
ENDBRANCH  14  21
BRANCH  18  22
ATOM     22  O   LIG    1      -11.662   6.229  -1.188  0.00  0.00    -0.280 OA
ATOM     23  C   LIG    1      -12.908   6.924  -1.260  0.00  0.00    +0.250 C 
ENDBRANCH  18  22
ENDBRANCH  12  17
ENDBRANCH  10  12
ENDBRANCH   1  11
BRANCH   4  24
ATOM     24  N   LIG    1       -2.426   1.042   0.019  0.00  0.00    -0.590 N 
ATOM     25  C   LIG    1       -2.409  -0.422   0.011  0.00  0.00    +0.300 C 
BRANCH  24  26
ATOM     26  C   LIG    1       -1.225   1.755   0.017  0.00  0.00    +0.220 A 
ATOM     27  C   LIG    1       -0.013   1.076   0.008  0.00  0.00    -0.050 A 
ATOM     28  C   LIG    1        1.173   1.783   0.000  0.00  0.00    +0.050 A 
ATOM     29  C   LIG    1        1.155   3.166   0.009  0.00  0.00    -0.050 A 
ATOM     30  C   LIG    1       -0.049   3.845   0.023  0.00  0.00    +0.050 A 
ATOM     31  C   LIG    1       -1.239   3.144   0.031  0.00  0.00    -0.080 A 
ENDBRANCH  24  26
ENDBRANCH   4  24
TORSDOF 8
