REMARK  Name = ZINCnE00000iUusV.0
REMARK                            x       y       z     vdW  Elec       q    Type
REMARK                         _______ _______ _______ _____ _____    ______ ____
ROOT
ATOM      1  C   LIG    1        1.371   1.181  -2.421  0.00  0.00    +0.530 C 
ATOM      2  N   LIG    1        2.104   1.480  -1.330  0.00  0.00    -0.580 N 
ATOM      3  C   LIG    1        3.519   1.843  -1.444  0.00  0.00    +0.380 C 
ATOM      4  C   LIG    1        3.643   3.345  -1.529  0.00  0.00    -0.200 A 
ATOM      5  C   LIG    1        2.995   4.220  -0.734  0.00  0.00    -0.090 A 
ATOM      6  C   LIG    1        1.952   3.889   0.325  0.00  0.00    +0.100 C 
ATOM      7  C   LIG    1        2.167   2.500   0.915  0.00  0.00    +0.040 C 
ATOM      8  C   LIG    1        3.362   5.549  -0.981  0.00  0.00    -0.010 A 
ATOM      9  C   LIG    1        4.214   5.747  -1.976  0.00  0.00    -0.050 A 
ATOM     10  S   LIG    1        4.653   4.203  -2.687  0.00  0.00    +0.120 S 
ATOM     11  C   LIG    1        1.517   1.454  -0.003  0.00  0.00    +0.150 C 
ATOM     12  C   LIG    1       -0.015   1.496   0.018  0.00  0.00    +0.030 C 
ATOM     13  C   LIG    1        0.026  -0.042  -0.004  0.00  0.00    +0.020 C 
ATOM     14  C   LIG    1        1.425   0.061   0.629  0.00  0.00    +0.000 C 
ATOM     15  O   LIG    1        0.223   0.812  -2.298  0.00  0.00    -0.520 OA
ENDROOT
BRANCH   1  18
ATOM     16  C   LIG    1        2.242   0.230  -5.600  0.00  0.00    +0.010 C 
ATOM     17  C   LIG    1        1.028   0.894  -4.929  0.00  0.00    +0.030 C 
ATOM     18  C   LIG    1        1.980   1.306  -3.794  0.00  0.00    -0.030 C 
ATOM     19  C   LIG    1        2.853   0.105  -4.192  0.00  0.00    +0.040 C 
BRANCH  16  20
ATOM     20  C   LIG    1        1.921  -1.116  -6.254  0.00  0.00    -0.050 C 
BRANCH  20  22
ATOM     21  O   LIG    1        4.167  -0.968  -6.981  0.00  0.00    -0.700 OA
ATOM     22  C   LIG    1        3.139  -1.622  -6.984  0.00  0.00    +0.490 C 
ATOM     23  O   LIG    1        3.095  -2.686  -7.577  0.00  0.00    -0.710 OA
ENDBRANCH  20  22
ENDBRANCH  16  20
ENDBRANCH   1  18
TORSDOF 3
