REMARK  Name = ZINCkj000005fGsB.0
REMARK                            x       y       z     vdW  Elec       q    Type
REMARK                         _______ _______ _______ _____ _____    ______ ____
ROOT
ATOM      1  N   LIG    1       -0.746   1.679   1.267  0.00  0.00    -1.130 NA
ATOM      2  H   LIG    1       -0.859   2.637   1.367  0.00  0.00    +0.430 HD
ENDROOT
BRANCH   1   3
ATOM      3  S   LIG    1       -1.266   0.656   2.461  0.00  0.00    +2.680 S 
ATOM      4  O   LIG    1       -2.008  -0.370   1.815  0.00  0.00    -0.910 OA
ATOM      5  O   LIG    1       -1.807   1.478   3.487  0.00  0.00    -0.920 OA
BRANCH   3   6
ATOM      6  C   LIG    1        0.162  -0.117   3.144  0.00  0.00    -0.680 A 
ATOM      7  C   LIG    1        0.650  -1.284   2.586  0.00  0.00    +0.140 A 
ATOM      8  C   LIG    1        1.773  -1.888   3.119  0.00  0.00    +0.090 A 
ATOM      9  C   LIG    1        2.403  -1.331   4.216  0.00  0.00    +0.020 A 
ATOM     10  C   LIG    1        1.912  -0.167   4.777  0.00  0.00    +0.100 A 
ATOM     11  C   LIG    1        0.792   0.440   4.241  0.00  0.00    +0.140 A 
BRANCH   9  12
ATOM     12  N   LIG    1        3.602  -1.981   4.791  0.00  0.00    +0.010 N 
ATOM     13  O   LIG    1        4.035  -3.007   4.296  0.00  0.00    -0.130 OA
ATOM     14  O   LIG    1        4.157  -1.490   5.758  0.00  0.00    -0.130 OA
ENDBRANCH   9  12
ENDBRANCH   3   6
ENDBRANCH   1   3
BRANCH   1  15
ATOM     15  C   LIG    1       -0.115   1.137   0.061  0.00  0.00    +0.240 C 
BRANCH  15  16
ATOM     16  C   LIG    1       -0.992   1.443  -1.154  0.00  0.00    +0.050 C 
BRANCH  16  17
ATOM     17  C   LIG    1       -2.323   0.699  -1.024  0.00  0.00    +0.030 C 
BRANCH  17  19
ATOM     18  C   LIG    1       -4.530   0.261  -2.110  0.00  0.00    +0.020 C 
ATOM     19  C   LIG    1       -3.200   1.005  -2.240  0.00  0.00    +0.000 C 
ENDBRANCH  17  19
ENDBRANCH  16  17
ENDBRANCH  15  16
BRANCH  15  20
ATOM     20  C   LIG    1        1.260   1.779  -0.127  0.00  0.00    +0.290 C 
BRANCH  20  21
ATOM     21  N   LIG    1        2.073   1.558   1.076  0.00  0.00    -0.640 N 
ATOM     22  H   LIG    1        2.239   0.570   1.193  0.00  0.00    +0.430 HD
ATOM     23  H   LIG    1        1.584   1.915   1.883  0.00  0.00    +0.430 HD
ATOM     24  H   LIG    1        2.956   2.038   0.979  0.00  0.00    +0.450 HD
ENDBRANCH  20  21
ENDBRANCH  15  20
ENDBRANCH   1  15
TORSDOF 9
