REMARK  Name = ZINCrH000004lcMV.1
REMARK                            x       y       z     vdW  Elec       q    Type
REMARK                         _______ _______ _______ _____ _____    ______ ____
ROOT
ATOM      1  C   LIG    1        2.885   0.219   2.912  0.00  0.00    +0.530 C 
ATOM      2  N   LIG    1        1.601   0.593   2.741  0.00  0.00    -0.600 N 
ATOM      3  C   LIG    1        0.506  -0.212   3.301  0.00  0.00    +0.300 C 
ATOM      4  C   LIG    1       -0.483  -0.546   2.180  0.00  0.00    +0.020 C 
ATOM      5  C   LIG    1       -0.937   0.750   1.504  0.00  0.00    +0.010 C 
ATOM      6  C   LIG    1        0.272   1.456   0.886  0.00  0.00    +0.040 C 
ATOM      7  C   LIG    1        1.270   1.812   1.993  0.00  0.00    +0.320 C 
ATOM      8  O   LIG    1        3.769   0.798   2.318  0.00  0.00    -0.500 OA
ENDROOT
BRANCH   7   9
ATOM      9  C   LIG    1        2.522   2.386   1.382  0.00  0.00    +0.310 A 
ATOM     10  N   LIG    1        3.209   1.829   0.427  0.00  0.00    -0.450 NA
ATOM     11  C   LIG    1        4.274   2.611   0.114  0.00  0.00    +0.070 A 
ATOM     12  C   LIG    1        5.312   2.498  -0.814  0.00  0.00    +0.080 A 
ATOM     13  C   LIG    1        6.266   3.473  -0.891  0.00  0.00    +0.020 A 
ATOM     14  C   LIG    1        6.216   4.580  -0.054  0.00  0.00    -0.020 A 
ATOM     15  C   LIG    1        5.200   4.712   0.870  0.00  0.00    +0.030 A 
ATOM     16 CL   LIG    1        7.440   5.805  -0.172  0.00  0.00    -0.070 Cl
ATOM     17  C   LIG    1        4.223   3.731   0.962  0.00  0.00    +0.060 A 
ATOM     18  N   LIG    1        3.103   3.559   1.752  0.00  0.00    -0.600 N 
ATOM     19  H   LIG    1        2.790   4.163   2.443  0.00  0.00    +0.420 HD
ENDBRANCH   7   9
BRANCH   1  20
ATOM     20  C   LIG    1        3.221  -0.919   3.841  0.00  0.00    -0.070 C 
ATOM     21  C   LIG    1        2.422  -0.773   5.140  0.00  0.00    +0.010 C 
ATOM     22  C   LIG    1        2.836   0.523   5.842  0.00  0.00    +0.200 C 
ATOM     23  O   LIG    1        4.243   0.500   6.090  0.00  0.00    -0.380 OA
ATOM     24  C   LIG    1        5.043   0.412   4.909  0.00  0.00    +0.220 C 
ATOM     25  C   LIG    1        4.717  -0.888   4.169  0.00  0.00    +0.040 C 
BRANCH  20  26
ATOM     26  C   LIG    1        2.872  -2.248   3.170  0.00  0.00    +0.190 C 
BRANCH  26  28
ATOM     27  C   LIG    1        1.116  -3.381   1.994  0.00  0.00    +0.190 C 
ATOM     28  O   LIG    1        1.544  -2.183   2.646  0.00  0.00    -0.370 OA
ENDBRANCH  26  28
ENDBRANCH  20  26
ENDBRANCH   1  20
TORSDOF 4
