REMARK  Name = ZINCrH000004lcMV.0
REMARK                            x       y       z     vdW  Elec       q    Type
REMARK                         _______ _______ _______ _____ _____    ______ ____
ROOT
ATOM      1  C   LIG    1        2.880   0.220   2.917  0.00  0.00    +0.530 C 
ATOM      2  N   LIG    1        1.597   0.594   2.743  0.00  0.00    -0.600 N 
ATOM      3  C   LIG    1        0.501  -0.209   3.302  0.00  0.00    +0.300 C 
ATOM      4  C   LIG    1       -0.487  -0.544   2.180  0.00  0.00    +0.020 C 
ATOM      5  C   LIG    1       -0.939   0.750   1.500  0.00  0.00    +0.010 C 
ATOM      6  C   LIG    1        0.272   1.454   0.883  0.00  0.00    +0.040 C 
ATOM      7  C   LIG    1        1.268   1.812   1.990  0.00  0.00    +0.320 C 
ATOM      8  O   LIG    1        3.766   0.797   2.323  0.00  0.00    -0.500 OA
ENDROOT
BRANCH   7   9
ATOM      9  C   LIG    1        2.522   2.384   1.380  0.00  0.00    +0.320 A 
ATOM     10  N   LIG    1        3.205   1.827   0.423  0.00  0.00    -0.450 NA
ATOM     11  C   LIG    1        4.274   2.606   0.113  0.00  0.00    +0.080 A 
ATOM     12  C   LIG    1        5.312   2.490  -0.815  0.00  0.00    +0.080 A 
ATOM     13  C   LIG    1        6.273   3.473  -0.891  0.00  0.00    -0.040 A 
ATOM     14  C   LIG    1        6.220   4.578  -0.051  0.00  0.00    +0.040 A 
ATOM     15  C   LIG    1        5.202   4.706   0.870  0.00  0.00    +0.030 A 
ATOM     16 CL   LIG    1        7.562   3.331  -2.045  0.00  0.00    -0.070 Cl
ATOM     17  C   LIG    1        4.224   3.725   0.960  0.00  0.00    +0.050 A 
ATOM     18  N   LIG    1        3.101   3.558   1.747  0.00  0.00    -0.600 N 
ATOM     19  H   LIG    1        2.785   4.166   2.434  0.00  0.00    +0.420 HD
ENDBRANCH   7   9
BRANCH   1  20
ATOM     20  C   LIG    1        3.214  -0.917   3.848  0.00  0.00    -0.070 C 
ATOM     21  C   LIG    1        2.413  -0.768   5.146  0.00  0.00    +0.010 C 
ATOM     22  C   LIG    1        2.827   0.529   5.846  0.00  0.00    +0.200 C 
ATOM     23  O   LIG    1        4.234   0.505   6.096  0.00  0.00    -0.380 OA
ATOM     24  C   LIG    1        5.035   0.415   4.916  0.00  0.00    +0.220 C 
ATOM     25  C   LIG    1        4.709  -0.886   4.178  0.00  0.00    +0.040 C 
BRANCH  20  26
ATOM     26  C   LIG    1        2.864  -2.247   3.179  0.00  0.00    +0.190 C 
BRANCH  26  28
ATOM     27  C   LIG    1        1.110  -3.380   2.002  0.00  0.00    +0.190 C 
ATOM     28  O   LIG    1        1.538  -2.182   2.652  0.00  0.00    -0.370 OA
ENDBRANCH  26  28
ENDBRANCH  20  26
ENDBRANCH   1  20
TORSDOF 4
