REMARK  Name = ZINCpe000000XIhw.0
REMARK                            x       y       z     vdW  Elec       q    Type
REMARK                         _______ _______ _______ _____ _____    ______ ____
ROOT
ATOM      1  N   LIG    1        1.143   1.898   0.001  0.00  0.00    -0.650 N 
ATOM      2  H   LIG    1        1.130   2.868   0.007  0.00  0.00    +0.410 HD
ATOM      3  C   LIG    1       -0.014   1.209   0.009  0.00  0.00    +0.520 C 
ATOM      4  O   LIG    1        0.002  -0.004   0.002  0.00  0.00    -0.480 OA
ENDROOT
BRANCH   1   9
ATOM      5  C   LIG    1        4.536  -1.762  -0.051  0.00  0.00    +0.160 C 
ATOM      6  C   LIG    1        3.899  -0.396  -0.037  0.00  0.00    +0.080 A 
ATOM      7  N   LIG    1        4.537   0.747  -0.037  0.00  0.00    -0.290 NA
ATOM      8  N   LIG    1        3.591   1.780  -0.023  0.00  0.00    -0.380 N 
ATOM      9  C   LIG    1        2.361   1.218  -0.014  0.00  0.00    +0.310 A 
ATOM     10  C   LIG    1        2.526  -0.133  -0.017  0.00  0.00    -0.110 A 
BRANCH   8  11
ATOM     11  C   LIG    1        3.883   3.216  -0.017  0.00  0.00    +0.180 C 
ATOM     12  C   LIG    1        3.265   3.866  -1.257  0.00  0.00    +0.050 C 
ATOM     13  C   LIG    1        5.398   3.428  -0.031  0.00  0.00    +0.070 C 
ATOM     14  C   LIG    1        3.289   3.852   1.241  0.00  0.00    +0.040 C 
ENDBRANCH   8  11
ENDBRANCH   1   9
BRANCH   3  15
ATOM     15  C   LIG    1       -1.330   1.944   0.019  0.00  0.00    +0.220 C 
BRANCH  15  16
ATOM     16  N   LIG    1       -2.433   0.975   0.019  0.00  0.00    -0.520 NA
ATOM     17  C   LIG    1       -2.455   0.202   1.268  0.00  0.00    +0.180 C 
ATOM     18  C   LIG    1       -3.521  -0.892   1.174  0.00  0.00    +0.050 C 
ATOM     19  C   LIG    1       -4.887  -0.247   0.926  0.00  0.00    +0.010 C 
ATOM     20  C   LIG    1       -4.824   0.591  -0.354  0.00  0.00    +0.030 C 
ATOM     21  C   LIG    1       -3.720   1.642  -0.215  0.00  0.00    +0.190 C 
BRANCH  20  22
ATOM     22  C   LIG    1       -6.168   1.287  -0.576  0.00  0.00    -0.350 C 
BRANCH  22  23
ATOM     23  S   LIG    1       -7.451   0.042  -0.881  0.00  0.00    +2.610 S 
ATOM     24  O   LIG    1       -7.700  -0.715   0.295  0.00  0.00    -0.950 OA
ATOM     25  O   LIG    1       -7.238  -0.597  -2.132  0.00  0.00    -0.960 OA
BRANCH  23  26
ATOM     26  N   LIG    1       -8.836   0.922  -1.103  0.00  0.00    -1.250 NA
ATOM     27  H   LIG    1       -8.946   1.775  -0.654  0.00  0.00    +0.410 HD
ATOM     28  H   LIG    1       -9.538   0.584  -1.681  0.00  0.00    +0.420 HD
ENDBRANCH  23  26
ENDBRANCH  22  23
ENDBRANCH  20  22
ENDBRANCH  15  16
ENDBRANCH   3  15
TORSDOF 7
