REMARK  Name = ZINCqH0000038bPV.1
REMARK                            x       y       z     vdW  Elec       q    Type
REMARK                         _______ _______ _______ _____ _____    ______ ____
ROOT
ATOM      1  C   LIG    1        3.392   2.831  -0.017  0.00  0.00    +0.140 A 
ATOM      2  C   LIG    1        3.033   4.177  -0.053  0.00  0.00    +0.020 A 
ATOM      3  C   LIG    1        1.719   4.546  -0.053  0.00  0.00    +0.090 A 
ATOM      4  C   LIG    1        0.718   3.568  -0.017  0.00  0.00    +0.060 A 
ATOM      5  N   LIG    1       -0.636   3.624  -0.007  0.00  0.00    -0.470 NA
ATOM      6  C   LIG    1       -1.127   2.410   0.026  0.00  0.00    +0.320 A 
ATOM      7  N   LIG    1       -0.105   1.498   0.051  0.00  0.00    -0.590 N 
ATOM      8  H   LIG    1       -0.196   0.532   0.080  0.00  0.00    +0.430 HD
ATOM      9  C   LIG    1        1.078   2.208   0.021  0.00  0.00    +0.060 A 
ATOM     10  C   LIG    1        2.417   1.847   0.020  0.00  0.00    +0.050 A 
ENDROOT
BRANCH   6  11
ATOM     11  C   LIG    1       -2.568   2.075   0.039  0.00  0.00    +0.020 A 
ATOM     12  C   LIG    1       -2.996   0.744   0.073  0.00  0.00    -0.030 A 
ATOM     13  C   LIG    1       -4.350   0.477   0.089  0.00  0.00    +0.270 A 
ATOM     14  N   LIG    1       -5.234   1.455   0.062  0.00  0.00    -0.470 NA
ATOM     15  C   LIG    1       -4.873   2.724   0.024  0.00  0.00    +0.280 A 
ATOM     16  C   LIG    1       -3.540   3.081   0.011  0.00  0.00    +0.030 A 
ENDBRANCH   6  11
BRANCH   1  17
ATOM     17  N   LIG    1        4.743   2.472  -0.017  0.00  0.00    -1.060 N 
ATOM     18  H   LIG    1        5.275   2.584   0.786  0.00  0.00    +0.430 HD
BRANCH  17  19
ATOM     19  S   LIG    1        5.434   1.853  -1.389  0.00  0.00    +2.690 S 
ATOM     20  O   LIG    1        4.575   0.814  -1.838  0.00  0.00    -0.950 OA
ATOM     21  O   LIG    1        6.809   1.650  -1.089  0.00  0.00    -0.950 OA
BRANCH  19  26
ATOM     22  C   LIG    1        5.229   6.173  -5.597  0.00  0.00    +0.090 C 
ATOM     23  C   LIG    1        5.280   5.093  -4.546  0.00  0.00    -0.020 A 
ATOM     24  C   LIG    1        6.403   4.955  -3.752  0.00  0.00    -0.010 A 
ATOM     25  C   LIG    1        6.450   3.966  -2.788  0.00  0.00    +0.130 A 
ATOM     26  C   LIG    1        5.374   3.115  -2.618  0.00  0.00    -0.680 A 
ATOM     27  C   LIG    1        4.253   3.250  -3.415  0.00  0.00    +0.130 A 
ATOM     28  C   LIG    1        4.205   4.242  -4.376  0.00  0.00    -0.010 A 
ENDBRANCH  19  26
ENDBRANCH  17  19
ENDBRANCH   1  17
TORSDOF 4
