REMARK  Name = ZINCqH0000038bPV.0
REMARK                            x       y       z     vdW  Elec       q    Type
REMARK                         _______ _______ _______ _____ _____    ______ ____
ROOT
ATOM      1  C   LIG    1        1.188   1.785   0.000  0.00  0.00    +0.140 A 
ATOM      2  C   LIG    1       -0.013   1.076   0.008  0.00  0.00    +0.040 A 
ATOM      3  C   LIG    1       -1.218   1.744   0.017  0.00  0.00    +0.050 A 
ATOM      4  C   LIG    1       -1.240   3.132   0.030  0.00  0.00    +0.050 A 
ATOM      5  N   LIG    1       -2.253   4.072   0.044  0.00  0.00    -0.590 N 
ATOM      6  H   LIG    1       -3.206   3.892   0.052  0.00  0.00    +0.430 HD
ATOM      7  C   LIG    1       -1.660   5.306   0.044  0.00  0.00    +0.320 A 
ATOM      8  N   LIG    1       -0.357   5.171   0.031  0.00  0.00    -0.470 NA
ATOM      9  C   LIG    1       -0.034   3.856   0.022  0.00  0.00    +0.070 A 
ATOM     10  C   LIG    1        1.183   3.167   0.007  0.00  0.00    +0.070 A 
ENDROOT
BRANCH   7  11
ATOM     11  C   LIG    1       -2.382   6.597   0.058  0.00  0.00    +0.020 A 
ATOM     12  C   LIG    1       -3.781   6.639   0.066  0.00  0.00    -0.030 A 
ATOM     13  C   LIG    1       -4.414   7.865   0.083  0.00  0.00    +0.270 A 
ATOM     14  N   LIG    1       -3.718   8.986   0.081  0.00  0.00    -0.470 NA
ATOM     15  C   LIG    1       -2.400   8.992   0.069  0.00  0.00    +0.280 A 
ATOM     16  C   LIG    1       -1.686   7.810   0.057  0.00  0.00    +0.030 A 
ENDBRANCH   7  11
BRANCH   1  17
ATOM     17  N   LIG    1        2.404   1.093  -0.015  0.00  0.00    -1.050 N 
ATOM     18  H   LIG    1        3.124   1.367   0.574  0.00  0.00    +0.430 HD
BRANCH  17  19
ATOM     19  S   LIG    1        2.613  -0.192  -1.037  0.00  0.00    +2.690 S 
ATOM     20  O   LIG    1        1.473  -1.025  -0.873  0.00  0.00    -0.950 OA
ATOM     21  O   LIG    1        3.944  -0.649  -0.840  0.00  0.00    -0.950 OA
BRANCH  19  26
ATOM     22  C   LIG    1        2.362   1.948  -6.673  0.00  0.00    +0.090 C 
ATOM     23  C   LIG    1        2.425   1.413  -5.265  0.00  0.00    -0.020 A 
ATOM     24  C   LIG    1        3.637   1.349  -4.604  0.00  0.00    -0.010 A 
ATOM     25  C   LIG    1        3.694   0.858  -3.313  0.00  0.00    +0.130 A 
ATOM     26  C   LIG    1        2.539   0.433  -2.683  0.00  0.00    -0.680 A 
ATOM     27  C   LIG    1        1.328   0.493  -3.346  0.00  0.00    +0.130 A 
ATOM     28  C   LIG    1        1.270   0.988  -4.636  0.00  0.00    -0.010 A 
ENDBRANCH  19  26
ENDBRANCH  17  19
ENDBRANCH   1  17
TORSDOF 4
