REMARK  Name = ZINCrg00000fRBoX.0
REMARK                            x       y       z     vdW  Elec       q    Type
REMARK                         _______ _______ _______ _____ _____    ______ ____
ROOT
ATOM      1  C   LIG    1       -0.013   1.088   0.007  0.00  0.00    +0.310 C 
ATOM      2  N   LIG    1       -0.699   1.559   1.213  0.00  0.00    -0.620 N 
ATOM      3  C   LIG    1       -2.020   1.795   1.291  0.00  0.00    +0.520 C 
ATOM      4  C   LIG    1       -2.385   2.256   2.685  0.00  0.00    +0.060 C 
ATOM      5  C   LIG    1       -1.158   1.874   3.546  0.00  0.00    +0.280 C 
ATOM      6  O   LIG    1       -2.805   1.657   0.377  0.00  0.00    -0.510 OA
ATOM      7  C   LIG    1       -0.031   1.839   2.490  0.00  0.00    +0.270 C 
ENDROOT
BRANCH   5   8
ATOM      8  N   LIG    1       -0.893   2.894   4.562  0.00  0.00    -0.730 N 
ATOM      9  H   LIG    1       -0.333   3.657   4.349  0.00  0.00    +0.400 HD
ATOM     10  C   LIG    1       -1.428   2.774   5.794  0.00  0.00    +0.720 C 
ATOM     11  N   LIG    1       -1.102   3.656   6.759  0.00  0.00    -0.640 N 
ATOM     12  C   LIG    1       -1.593   3.487   8.135  0.00  0.00    +0.340 C 
ATOM     13  C   LIG    1       -0.392   3.263   9.070  0.00  0.00    +0.300 C 
ATOM     14  N   LIG    1        0.650   4.239   8.756  0.00  0.00    -0.470 N 
ATOM     15  C   LIG    1        1.697   4.625   9.512  0.00  0.00    +0.380 A 
ATOM     16  N   LIG    1        2.368   5.508   8.819  0.00  0.00    -0.300 NA
ATOM     17  N   LIG    1        1.796   5.693   7.679  0.00  0.00    -0.280 NA
ATOM     18  C   LIG    1        0.741   4.943   7.599  0.00  0.00    +0.150 A 
ATOM     19  C   LIG    1       -0.248   4.822   6.464  0.00  0.00    +0.420 C 
ATOM     20  O   LIG    1       -2.204   1.869   6.034  0.00  0.00    -0.570 OA
ENDBRANCH   5   8
BRANCH   7  21
ATOM     21  C   LIG    1        0.954   0.746   2.814  0.00  0.00    -0.090 A 
ATOM     22  C   LIG    1        2.168   1.060   3.395  0.00  0.00    +0.060 A 
ATOM     23  C   LIG    1        3.073   0.059   3.694  0.00  0.00    +0.030 A 
ATOM     24  C   LIG    1        2.764  -1.260   3.411  0.00  0.00    +0.080 A 
ATOM     25  C   LIG    1        1.546  -1.576   2.829  0.00  0.00    +0.070 A 
ATOM     26  F   LIG    1        1.242  -2.863   2.552  0.00  0.00    -0.120 F 
ATOM     27  F   LIG    1        3.648  -2.239   3.703  0.00  0.00    -0.120 F 
ATOM     28  C   LIG    1        0.640  -0.572   2.536  0.00  0.00    +0.040 A 
ENDBRANCH   7  21
TORSDOF 2
