REMARK  Name = ZINCpk00000y6w6y.0
REMARK                            x       y       z     vdW  Elec       q    Type
REMARK                         _______ _______ _______ _____ _____    ______ ____
ROOT
ATOM      1  C   LIG    1       -0.448   2.217  -6.472  0.00  0.00    +0.020 A 
ATOM      2  N   LIG    1       -0.043   2.168  -5.225  0.00  0.00    -0.170 NA
ATOM      3  N   LIG    1       -0.464   2.991  -4.333  0.00  0.00    -0.470 N 
ATOM      4  H   LIG    1       -0.135   2.915  -3.423  0.00  0.00    +0.440 HD
ATOM      5  C   LIG    1       -1.371   3.976  -4.640  0.00  0.00    +0.350 A 
ATOM      6  C   LIG    1       -1.855   4.081  -5.973  0.00  0.00    +0.070 A 
ATOM      7  N   LIG    1       -1.790   4.809  -3.713  0.00  0.00    -0.560 NA
ATOM      8  C   LIG    1       -1.384   3.198  -6.891  0.00  0.00    +0.100 A 
ENDROOT
BRANCH   1  11
ATOM      9  C   LIG    1        1.485  -0.661  -8.027  0.00  0.00    +0.290 C 
ATOM     10  N   LIG    1        0.965   0.307  -7.058  0.00  0.00    -0.610 N 
ATOM     11  C   LIG    1        0.076   1.241  -7.449  0.00  0.00    +0.580 C 
ATOM     12  O   LIG    1       -0.295   1.280  -8.606  0.00  0.00    -0.530 OA
ATOM     13  C   LIG    1        1.412   0.259  -5.664  0.00  0.00    +0.300 C 
ENDBRANCH   1  11
BRANCH   7  14
ATOM     14  C   LIG    1       -1.186   4.782  -2.378  0.00  0.00    +0.180 C 
BRANCH  14  15
ATOM     15  C   LIG    1       -2.230   4.329  -1.355  0.00  0.00    -0.010 C 
ATOM     16  C   LIG    1       -3.347   5.374  -1.266  0.00  0.00    +0.030 C 
ATOM     17  C   LIG    1       -4.344   4.949  -0.185  0.00  0.00    -0.010 C 
ATOM     18  C   LIG    1       -3.603   4.776   1.143  0.00  0.00    +0.210 C 
ATOM     19  O   LIG    1       -2.558   3.814   0.983  0.00  0.00    -0.360 OA
ATOM     20  C   LIG    1       -1.570   4.181   0.018  0.00  0.00    +0.260 C 
BRANCH  20  21
ATOM     21  C   LIG    1       -0.510   3.111  -0.047  0.00  0.00    +0.200 A 
ATOM     22  N   LIG    1       -0.729   1.825  -0.092  0.00  0.00    -0.460 NA
ATOM     23  C   LIG    1        0.446   1.179  -0.140  0.00  0.00    +0.140 A 
ATOM     24  C   LIG    1        1.429   2.099  -0.132  0.00  0.00    +0.130 A 
ATOM     25  N   LIG    1        0.823   3.325  -0.073  0.00  0.00    -0.460 N 
ATOM     26  C   LIG    1        1.495   4.627  -0.043  0.00  0.00    +0.320 C 
ENDBRANCH  20  21
ENDBRANCH  14  15
ENDBRANCH   7  14
TORSDOF 4
