REMARK  Name = ZINCrD000000AgQN.0
REMARK                            x       y       z     vdW  Elec       q    Type
REMARK                         _______ _______ _______ _____ _____    ______ ____
ROOT
ATOM      1  C   LIG    1       -2.449  -5.939   3.206  0.00  0.00    +0.110 C 
ENDROOT
BRANCH   1   2
ATOM      2  C   LIG    1       -3.186  -7.269   3.379  0.00  0.00    +0.100 C 
BRANCH   2   4
ATOM      3  O   LIG    1       -2.898  -6.801   5.674  0.00  0.00    -0.540 OA
ATOM      4  C   LIG    1       -3.336  -7.572   4.848  0.00  0.00    +0.520 C 
ATOM      5  N   LIG    1       -3.958  -8.701   5.242  0.00  0.00    -0.720 N 
ATOM      6  H   LIG    1       -4.309  -9.318   4.581  0.00  0.00    +0.400 HD
BRANCH   5   7
ATOM      7  C   LIG    1       -4.105  -8.996   6.670  0.00  0.00    +0.320 C 
BRANCH   7   8
ATOM      8  C   LIG    1       -4.830 -10.306   6.840  0.00  0.00    -0.100 A 
ATOM      9  C   LIG    1       -4.132 -11.438   7.214  0.00  0.00    +0.050 A 
ATOM     10  C   LIG    1       -4.798 -12.640   7.370  0.00  0.00    +0.010 A 
ATOM     11  C   LIG    1       -6.161 -12.710   7.153  0.00  0.00    +0.040 A 
ATOM     12  C   LIG    1       -6.860 -11.577   6.778  0.00  0.00    +0.030 A 
ATOM     13  C   LIG    1       -6.196 -10.373   6.628  0.00  0.00    -0.020 A 
ATOM     14 CL   LIG    1       -7.074  -8.948   6.166  0.00  0.00    -0.060 Cl
ENDBRANCH   7   8
ENDBRANCH   5   7
ENDBRANCH   2   4
ENDBRANCH   1   2
BRANCH   1  15
ATOM     15  S   LIG    1       -2.268  -5.574   1.438  0.00  0.00    -0.230 S 
BRANCH  15  16
ATOM     16  C   LIG    1       -1.387  -3.988   1.438  0.00  0.00    +0.070 C 
BRANCH  16  17
ATOM     17  C   LIG    1       -1.153  -3.535  -0.005  0.00  0.00    +0.350 C 
BRANCH  17  18
ATOM     18  N   LIG    1       -0.442  -2.255  -0.006  0.00  0.00    -0.580 N 
ATOM     19  C   LIG    1       -1.042  -1.051   0.006  0.00  0.00    +0.570 C 
ATOM     20  C   LIG    1        0.002  -0.004   0.002  0.00  0.00    -0.140 A 
ATOM     21  C   LIG    1       -0.017   1.381   0.010  0.00  0.00    +0.100 A 
ATOM     22  C   LIG    1        1.178   2.085   0.002  0.00  0.00    +0.050 A 
ATOM     23  C   LIG    1        2.386   1.414  -0.012  0.00  0.00    +0.050 A 
ATOM     24  C   LIG    1        2.420   0.028  -0.020  0.00  0.00    +0.100 A 
ATOM     25  C   LIG    1        1.234  -0.689  -0.013  0.00  0.00    -0.140 A 
ATOM     26  O   LIG    1       -2.240  -0.856   0.020  0.00  0.00    -0.460 OA
ATOM     27  C   LIG    1        0.898  -2.128  -0.018  0.00  0.00    +0.570 C 
ATOM     28  O   LIG    1        1.696  -3.043  -0.031  0.00  0.00    -0.460 OA
ENDBRANCH  17  18
ENDBRANCH  16  17
ENDBRANCH  15  16
ENDBRANCH   1  15
TORSDOF 8
