REMARK  Name = ZINCkj00000dDK4d.0
REMARK                            x       y       z     vdW  Elec       q    Type
REMARK                         _______ _______ _______ _____ _____    ______ ____
ROOT
ATOM      1  N   LIG    1        4.551   0.224   0.811  0.00  0.00    -0.700 N 
ATOM      2  H   LIG    1        4.294  -0.352   1.548  0.00  0.00    +0.420 HD
ATOM      3  C   LIG    1        3.619   0.956   0.170  0.00  0.00    +0.510 C 
ATOM      4  O   LIG    1        3.941   1.676  -0.752  0.00  0.00    -0.520 OA
ENDROOT
BRANCH   3   5
ATOM      5  C   LIG    1        2.176   0.880   0.598  0.00  0.00    +0.180 C 
ATOM      6  C   LIG    1        1.500  -0.388   0.018  0.00  0.00    +0.120 C 
ATOM      7  C   LIG    1        0.002  -0.004   0.002  0.00  0.00    +0.200 C 
ATOM      8  C   LIG    1       -0.019   1.536   0.011  0.00  0.00    +0.260 C 
ATOM      9  N   LIG    1        1.389   1.989  -0.001  0.00  0.00    -0.500 N 
ATOM     10  H   LIG    1        1.490   2.825   0.554  0.00  0.00    +0.440 HD
ATOM     11  H   LIG    1        1.692   2.159  -0.948  0.00  0.00    +0.440 HD
BRANCH   7  12
ATOM     12  O   LIG    1       -0.627  -0.502  -1.180  0.00  0.00    -0.540 OA
ATOM     13  H   LIG    1       -1.558  -0.255  -1.264  0.00  0.00    +0.400 HD
ENDBRANCH   7  12
ENDBRANCH   3   5
BRANCH   1  15
ATOM     14  C   LIG    1        6.628   1.488   1.081  0.00  0.00    +0.060 C 
ATOM     15  C   LIG    1        5.954   0.298   0.395  0.00  0.00    +0.360 C 
BRANCH  15  16
ATOM     16  C   LIG    1        6.662  -0.974   0.786  0.00  0.00    -0.010 A 
ATOM     17  C   LIG    1        7.567  -1.611   0.031  0.00  0.00    +0.000 A 
ATOM     18  C   LIG    1        7.986  -2.788   0.801  0.00  0.00    -0.140 A 
ATOM     19  C   LIG    1        8.883  -3.832   0.576  0.00  0.00    +0.060 A 
ATOM     20  C   LIG    1        9.045  -4.808   1.534  0.00  0.00    +0.010 A 
ATOM     21  C   LIG    1        8.321  -4.755   2.716  0.00  0.00    +0.060 A 
ATOM     22  C   LIG    1        7.431  -3.729   2.951  0.00  0.00    +0.020 A 
ATOM     23  C   LIG    1        7.252  -2.734   1.998  0.00  0.00    +0.060 A 
ATOM     24  O   LIG    1        6.480  -1.630   1.945  0.00  0.00    -0.200 OA
ENDBRANCH  15  16
ENDBRANCH   1  15
TORSDOF 4
