REMARK  Name = ZINCkj000005kayS.0
REMARK                            x       y       z     vdW  Elec       q    Type
REMARK                         _______ _______ _______ _____ _____    ______ ____
ROOT
ATOM      1  S   LIG    1       -2.604   3.923  -0.025  0.00  0.00    +2.690 S 
ATOM      2  O   LIG    1       -2.258   5.300   0.019  0.00  0.00    -0.940 OA
ATOM      3  O   LIG    1       -3.496   3.316   0.901  0.00  0.00    -0.940 OA
ENDROOT
BRANCH   1  10
ATOM      4  C   LIG    1       -0.513   4.375   2.108  0.00  0.00    +0.130 C 
ATOM      5  C   LIG    1       -0.194   3.305   1.096  0.00  0.00    +0.020 A 
ATOM      6  C   LIG    1        0.994   2.610   1.181  0.00  0.00    +0.060 A 
ATOM      7  C   LIG    1        1.286   1.615   0.246  0.00  0.00    +0.050 A 
ATOM      8  C   LIG    1        0.374   1.334  -0.773  0.00  0.00    +0.050 A 
ATOM      9  C   LIG    1       -0.809   2.041  -0.850  0.00  0.00    +0.110 A 
ATOM     10  C   LIG    1       -1.091   3.026   0.080  0.00  0.00    -0.660 A 
BRANCH   7  11
ATOM     11  C   LIG    1        2.515   0.885   0.332  0.00  0.00    +0.230 C 
ATOM     12  N   LIG    1        3.490   0.306   0.400  0.00  0.00    -0.380 NA
ENDBRANCH   7  11
ENDBRANCH   1  10
BRANCH   1  13
ATOM     13  N   LIG    1       -3.234   3.647  -1.531  0.00  0.00    -1.000 NA
ATOM     14  C   LIG    1       -4.189   2.552  -1.754  0.00  0.00    +0.320 C 
ATOM     15  C   LIG    1       -5.444   3.121  -2.423  0.00  0.00    +0.050 C 
ATOM     16  C   LIG    1       -5.043   3.874  -3.694  0.00  0.00    +0.170 C 
ATOM     17  C   LIG    1       -4.120   5.039  -3.329  0.00  0.00    +0.060 C 
ATOM     18  C   LIG    1       -2.854   4.495  -2.669  0.00  0.00    +0.280 C 
ATOM     19  C   LIG    1       -2.066   3.667  -3.685  0.00  0.00    +0.040 C 
BRANCH  16  20
ATOM     20  N   LIG    1       -6.247   4.393  -4.356  0.00  0.00    -0.640 N 
ATOM     21  H   LIG    1       -6.856   3.625  -4.597  0.00  0.00    +0.440 HD
ATOM     22  H   LIG    1       -5.983   4.889  -5.193  0.00  0.00    +0.440 HD
ATOM     23  H   LIG    1       -6.731   5.021  -3.731  0.00  0.00    +0.430 HD
ENDBRANCH  16  20
ENDBRANCH   1  13
TORSDOF 4
