REMARK  Name = ZINCnE000001Cn1G.0
REMARK                            x       y       z     vdW  Elec       q    Type
REMARK                         _______ _______ _______ _____ _____    ______ ____
ROOT
ATOM      1  N   LIG    1       -1.151   1.723   0.848  0.00  0.00    -0.670 NA
ATOM      2  C   LIG    1       -1.536   0.879   1.768  0.00  0.00    +0.440 A 
ATOM      3  N   LIG    1       -1.379  -0.482   1.744  0.00  0.00    -0.540 NA
ATOM      4  N   LIG    1       -1.938  -0.968   2.936  0.00  0.00    -0.270 NA
ATOM      5  C   LIG    1       -2.396   0.038   3.603  0.00  0.00    +0.070 A 
ATOM      6  O   LIG    1       -2.168   1.179   2.921  0.00  0.00    -0.290 OA
ENDROOT
BRANCH   5   7
ATOM      7  C   LIG    1       -3.082  -0.050   4.941  0.00  0.00    +0.280 C 
ATOM      8  C   LIG    1       -2.826  -1.428   5.556  0.00  0.00    +0.060 C 
BRANCH   7   9
ATOM      9  O   LIG    1       -4.488   0.141   4.769  0.00  0.00    -0.300 OA
BRANCH   9  10
ATOM     10  C   LIG    1       -5.183   0.608   5.840  0.00  0.00    +0.150 A 
ATOM     11  C   LIG    1       -4.549   0.769   7.063  0.00  0.00    -0.090 A 
ATOM     12  C   LIG    1       -5.256   1.249   8.148  0.00  0.00    +0.040 A 
ATOM     13  C   LIG    1       -6.597   1.559   8.018  0.00  0.00    -0.040 A 
ATOM     14  C   LIG    1       -7.233   1.393   6.801  0.00  0.00    -0.050 A 
ATOM     15  C   LIG    1       -8.695   1.732   6.664  0.00  0.00    +0.080 C 
ATOM     16  C   LIG    1       -6.529   0.919   5.712  0.00  0.00    -0.120 A 
ATOM     17  C   LIG    1       -7.222   0.740   4.386  0.00  0.00    +0.100 C 
ENDBRANCH   9  10
ENDBRANCH   7   9
ENDBRANCH   5   7
BRANCH   1  18
ATOM     18  C   LIG    1       -0.472   1.237  -0.355  0.00  0.00    +0.210 C 
BRANCH  18  19
ATOM     19  C   LIG    1       -1.346   1.511  -1.581  0.00  0.00    +0.140 C 
BRANCH  19  20
ATOM     20  O   LIG    1       -1.478   2.922  -1.765  0.00  0.00    -0.360 OA
BRANCH  20  21
ATOM     21  C   LIG    1       -2.280   3.289  -2.889  0.00  0.00    +0.180 C 
BRANCH  21  23
ATOM     22  C   LIG    1       -2.192   5.380  -4.147  0.00  0.00    -0.010 C 
ATOM     23  C   LIG    1       -2.350   4.791  -2.988  0.00  0.00    -0.010 C 
ENDBRANCH  21  23
ENDBRANCH  20  21
ENDBRANCH  19  20
ENDBRANCH  18  19
ENDBRANCH   1  18
TORSDOF 8
