REMARK  Name = ZINCqH00000098ob.0
REMARK                            x       y       z     vdW  Elec       q    Type
REMARK                         _______ _______ _______ _____ _____    ______ ____
ROOT
ATOM      1  C   LIG    1        4.289   9.572   3.292  0.00  0.00    +0.040 C 
ATOM      2  C   LIG    1        2.815   9.562   3.703  0.00  0.00    +0.280 C 
ENDROOT
BRANCH   2   3
ATOM      3  C   LIG    1        2.393  10.954   4.095  0.00  0.00    -0.080 A 
ATOM      4  C   LIG    1        2.085  11.882   3.116  0.00  0.00    +0.020 A 
ATOM      5  C   LIG    1        1.693  13.157   3.470  0.00  0.00    +0.030 A 
ATOM      6  C   LIG    1        1.618  13.513   4.815  0.00  0.00    -0.040 A 
ATOM      7  C   LIG    1        1.935  12.576   5.796  0.00  0.00    +0.030 A 
ATOM      8  C   LIG    1        2.320  11.302   5.432  0.00  0.00    +0.030 A 
BRANCH   6   9
ATOM      9  C   LIG    1        1.204  14.884   5.201  0.00  0.00    -0.150 A 
ATOM     10  C   LIG    1        1.118  15.257   6.544  0.00  0.00    +0.330 A 
ATOM     11  N   LIG    1        0.749  16.490   6.844  0.00  0.00    -0.510 NA
ATOM     12  C   LIG    1        0.454  17.359   5.897  0.00  0.00    +0.490 A 
ATOM     13  N   LIG    1        0.517  17.047   4.618  0.00  0.00    -0.510 NA
ATOM     14  C   LIG    1        0.882  15.837   4.231  0.00  0.00    +0.330 A 
ENDBRANCH   6   9
ENDBRANCH   2   3
BRANCH   2  15
ATOM     15  N   LIG    1        1.998   9.102   2.577  0.00  0.00    -0.730 N 
ATOM     16  H   LIG    1        1.587   9.748   1.980  0.00  0.00    +0.400 HD
ATOM     17  C   LIG    1        1.816   7.783   2.370  0.00  0.00    +0.510 C 
ATOM     18  O   LIG    1        2.329   6.976   3.116  0.00  0.00    -0.530 OA
BRANCH  17  19
ATOM     19  C   LIG    1        0.975   7.311   1.212  0.00  0.00    +0.050 C 
BRANCH  19  20
ATOM     20  C   LIG    1        0.930   5.781   1.205  0.00  0.00    +0.050 C 
BRANCH  20  21
ATOM     21  C   LIG    1        0.077   5.302   0.029  0.00  0.00    +0.090 C 
BRANCH  21  22
ATOM     22  C   LIG    1        0.033   3.795   0.022  0.00  0.00    +0.130 A 
ATOM     23  C   LIG    1       -1.188   3.148   0.030  0.00  0.00    -0.040 A 
ATOM     24  C   LIG    1       -1.217   1.761   0.017  0.00  0.00    +0.060 A 
ATOM     25  C   LIG    1       -0.013   1.076   0.008  0.00  0.00    -0.050 A 
ATOM     26  C   LIG    1        1.170   1.792   0.001  0.00  0.00    +0.260 A 
ATOM     27  N   LIG    1        1.160   3.110   0.007  0.00  0.00    -0.480 NA
ENDBRANCH  21  22
ENDBRANCH  20  21
ENDBRANCH  19  20
ENDBRANCH  17  19
ENDBRANCH   2  15
TORSDOF 7
