REMARK  Name = ZINCvU0000000A0c.0
REMARK                            x       y       z     vdW  Elec       q    Type
REMARK                         _______ _______ _______ _____ _____    ______ ____
ROOT
ATOM      1  C   LIG    1       -0.573   5.544  -0.497  0.00  0.00    +0.350 C 
ATOM      2  C   LIG    1       -0.139   4.141  -0.225  0.00  0.00    -0.240 A 
ATOM      3  C   LIG    1       -1.257   3.357  -0.201  0.00  0.00    +0.090 A 
ATOM      4  C   LIG    1       -2.428   4.213  -0.457  0.00  0.00    +0.570 C 
ATOM      5  O   LIG    1       -3.578   3.823  -0.504  0.00  0.00    -0.480 OA
ATOM      6  O   LIG    1       -1.209   2.030   0.031  0.00  0.00    -0.180 OA
ATOM      7  C   LIG    1       -0.017   1.390   0.010  0.00  0.00    +0.150 A 
ATOM      8  C   LIG    1        0.002  -0.004   0.002  0.00  0.00    +0.030 A 
ATOM      9  C   LIG    1        1.201  -0.681  -0.008  0.00  0.00    -0.010 A 
ATOM     10  C   LIG    1        2.407   0.008  -0.009  0.00  0.00    -0.070 A 
ATOM     11  C   LIG    1        2.414   1.387  -0.004  0.00  0.00    +0.140 A 
ATOM     12 CL   LIG    1        3.906  -0.867  -0.018  0.00  0.00    -0.040 Cl
ATOM     13  C   LIG    1        1.205  -2.188  -0.017  0.00  0.00    +0.120 C 
ATOM     14  C   LIG    1        1.206   2.082   0.002  0.00  0.00    -0.210 A 
ATOM     15  C   LIG    1        1.193   3.567  -0.006  0.00  0.00    +0.460 A 
ATOM     16  O   LIG    1        2.193   4.244   0.153  0.00  0.00    -0.420 OA
ATOM     17  N   LIG    1       -2.038   5.492  -0.631  0.00  0.00    -0.590 N 
ENDROOT
BRANCH   1  22
ATOM     18  C   LIG    1        0.904   8.980   3.908  0.00  0.00    +0.090 C 
ATOM     19  C   LIG    1        0.519   8.084   2.759  0.00  0.00    -0.060 A 
ATOM     20  C   LIG    1        1.278   8.077   1.603  0.00  0.00    +0.010 A 
ATOM     21  C   LIG    1        0.924   7.255   0.550  0.00  0.00    +0.050 A 
ATOM     22  C   LIG    1       -0.187   6.440   0.652  0.00  0.00    -0.110 A 
ATOM     23  C   LIG    1       -0.948   6.450   1.806  0.00  0.00    +0.020 A 
ATOM     24  C   LIG    1       -0.592   7.268   2.861  0.00  0.00    +0.010 A 
ENDBRANCH   1  22
BRANCH  17  25
ATOM     25  C   LIG    1       -2.918   6.631  -0.905  0.00  0.00    +0.400 C 
BRANCH  25  26
ATOM     26  C   LIG    1       -3.355   7.252   0.397  0.00  0.00    -0.180 A 
ATOM     27  C   LIG    1       -4.511   6.818   1.028  0.00  0.00    +0.090 A 
ATOM     28  C   LIG    1       -4.872   7.415   2.227  0.00  0.00    -0.040 A 
ATOM     29  C   LIG    1       -4.079   8.422   2.743  0.00  0.00    +0.270 A 
ATOM     30  N   LIG    1       -2.989   8.813   2.112  0.00  0.00    -0.480 NA
ATOM     31  C   LIG    1       -2.612   8.265   0.973  0.00  0.00    +0.290 A 
ENDBRANCH  25  26
ENDBRANCH  17  25
TORSDOF 3
