REMARK  Name = ZINCrH000004pR11.0
REMARK                            x       y       z     vdW  Elec       q    Type
REMARK                         _______ _______ _______ _____ _____    ______ ____
ROOT
ATOM      1  C   LIG    1        1.182  -3.069   5.717  0.00  0.00    +0.020 C 
ATOM      2  C   LIG    1        0.141  -3.230   4.607  0.00  0.00    -0.010 C 
ATOM      3  C   LIG    1       -0.733  -4.451   4.899  0.00  0.00    +0.020 C 
ATOM      4  C   LIG    1       -1.766  -4.619   3.784  0.00  0.00    -0.010 C 
ATOM      5  C   LIG    1       -2.652  -3.372   3.719  0.00  0.00    +0.050 C 
ATOM      6  C   LIG    1       -1.789  -2.144   3.454  0.00  0.00    +0.130 C 
ATOM      7  N   LIG    1       -2.623  -0.940   3.356  0.00  0.00    -0.720 N 
ATOM      8  H   LIG    1       -3.192  -0.569   4.050  0.00  0.00    +0.440 HD
ATOM      9  C   LIG    1       -2.443  -0.451   2.114  0.00  0.00    +0.700 C 
ATOM     10  N   LIG    1       -1.593  -1.192   1.393  0.00  0.00    -0.580 N 
ATOM     11  O   LIG    1       -2.991   0.550   1.696  0.00  0.00    -0.530 OA
ATOM     12  C   LIG    1       -1.134  -2.248   2.096  0.00  0.00    +0.530 C 
ATOM     13  O   LIG    1       -0.358  -3.099   1.718  0.00  0.00    -0.440 OA
ATOM     14  C   LIG    1       -2.633  -5.847   4.071  0.00  0.00    +0.030 C 
ATOM     15  C   LIG    1       -0.737  -1.978   4.545  0.00  0.00    +0.050 C 
ENDROOT
BRANCH  10  16
ATOM     16  C   LIG    1       -1.213  -0.895   0.009  0.00  0.00    +0.490 C 
BRANCH  16  17
ATOM     17  C   LIG    1        0.002  -0.004   0.002  0.00  0.00    +0.160 A 
ATOM     18  N   LIG    1        1.240  -0.412  -0.012  0.00  0.00    -0.450 NA
ATOM     19  C   LIG    1        2.050   0.657  -0.014  0.00  0.00    +0.170 A 
ATOM     20  C   LIG    1        1.265   1.764  -0.001  0.00  0.00    +0.010 A 
ATOM     21  O   LIG    1       -0.016   1.336   0.009  0.00  0.00    -0.180 OA
BRANCH  20  22
ATOM     22  C   LIG    1        1.724   3.170   0.003  0.00  0.00    -0.030 A 
ATOM     23  C   LIG    1        3.090   3.461  -0.004  0.00  0.00    +0.080 A 
ATOM     24  C   LIG    1        3.512   4.773  -0.006  0.00  0.00    +0.000 A 
ATOM     25  C   LIG    1        2.585   5.803   0.009  0.00  0.00    +0.110 A 
ATOM     26  C   LIG    1        1.228   5.520   0.020  0.00  0.00    -0.010 A 
ATOM     27  F   LIG    1        3.004   7.087   0.012  0.00  0.00    -0.130 F 
ATOM     28  C   LIG    1        0.794   4.210   0.018  0.00  0.00    +0.070 A 
ENDBRANCH  20  22
ENDBRANCH  16  17
ENDBRANCH  10  16
TORSDOF 3
