REMARK  Name = ZINCpe00000bGZJ6.0
REMARK                            x       y       z     vdW  Elec       q    Type
REMARK                         _______ _______ _______ _____ _____    ______ ____
ROOT
ATOM      1  C   LIG    1       -4.261   1.368   0.139  0.00  0.00    +0.600 C 
ATOM      2  N   LIG    1       -3.115   1.878   0.633  0.00  0.00    -0.720 N 
ATOM      3  H   LIG    1       -2.916   2.821   0.521  0.00  0.00    +0.400 HD
ATOM      4  O   LIG    1       -4.510   0.186   0.280  0.00  0.00    -0.540 OA
ENDROOT
BRANCH   2   5
ATOM      5  C   LIG    1       -2.170   1.008   1.338  0.00  0.00    +0.250 C 
ATOM      6  C   LIG    1       -2.432   1.020   2.867  0.00  0.00    +0.270 C 
ATOM      7  N   LIG    1       -1.138   0.664   3.477  0.00  0.00    -0.600 N 
ATOM      8  C   LIG    1       -0.062   1.005   2.535  0.00  0.00    +0.270 C 
ATOM      9  C   LIG    1       -0.969   0.115   4.696  0.00  0.00    +0.610 C 
ATOM     10  O   LIG    1        0.150  -0.140   5.099  0.00  0.00    -0.530 OA
ATOM     11  C   LIG    1       -0.729   1.579   1.267  0.00  0.00    -0.020 C 
ATOM     12  C   LIG    1       -0.013   1.086   0.008  0.00  0.00    +0.040 C 
BRANCH   9  13
ATOM     13  C   LIG    1       -2.139  -0.178   5.541  0.00  0.00    +0.000 A 
ATOM     14  C   LIG    1       -2.044  -0.727   6.772  0.00  0.00    -0.030 A 
ATOM     15  S   LIG    1       -3.615  -0.904   7.421  0.00  0.00    +0.220 S 
ATOM     16  C   LIG    1       -4.309  -0.235   6.012  0.00  0.00    +0.210 A 
ATOM     17  N   LIG    1       -3.394   0.081   5.164  0.00  0.00    -0.440 NA
ENDBRANCH   9  13
ENDBRANCH   2   5
BRANCH   1  20
ATOM     18  N   LIG    1       -6.969   2.958  -1.674  0.00  0.00    -0.360 N 
ATOM     19  C   LIG    1       -6.414   1.862  -1.131  0.00  0.00    +0.330 A 
ATOM     20  C   LIG    1       -5.211   2.243  -0.570  0.00  0.00    -0.300 A 
ATOM     21  C   LIG    1       -5.059   3.627  -0.810  0.00  0.00    +0.270 A 
ATOM     22  N   LIG    1       -6.108   4.041  -1.465  0.00  0.00    -0.290 NA
BRANCH  18  23
ATOM     23  C   LIG    1       -8.255   3.008  -2.373  0.00  0.00    +0.340 C 
BRANCH  23  24
ATOM     24  C   LIG    1       -9.145   4.073  -1.728  0.00  0.00    +0.180 C 
BRANCH  24  26
ATOM     25  C   LIG    1      -11.310   5.090  -1.883  0.00  0.00    +0.210 C 
ATOM     26  O   LIG    1      -10.400   4.122  -2.410  0.00  0.00    -0.390 OA
ENDBRANCH  24  26
ENDBRANCH  23  24
ENDBRANCH  18  23
ENDBRANCH   1  20
TORSDOF 6
