REMARK  Name = ZINCtV00000L6kMA.0
REMARK                            x       y       z     vdW  Elec       q    Type
REMARK                         _______ _______ _______ _____ _____    ______ ____
ROOT
ATOM      1  C   LIG    1        1.086  -4.820   0.243  0.00  0.00    -0.050 A 
ATOM      2  C   LIG    1        2.309  -4.146   0.243  0.00  0.00    +0.100 A 
ATOM      3  C   LIG    1        2.336  -2.771   0.158  0.00  0.00    +0.000 A 
ATOM      4  C   LIG    1        1.147  -2.054   0.073  0.00  0.00    +0.170 A 
ATOM      5  C   LIG    1       -0.073  -2.723   0.078  0.00  0.00    +0.020 A 
ATOM      6  C   LIG    1       -0.106  -4.097   0.157  0.00  0.00    +0.060 A 
ENDROOT
BRANCH   1  13
ATOM      7  C   LIG    1        0.734 -12.508   0.709  0.00  0.00    +0.100 C 
ATOM      8  C   LIG    1        1.140 -11.058   0.633  0.00  0.00    -0.060 A 
ATOM      9  C   LIG    1        2.483 -10.712   0.658  0.00  0.00    +0.030 A 
ATOM     10  C   LIG    1        2.868  -9.408   0.590  0.00  0.00    +0.080 A 
ATOM     11  C   LIG    1        1.904  -8.380   0.493  0.00  0.00    +0.080 A 
ATOM     12  N   LIG    1        2.095  -7.051   0.417  0.00  0.00    -0.460 NA
ATOM     13  C   LIG    1        1.053  -6.294   0.334  0.00  0.00    +0.160 A 
ATOM     14  S   LIG    1       -0.411  -7.267   0.352  0.00  0.00    +0.070 S 
ATOM     15  C   LIG    1        0.551  -8.738   0.469  0.00  0.00    -0.170 A 
ATOM     16  C   LIG    1        0.177 -10.078   0.539  0.00  0.00    +0.050 A 
ENDBRANCH   1  13
BRANCH   4  17
ATOM     17  N   LIG    1        1.178  -0.662  -0.012  0.00  0.00    -0.670 N 
ATOM     18  H   LIG    1        1.874  -0.164   0.445  0.00  0.00    +0.410 HD
ATOM     19  C   LIG    1        0.242  -0.010  -0.729  0.00  0.00    +0.600 C 
ATOM     20  O   LIG    1       -0.573  -0.638  -1.380  0.00  0.00    -0.490 OA
BRANCH  19  21
ATOM     21  C   LIG    1        0.204   1.453  -0.725  0.00  0.00    -0.310 A 
ATOM     22  C   LIG    1       -0.693   2.291  -1.415  0.00  0.00    -0.030 A 
ATOM     23  C   LIG    1       -1.776   1.969  -2.261  0.00  0.00    +0.090 A 
ATOM     24  C   LIG    1       -2.520   2.959  -2.819  0.00  0.00    -0.020 A 
ATOM     25  C   LIG    1       -2.237   4.302  -2.567  0.00  0.00    +0.060 A 
ATOM     26  C   LIG    1       -1.217   4.676  -1.762  0.00  0.00    +0.090 A 
ATOM     27 CL   LIG    1       -3.844   2.547  -3.863  0.00  0.00    -0.050 Cl
ATOM     28  C   LIG    1       -0.393   3.691  -1.140  0.00  0.00    +0.110 A 
ATOM     29  N   LIG    1        0.636   3.889  -0.333  0.00  0.00    -0.530 NA
ATOM     30  S   LIG    1        1.280   2.555   0.140  0.00  0.00    +0.570 S 
ENDBRANCH  19  21
ENDBRANCH   4  17
TORSDOF 3
