REMARK  Name = ZINCpk00000xPh4t.0
REMARK                            x       y       z     vdW  Elec       q    Type
REMARK                         _______ _______ _______ _____ _____    ______ ____
ROOT
ATOM      1  C   LIG    1       -0.702   2.142   1.355  0.00  0.00    +0.500 C 
ATOM      2  N   LIG    1       -2.034   2.190   1.154  0.00  0.00    -0.660 N 
ATOM      3  H   LIG    1       -2.412   1.850   0.328  0.00  0.00    +0.410 HD
ATOM      4  O   LIG    1       -0.237   2.488   2.421  0.00  0.00    -0.500 OA
ENDROOT
BRANCH   1  11
ATOM      5  C   LIG    1        1.951  -1.599  -2.697  0.00  0.00    +0.100 C 
ATOM      6  C   LIG    1        0.961  -1.234  -1.620  0.00  0.00    +0.520 C 
ATOM      7  N   LIG    1        1.286  -0.316  -0.690  0.00  0.00    -0.610 N 
ATOM      8  C   LIG    1        2.638   0.260  -0.646  0.00  0.00    +0.280 C 
ATOM      9  C   LIG    1        2.524   1.787  -0.679  0.00  0.00    +0.040 C 
ATOM     10  C   LIG    1        1.606   2.251   0.455  0.00  0.00    +0.080 C 
ATOM     11  C   LIG    1        0.209   1.659   0.257  0.00  0.00    +0.110 C 
ATOM     12  C   LIG    1        0.296   0.130   0.300  0.00  0.00    +0.280 C 
ATOM     13  O   LIG    1       -0.128  -1.768  -1.591  0.00  0.00    -0.550 OA
BRANCH  11  14
ATOM     14  O   LIG    1       -0.309   2.071  -1.009  0.00  0.00    -0.530 OA
ATOM     15  H   LIG    1       -1.193   1.730  -1.203  0.00  0.00    +0.380 HD
ENDBRANCH  11  14
ENDBRANCH   1  11
BRANCH   2  16
ATOM     16  C   LIG    1       -2.871   2.729   2.137  0.00  0.00    +0.030 A 
ATOM     17  C   LIG    1       -4.011   3.450   1.786  0.00  0.00    +0.310 A 
ATOM     18  N   LIG    1       -4.781   3.939   2.741  0.00  0.00    -0.490 NA
ATOM     19  C   LIG    1       -4.475   3.761   4.019  0.00  0.00    +0.350 A 
ATOM     20  N   LIG    1       -3.396   3.085   4.390  0.00  0.00    -0.490 NA
ATOM     21  C   LIG    1       -2.582   2.562   3.490  0.00  0.00    +0.340 A 
BRANCH  19  22
ATOM     22  C   LIG    1       -5.362   4.333   5.061  0.00  0.00    -0.050 A 
ATOM     23  C   LIG    1       -5.063   4.153   6.410  0.00  0.00    +0.070 A 
ATOM     24  C   LIG    1       -5.890   4.690   7.375  0.00  0.00    +0.000 A 
ATOM     25  C   LIG    1       -7.020   5.398   7.005  0.00  0.00    +0.030 A 
ATOM     26  C   LIG    1       -7.324   5.576   5.668  0.00  0.00    +0.000 A 
ATOM     27  C   LIG    1       -6.502   5.047   4.694  0.00  0.00    +0.070 A 
ENDBRANCH  19  22
ENDBRANCH   2  16
TORSDOF 4
