REMARK  Name = ZINCrH000004sGPC.0
REMARK                            x       y       z     vdW  Elec       q    Type
REMARK                         _______ _______ _______ _____ _____    ______ ____
ROOT
ATOM      1  C   LIG    1        5.058  -5.314   0.674  0.00  0.00    +0.170 C 
ATOM      2  C   LIG    1        5.904  -5.317  -0.572  0.00  0.00    +0.110 A 
ATOM      3  N   LIG    1        6.899  -6.122  -0.814  0.00  0.00    -0.240 NA
ATOM      4  N   LIG    1        7.450  -5.832  -2.067  0.00  0.00    -0.380 N 
ATOM      5  C   LIG    1        6.745  -4.790  -2.613  0.00  0.00    +0.320 A 
ATOM      6  N   LIG    1        6.838  -4.127  -3.757  0.00  0.00    -0.480 NA
ATOM      7  C   LIG    1        6.024  -3.139  -4.057  0.00  0.00    +0.200 A 
ATOM      8  C   LIG    1        5.019  -2.735  -3.191  0.00  0.00    -0.030 A 
ATOM      9  C   LIG    1        4.865  -3.389  -1.970  0.00  0.00    -0.010 A 
ATOM     10  C   LIG    1        5.757  -4.442  -1.670  0.00  0.00    -0.190 A 
ENDROOT
BRANCH   9  11
ATOM     11  C   LIG    1        3.808  -2.989  -1.018  0.00  0.00    +0.560 C 
ATOM     12  N   LIG    1        2.594  -2.620  -1.474  0.00  0.00    -0.720 N 
ATOM     13  H   LIG    1        2.415  -2.616  -2.427  0.00  0.00    +0.410 HD
ATOM     14  O   LIG    1        4.032  -2.993   0.177  0.00  0.00    -0.510 OA
BRANCH  12  15
ATOM     15  C   LIG    1        1.546  -2.223  -0.530  0.00  0.00    +0.300 C 
BRANCH  15  16
ATOM     16  C   LIG    1        0.278  -1.854  -1.302  0.00  0.00    -0.060 C 
ATOM     17  C   LIG    1       -0.871  -1.556  -0.316  0.00  0.00    +0.050 C 
ATOM     18  C   LIG    1       -1.630  -0.379  -0.981  0.00  0.00    +0.040 C 
ATOM     19  C   LIG    1       -0.477   0.450  -1.601  0.00  0.00    +0.010 C 
ATOM     20  C   LIG    1        0.509  -0.590  -2.103  0.00  0.00    +0.370 C 
ATOM     21  O   LIG    1        1.326  -0.437  -2.979  0.00  0.00    -0.440 OA
ENDBRANCH  15  16
ENDBRANCH  12  15
ENDBRANCH   9  11
BRANCH   4  22
ATOM     22  C   LIG    1        8.582  -6.522  -2.689  0.00  0.00    +0.190 C 
ATOM     23  C   LIG    1        8.136  -7.142  -4.015  0.00  0.00    +0.050 C 
ATOM     24  C   LIG    1        9.084  -7.624  -1.754  0.00  0.00    +0.070 C 
ATOM     25  C   LIG    1        9.710  -5.521  -2.949  0.00  0.00    +0.050 C 
ENDBRANCH   4  22
BRANCH   7  26
ATOM     26  C   LIG    1        6.185  -2.429  -5.376  0.00  0.00    +0.040 C 
ATOM     27  C   LIG    1        5.852  -0.946  -5.202  0.00  0.00    +0.040 C 
ATOM     28  C   LIG    1        5.239  -3.047  -6.407  0.00  0.00    +0.050 C 
ENDBRANCH   7  26
TORSDOF 5
