REMARK  Name = ZINCpk000000pUpY.0
REMARK                            x       y       z     vdW  Elec       q    Type
REMARK                         _______ _______ _______ _____ _____    ______ ____
ROOT
ATOM      1  N   LIG    1       -2.462   1.422   0.021  0.00  0.00    -0.500 N 
ATOM      2  H   LIG    1       -2.448   0.452   0.016  0.00  0.00    +0.430 HD
ATOM      3  C   LIG    1       -1.305   2.112   0.020  0.00  0.00    +0.570 C 
ATOM      4  O   LIG    1       -1.322   3.328   0.026  0.00  0.00    -0.500 OA
ENDROOT
BRANCH   3   5
ATOM      5  C   LIG    1       -0.017   1.393   0.010  0.00  0.00    -0.090 A 
ATOM      6  C   LIG    1        0.002  -0.004   0.002  0.00  0.00    +0.050 A 
ATOM      7  C   LIG    1        1.206  -0.672  -0.015  0.00  0.00    +0.090 A 
ATOM      8  C   LIG    1        2.399   0.040  -0.022  0.00  0.00    -0.110 A 
ATOM      9  S   LIG    1        3.941  -0.818  -0.047  0.00  0.00    -0.060 S 
ATOM     10  C   LIG    1        4.998   0.346  -0.958  0.00  0.00    +0.030 C 
ATOM     11  C   LIG    1        4.765   1.735  -0.432  0.00  0.00    +0.520 C 
ATOM     12  N   LIG    1        3.579   2.172  -0.014  0.00  0.00    -0.660 N 
ATOM     13  H   LIG    1        3.536   3.082   0.319  0.00  0.00    +0.420 HD
ATOM     14  O   LIG    1        5.707   2.498  -0.386  0.00  0.00    -0.500 OA
ATOM     15  C   LIG    1        6.467  -0.035  -0.762  0.00  0.00    +0.120 C 
ATOM     16  C   LIG    1        2.394   1.439  -0.012  0.00  0.00    +0.160 A 
ATOM     17  C   LIG    1        1.182   2.110   0.002  0.00  0.00    +0.080 A 
ENDBRANCH   3   5
BRANCH   1  22
ATOM     18  C   LIG    1       -5.679   3.027   0.658  0.00  0.00    +0.130 C 
ATOM     19  N   LIG    1       -5.391   3.305  -0.760  0.00  0.00    -0.710 N 
ATOM     20  H   LIG    1       -5.946   3.807  -1.377  0.00  0.00    +0.440 HD
ATOM     21  C   LIG    1       -4.207   2.727  -1.032  0.00  0.00    +0.710 C 
ATOM     22  N   LIG    1       -3.685   2.105   0.031  0.00  0.00    -0.380 N 
ATOM     23  O   LIG    1       -3.672   2.765  -2.123  0.00  0.00    -0.520 OA
ATOM     24  C   LIG    1       -5.783   4.331   1.452  0.00  0.00    +0.100 C 
ATOM     25  C   LIG    1       -4.484   2.211   1.111  0.00  0.00    +0.530 C 
ATOM     26  O   LIG    1       -4.288   1.752   2.216  0.00  0.00    -0.450 OA
BRANCH  18  28
ATOM     27  C   LIG    1       -8.118   2.957   0.118  0.00  0.00    +0.050 C 
ATOM     28  C   LIG    1       -6.966   2.211   0.795  0.00  0.00    +0.050 C 
ENDBRANCH  18  28
ENDBRANCH   1  22
TORSDOF 3
