REMARK  Name = ZINCrD000000C4fB.0
REMARK                            x       y       z     vdW  Elec       q    Type
REMARK                         _______ _______ _______ _____ _____    ______ ____
ROOT
ATOM      1  O   LIG    1        0.701  -2.897  -1.132  0.00  0.00    -0.550 OA
ATOM      2  C   LIG    1        1.394  -2.167  -1.813  0.00  0.00    +0.700 C 
ATOM      3  N   LIG    1        1.658  -0.911  -1.400  0.00  0.00    -0.730 N 
ATOM      4  H   LIG    1        2.211  -0.328  -1.943  0.00  0.00    +0.400 HD
ATOM      5  N   LIG    1        1.899  -2.612  -2.981  0.00  0.00    -0.680 N 
ATOM      6  H   LIG    1        2.387  -2.007  -3.560  0.00  0.00    +0.410 HD
ENDROOT
BRANCH   5   7
ATOM      7  C   LIG    1        1.718  -3.949  -3.357  0.00  0.00    +0.180 A 
ATOM      8  C   LIG    1        1.572  -4.275  -4.704  0.00  0.00    -0.040 A 
ATOM      9  C   LIG    1        1.396  -5.574  -5.087  0.00  0.00    +0.080 A 
ATOM     10  C   LIG    1        1.361  -6.584  -4.124  0.00  0.00    -0.120 A 
ATOM     11  C   LIG    1        1.194  -8.039  -4.182  0.00  0.00    -0.050 A 
ATOM     12  C   LIG    1        1.246  -8.491  -2.920  0.00  0.00    +0.220 A 
ATOM     13  N   LIG    1        1.433  -7.444  -2.056  0.00  0.00    -0.600 N 
ATOM     14  H   LIG    1        1.503  -7.523  -1.092  0.00  0.00    +0.420 HD
ATOM     15  C   LIG    1        1.508  -6.264  -2.761  0.00  0.00    +0.110 A 
ATOM     16  C   LIG    1        1.692  -4.937  -2.388  0.00  0.00    +0.000 A 
ENDBRANCH   5   7
BRANCH   3  17
ATOM     17  C   LIG    1        1.110  -0.427  -0.131  0.00  0.00    +0.270 C 
ATOM     18  C   LIG    1        1.932   0.775   0.391  0.00  0.00    +0.080 C 
ATOM     19  C   LIG    1        1.134   1.971  -0.173  0.00  0.00    +0.270 C 
ATOM     20  N   LIG    1       -0.238   1.479  -0.349  0.00  0.00    -0.580 N 
ATOM     21  C   LIG    1       -0.280   0.135  -0.335  0.00  0.00    +0.510 C 
ATOM     22  O   LIG    1       -1.286  -0.529  -0.467  0.00  0.00    -0.490 OA
BRANCH  20  23
ATOM     23  C   LIG    1       -1.359   2.304  -0.516  0.00  0.00    +0.070 A 
ATOM     24  C   LIG    1       -1.748   2.700  -1.790  0.00  0.00    +0.140 A 
ATOM     25  C   LIG    1       -2.858   3.510  -1.951  0.00  0.00    -0.010 A 
ATOM     26  C   LIG    1       -3.573   3.934  -0.846  0.00  0.00    +0.100 A 
ATOM     27  C   LIG    1       -3.186   3.546   0.423  0.00  0.00    -0.010 A 
ATOM     28  F   LIG    1       -1.047   2.291  -2.870  0.00  0.00    -0.120 F 
ATOM     29  C   LIG    1       -2.080   2.732   0.592  0.00  0.00    +0.140 A 
ATOM     30  F   LIG    1       -1.703   2.353   1.833  0.00  0.00    -0.120 F 
ENDBRANCH  20  23
ENDBRANCH   3  17
TORSDOF 3
