REMARK  Name = ZINCrH000004u7iA.0
REMARK                            x       y       z     vdW  Elec       q    Type
REMARK                         _______ _______ _______ _____ _____    ______ ____
ROOT
ATOM      1  C   LIG    1        1.420   2.051  -0.001  0.00  0.00    +0.230 C 
ATOM      2  C   LIG    1       -0.019   1.526   0.010  0.00  0.00    +0.030 C 
ATOM      3  C   LIG    1        0.002  -0.004   0.002  0.00  0.00    +0.230 C 
ATOM      4  N   LIG    1        0.706  -0.479  -1.196  0.00  0.00    -0.480 N 
ATOM      5  C   LIG    1        2.103  -0.026  -1.205  0.00  0.00    +0.210 C 
ATOM      6  C   LIG    1        2.145   1.503  -1.232  0.00  0.00    +0.030 C 
ENDROOT
BRANCH   4   7
ATOM      7  C   LIG    1        0.630  -1.863  -1.303  0.00  0.00    +0.340 A 
ATOM      8  C   LIG    1        1.239  -2.505  -2.376  0.00  0.00    -0.040 A 
ATOM      9  C   LIG    1        1.156  -3.883  -2.470  0.00  0.00    +0.150 A 
ATOM     10  C   LIG    1        0.464  -4.574  -1.484  0.00  0.00    -0.270 A 
ATOM     11  C   LIG    1       -0.116  -3.872  -0.446  0.00  0.00    +0.360 A 
ATOM     12  N   LIG    1       -0.016  -2.558  -0.380  0.00  0.00    -0.520 NA
BRANCH  10  13
ATOM     13  C   LIG    1        0.348  -6.075  -1.545  0.00  0.00    +0.520 C 
ATOM     14  F   LIG    1        0.364  -6.490  -2.881  0.00  0.00    -0.180 F 
ATOM     15  F   LIG    1       -0.851  -6.475  -0.947  0.00  0.00    -0.170 F 
ATOM     16  F   LIG    1        1.425  -6.654  -0.865  0.00  0.00    -0.180 F 
ENDBRANCH  10  13
ENDBRANCH   4   7
BRANCH   1  19
ATOM     17  O   LIG    1        3.413   3.633   0.894  0.00  0.00    -0.510 OA
ATOM     18  C   LIG    1        2.455   4.216   0.423  0.00  0.00    +0.570 C 
ATOM     19  N   LIG    1        1.406   3.515  -0.051  0.00  0.00    -0.710 N 
ATOM     20  H   LIG    1        0.642   3.981  -0.426  0.00  0.00    +0.400 HD
BRANCH  18  21
ATOM     21  C   LIG    1        2.441   5.691   0.372  0.00  0.00    -0.200 A 
ATOM     22  C   LIG    1        1.913   6.426   1.438  0.00  0.00    +0.160 A 
ATOM     23  C   LIG    1        1.909   7.808   1.384  0.00  0.00    -0.010 A 
ATOM     24  C   LIG    1        2.415   8.462   0.276  0.00  0.00    +0.110 A 
ATOM     25  C   LIG    1        2.934   7.742  -0.785  0.00  0.00    -0.010 A 
ATOM     26  F   LIG    1        1.413   5.789   2.519  0.00  0.00    -0.120 F 
ATOM     27  C   LIG    1        2.951   6.360  -0.745  0.00  0.00    +0.160 A 
ATOM     28  F   LIG    1        3.459   5.659  -1.782  0.00  0.00    -0.120 F 
ENDBRANCH  18  21
ENDBRANCH   1  19
TORSDOF 4
