REMARK  Name = ZINCvU0000000Dqh.0
REMARK                            x       y       z     vdW  Elec       q    Type
REMARK                         _______ _______ _______ _____ _____    ______ ____
ROOT
ATOM      1  C   LIG    1        0.730  -6.197  -0.650  0.00  0.00    +0.150 A 
ATOM      2  N   LIG    1        0.631  -6.150   0.658  0.00  0.00    -0.290 NA
ATOM      3  N   LIG    1        0.170  -5.006   1.020  0.00  0.00    -0.250 NA
ATOM      4  C   LIG    1       -0.051  -4.261  -0.026  0.00  0.00    +0.180 A 
ATOM      5  N   LIG    1        0.293  -4.995  -1.128  0.00  0.00    -0.420 N 
ENDROOT
BRANCH   5   6
ATOM      6  C   LIG    1        0.212  -4.577  -2.529  0.00  0.00    +0.190 C 
ATOM      7  C   LIG    1        0.272  -5.671  -3.597  0.00  0.00    +0.070 C 
ATOM      8  C   LIG    1        1.468  -4.739  -3.388  0.00  0.00    +0.060 C 
ENDBRANCH   5   6
BRANCH   1   9
ATOM      9  S   LIG    1        1.310  -7.557  -1.608  0.00  0.00    +0.100 S 
BRANCH   9  10
ATOM     10  C   LIG    1        1.681  -8.738  -0.287  0.00  0.00    +0.090 C 
BRANCH  10  12
ATOM     11  O   LIG    1        2.321 -10.118  -2.091  0.00  0.00    -0.530 OA
ATOM     12  C   LIG    1        2.207 -10.015  -0.887  0.00  0.00    +0.540 C 
ATOM     13  N   LIG    1        2.552 -11.044  -0.088  0.00  0.00    -0.600 N 
ATOM     14  C   LIG    1        2.421 -10.939   1.372  0.00  0.00    +0.270 C 
ATOM     15  C   LIG    1        1.583 -12.115   1.882  0.00  0.00    +0.010 C 
ATOM     16  C   LIG    1        2.201 -13.429   1.396  0.00  0.00    +0.020 C 
ATOM     17  C   LIG    1        2.207 -13.453  -0.132  0.00  0.00    -0.030 C 
ATOM     18  C   LIG    1        2.754 -14.787  -0.634  0.00  0.00    +0.030 C 
ATOM     19  C   LIG    1        4.188 -14.969  -0.164  0.00  0.00    +0.010 C 
ATOM     20  C   LIG    1        5.044 -13.828  -0.719  0.00  0.00    +0.010 C 
ATOM     21  C   LIG    1        4.510 -12.494  -0.197  0.00  0.00    +0.000 C 
ATOM     22  C   LIG    1        3.062 -12.302  -0.656  0.00  0.00    +0.250 C 
ENDBRANCH  10  12
ENDBRANCH   9  10
ENDBRANCH   1   9
BRANCH   4  23
ATOM     23  C   LIG    1       -0.591  -2.855  -0.023  0.00  0.00    +0.350 C 
BRANCH  23  24
ATOM     24  O   LIG    1        0.494  -1.928   0.056  0.00  0.00    -0.300 OA
BRANCH  24  25
ATOM     25  C   LIG    1        0.177  -0.606   0.069  0.00  0.00    +0.140 A 
ATOM     26  C   LIG    1       -1.150  -0.210   0.007  0.00  0.00    -0.060 A 
ATOM     27  C   LIG    1       -1.470   1.135   0.021  0.00  0.00    +0.060 A 
ATOM     28  C   LIG    1       -0.469   2.084   0.096  0.00  0.00    +0.000 A 
ATOM     29  C   LIG    1        0.856   1.693   0.157  0.00  0.00    +0.070 A 
ATOM     30  C   LIG    1        1.182   0.349   0.144  0.00  0.00    -0.070 A 
ATOM     31 CL   LIG    1        2.845  -0.142   0.222  0.00  0.00    -0.050 Cl
ENDBRANCH  24  25
ENDBRANCH  23  24
ENDBRANCH   4  23
TORSDOF 7
