REMARK  Name = ZINCrD000000D0gD.0
REMARK                            x       y       z     vdW  Elec       q    Type
REMARK                         _______ _______ _______ _____ _____    ______ ____
ROOT
ATOM      1  C   LIG    1       -3.057   4.035   1.494  0.00  0.00    +0.290 C 
ENDROOT
BRANCH   1   2
ATOM      2  N   LIG    1       -2.069   4.782   2.278  0.00  0.00    -1.110 NA
ATOM      3  H   LIG    1       -1.191   4.961   1.908  0.00  0.00    +0.420 HD
BRANCH   2   5
ATOM      4  O   LIG    1       -1.292   5.968   4.298  0.00  0.00    -0.960 OA
ATOM      5  S   LIG    1       -2.454   5.321   3.796  0.00  0.00    +2.690 S 
ATOM      6  O   LIG    1       -3.715   5.965   3.686  0.00  0.00    -0.960 OA
BRANCH   5   7
ATOM      7  C   LIG    1       -2.707   3.900   4.806  0.00  0.00    -0.600 C 
ATOM      8  C   LIG    1       -1.890   3.653   5.820  0.00  0.00    +0.210 C 
BRANCH   8   9
ATOM      9  C   LIG    1       -2.103   2.461   6.667  0.00  0.00    -0.100 A 
ATOM     10  C   LIG    1       -3.166   1.596   6.406  0.00  0.00    +0.040 A 
ATOM     11  C   LIG    1       -3.355   0.481   7.196  0.00  0.00    +0.000 A 
ATOM     12  C   LIG    1       -2.501   0.227   8.254  0.00  0.00    +0.030 A 
ATOM     13  C   LIG    1       -1.448   1.083   8.523  0.00  0.00    +0.000 A 
ATOM     14  C   LIG    1       -1.244   2.198   7.736  0.00  0.00    +0.040 A 
ENDBRANCH   8   9
ENDBRANCH   5   7
ENDBRANCH   2   5
ENDBRANCH   1   2
BRANCH   1  15
ATOM     15  C   LIG    1       -2.630   4.012   0.025  0.00  0.00    +0.200 C 
BRANCH  15  16
ATOM     16  C   LIG    1       -1.357   3.217  -0.115  0.00  0.00    -0.070 A 
ATOM     17  C   LIG    1       -0.135   3.863  -0.113  0.00  0.00    +0.050 A 
ATOM     18  C   LIG    1        1.032   3.134  -0.241  0.00  0.00    +0.020 A 
ATOM     19  C   LIG    1        0.978   1.759  -0.372  0.00  0.00    +0.020 A 
ATOM     20  C   LIG    1       -0.243   1.112  -0.374  0.00  0.00    +0.020 A 
ATOM     21  C   LIG    1       -1.412   1.841  -0.252  0.00  0.00    -0.030 A 
ATOM     22 CL   LIG    1       -2.947   1.030  -0.263  0.00  0.00    -0.070 Cl
ENDBRANCH  15  16
BRANCH  15  23
ATOM     23  N   LIG    1       -2.403   5.387  -0.440  0.00  0.00    -0.530 NA
ATOM     24  C   LIG    1       -3.551   6.247  -0.122  0.00  0.00    +0.160 C 
ATOM     25  C   LIG    1       -3.249   7.679  -0.570  0.00  0.00    +0.220 C 
ATOM     26  O   LIG    1       -2.940   7.682  -1.967  0.00  0.00    -0.380 OA
ATOM     27  C   LIG    1       -1.826   6.854  -2.312  0.00  0.00    +0.220 C 
ATOM     28  C   LIG    1       -2.114   5.414  -1.882  0.00  0.00    +0.150 C 
ENDBRANCH  15  23
ENDBRANCH   1  15
TORSDOF 7
