REMARK  Name = ZINCrH00000tj0HZ.0
REMARK                            x       y       z     vdW  Elec       q    Type
REMARK                         _______ _______ _______ _____ _____    ______ ____
ROOT
ATOM      1  C   LIG    1       -6.649   2.171   4.577  0.00  0.00    -0.010 C 
ATOM      2  C   LIG    1       -5.351   1.557   4.048  0.00  0.00    +0.060 C 
ATOM      3  C   LIG    1       -5.269   1.773   2.533  0.00  0.00    +0.260 C 
ATOM      4  N   LIG    1       -5.418   3.207   2.251  0.00  0.00    -0.630 N 
ATOM      5  C   LIG    1       -6.583   3.917   2.795  0.00  0.00    +0.300 C 
ATOM      6  C   LIG    1       -4.500   3.860   1.511  0.00  0.00    +0.710 C 
ATOM      7  N   LIG    1       -3.490   3.178   0.935  0.00  0.00    -0.740 N 
ATOM      8  H   LIG    1       -3.379   2.231   1.114  0.00  0.00    +0.390 HD
ATOM      9  O   LIG    1       -4.582   5.064   1.363  0.00  0.00    -0.580 OA
ATOM     10  C   LIG    1       -6.652   3.677   4.302  0.00  0.00    +0.020 C 
ENDROOT
BRANCH   1  14
ATOM     11  C   LIG    1       -7.913   2.154   8.190  0.00  0.00    +0.290 C 
ATOM     12  N   LIG    1       -7.816   2.386   6.747  0.00  0.00    -0.740 N 
ATOM     13  H   LIG    1       -8.520   2.868   6.285  0.00  0.00    +0.400 HD
ATOM     14  C   LIG    1       -6.749   1.932   6.061  0.00  0.00    +0.520 C 
ATOM     15  O   LIG    1       -5.869   1.329   6.639  0.00  0.00    -0.540 OA
ENDBRANCH   1  14
BRANCH   7  16
ATOM     16  C   LIG    1       -2.559   3.867   0.037  0.00  0.00    +0.310 C 
BRANCH  16  17
ATOM     17  C   LIG    1       -1.244   3.131   0.017  0.00  0.00    -0.090 A 
ATOM     18  C   LIG    1       -1.225   1.749   0.006  0.00  0.00    +0.010 A 
ATOM     19  C   LIG    1       -0.019   1.074  -0.008  0.00  0.00    +0.010 A 
ATOM     20  C   LIG    1        1.169   1.782  -0.021  0.00  0.00    -0.080 A 
ATOM     21  C   LIG    1        1.150   3.164  -0.014  0.00  0.00    +0.010 A 
ATOM     22  C   LIG    1       -0.056   3.839   0.004  0.00  0.00    +0.020 A 
BRANCH  20  23
ATOM     23  C   LIG    1        2.484   1.046  -0.042  0.00  0.00    +0.060 C 
BRANCH  23  24
ATOM     24  C   LIG    1        2.909   0.803  -1.491  0.00  0.00    -0.020 C 
ATOM     25  C   LIG    1        1.909  -0.138  -2.165  0.00  0.00    +0.010 C 
ATOM     26  C   LIG    1        4.301   0.168  -1.514  0.00  0.00    +0.020 C 
ENDBRANCH  23  24
ENDBRANCH  20  23
ENDBRANCH  16  17
BRANCH  16  27
ATOM     27  C   LIG    1       -3.145   3.904  -1.375  0.00  0.00    -0.030 C 
ATOM     28  C   LIG    1       -2.173   4.623  -2.312  0.00  0.00    +0.030 C 
ATOM     29  C   LIG    1       -4.480   4.651  -1.354  0.00  0.00    +0.020 C 
ENDBRANCH  16  27
ENDBRANCH   7  16
TORSDOF 6
