REMARK  Name = ZINCrD0000071K6f.0
REMARK                            x       y       z     vdW  Elec       q    Type
REMARK                         _______ _______ _______ _____ _____    ______ ____
ROOT
ATOM      1  O   LIG    1        2.473   1.113  -0.050  0.00  0.00    -0.310 OA
ENDROOT
BRANCH   1   2
ATOM      2  C   LIG    1        1.346   2.028  -0.018  0.00  0.00    +0.190 C 
ATOM      3  C   LIG    1        1.378   2.832   1.283  0.00  0.00    +0.070 C 
BRANCH   2   5
ATOM      4  N   LIG    1       -1.113   1.888  -0.246  0.00  0.00    -0.540 N 
ATOM      5  C   LIG    1        0.061   1.244  -0.092  0.00  0.00    +0.520 C 
ATOM      6  O   LIG    1        0.083   0.034  -0.018  0.00  0.00    -0.480 OA
BRANCH   4   7
ATOM      7  C   LIG    1       -2.315   1.174  -0.196  0.00  0.00    +0.150 A 
ATOM      8  C   LIG    1       -3.512   1.803  -0.512  0.00  0.00    -0.030 A 
ATOM      9  C   LIG    1       -4.696   1.093  -0.467  0.00  0.00    +0.030 A 
ATOM     10  C   LIG    1       -4.692  -0.239  -0.096  0.00  0.00    -0.020 A 
ATOM     11  C   LIG    1       -3.502  -0.867   0.225  0.00  0.00    +0.030 A 
ATOM     12  C   LIG    1       -2.314  -0.164   0.176  0.00  0.00    +0.010 A 
ENDBRANCH   4   7
BRANCH   4  14
ATOM     13  C   LIG    1       -0.977   3.627  -1.961  0.00  0.00    +0.030 C 
ATOM     14  C   LIG    1       -1.131   3.337  -0.467  0.00  0.00    +0.280 C 
ENDBRANCH   4  14
ENDBRANCH   2   5
ENDBRANCH   1   2
BRANCH   1  15
ATOM     15  C   LIG    1        3.615   1.569  -0.600  0.00  0.00    +0.530 C 
ATOM     16  O   LIG    1        3.668   2.699  -1.040  0.00  0.00    -0.460 OA
BRANCH  15  17
ATOM     17  C   LIG    1        4.806   0.691  -0.666  0.00  0.00    +0.110 A 
ATOM     18  C   LIG    1        5.939   1.176  -1.231  0.00  0.00    -0.030 A 
ATOM     19  C   LIG    1        7.116   0.292  -1.303  0.00  0.00    +0.420 A 
ATOM     20  C   LIG    1        6.868  -1.137  -1.027  0.00  0.00    -0.230 A 
ATOM     21  C   LIG    1        7.821  -2.112  -1.317  0.00  0.00    +0.110 A 
ATOM     22  C   LIG    1        7.539  -3.435  -1.056  0.00  0.00    +0.000 A 
ATOM     23  C   LIG    1        6.316  -3.794  -0.508  0.00  0.00    +0.090 A 
ATOM     24  C   LIG    1        5.367  -2.839  -0.212  0.00  0.00    +0.020 A 
ATOM     25  C   LIG    1        5.630  -1.496  -0.464  0.00  0.00    +0.150 A 
ATOM     26  O   LIG    1        8.225   0.713  -1.579  0.00  0.00    -0.440 OA
ATOM     27  O   LIG    1        4.717  -0.551  -0.172  0.00  0.00    -0.210 OA
ENDBRANCH  15  17
ENDBRANCH   1  15
TORSDOF 6
