REMARK  Name = ZINCvU0000000IkX.0
REMARK                            x       y       z     vdW  Elec       q    Type
REMARK                         _______ _______ _______ _____ _____    ______ ____
ROOT
ATOM      1  N   LIG    1       -1.162  -1.939   0.891  0.00  0.00    -0.740 N 
ATOM      2  H   LIG    1       -0.287  -2.319   1.065  0.00  0.00    +0.400 HD
ATOM      3  C   LIG    1       -2.258  -2.481   1.459  0.00  0.00    +0.710 C 
ATOM      4  N   LIG    1       -2.137  -3.551   2.269  0.00  0.00    -0.730 N 
ATOM      5  H   LIG    1       -1.262  -3.932   2.443  0.00  0.00    +0.410 HD
ATOM      6  O   LIG    1       -3.354  -2.004   1.240  0.00  0.00    -0.570 OA
ENDROOT
BRANCH   4   7
ATOM      7  C   LIG    1       -3.328  -4.141   2.886  0.00  0.00    +0.360 C 
ATOM      8  C   LIG    1       -3.969  -5.133   1.913  0.00  0.00    +0.050 C 
BRANCH   7   9
ATOM      9  C   LIG    1       -2.935  -4.860   4.150  0.00  0.00    +0.280 A 
ATOM     10  N   LIG    1       -1.755  -5.350   4.393  0.00  0.00    -0.490 NA
ATOM     11  C   LIG    1       -1.743  -5.927   5.622  0.00  0.00    +0.050 A 
ATOM     12  C   LIG    1       -0.763  -6.585   6.368  0.00  0.00    +0.070 A 
ATOM     13  C   LIG    1       -1.065  -7.075   7.607  0.00  0.00    +0.000 A 
ATOM     14  C   LIG    1       -2.339  -6.926   8.136  0.00  0.00    +0.030 A 
ATOM     15  C   LIG    1       -3.323  -6.280   7.417  0.00  0.00    +0.010 A 
ATOM     16  C   LIG    1       -3.034  -5.775   6.157  0.00  0.00    +0.050 A 
ATOM     17  N   LIG    1       -3.765  -5.097   5.202  0.00  0.00    -0.590 N 
ATOM     18  H   LIG    1       -4.697  -4.836   5.269  0.00  0.00    +0.420 HD
ENDBRANCH   7   9
ENDBRANCH   4   7
BRANCH   1  19
ATOM     19  C   LIG    1       -1.293  -0.775   0.011  0.00  0.00    +0.320 C 
BRANCH  19  24
ATOM     20  C   LIG    1        3.672   2.182  -0.024  0.00  0.00    +0.090 C 
ATOM     21  C   LIG    1        2.377   1.411  -0.015  0.00  0.00    -0.080 A 
ATOM     22  C   LIG    1        2.396   0.029  -0.021  0.00  0.00    +0.010 A 
ATOM     23  C   LIG    1        1.208  -0.679  -0.013  0.00  0.00    +0.010 A 
ATOM     24  C   LIG    1        0.002  -0.004   0.002  0.00  0.00    -0.100 A 
ATOM     25  C   LIG    1       -0.017   1.378   0.010  0.00  0.00    +0.020 A 
ATOM     26  C   LIG    1        1.171   2.086   0.002  0.00  0.00    -0.080 A 
ATOM     27  C   LIG    1        1.150   3.592   0.010  0.00  0.00    +0.090 C 
ENDBRANCH  19  24
BRANCH  19  28
ATOM     28  C   LIG    1       -1.617  -1.244  -1.409  0.00  0.00    +0.060 C 
BRANCH  28  29
ATOM     29  C   LIG    1       -2.970  -1.908  -1.423  0.00  0.00    -0.060 A 
ATOM     30  C   LIG    1       -3.074  -3.269  -1.204  0.00  0.00    +0.010 A 
ATOM     31  C   LIG    1       -4.315  -3.877  -1.211  0.00  0.00    -0.010 A 
ATOM     32  C   LIG    1       -5.451  -3.126  -1.448  0.00  0.00    -0.010 A 
ATOM     33  C   LIG    1       -5.347  -1.766  -1.672  0.00  0.00    +0.000 A 
ATOM     34  C   LIG    1       -4.106  -1.157  -1.659  0.00  0.00    +0.010 A 
ENDBRANCH  28  29
ENDBRANCH  19  28
ENDBRANCH   1  19
TORSDOF 6
