REMARK  Name = ZINCrH000004nCK1.0
REMARK                            x       y       z     vdW  Elec       q    Type
REMARK                         _______ _______ _______ _____ _____    ______ ____
ROOT
ATOM      1  C   LIG    1       -0.433  -4.839   0.908  0.00  0.00    +0.520 C 
ATOM      2  N   LIG    1       -0.460  -6.184   0.993  0.00  0.00    -0.620 N 
ATOM      3  H   LIG    1       -0.059  -6.722   0.294  0.00  0.00    +0.430 HD
ATOM      4  O   LIG    1       -0.935  -4.165   1.783  0.00  0.00    -0.470 OA
ENDROOT
BRANCH   2   5
ATOM      5  C   LIG    1       -1.063  -6.798   2.084  0.00  0.00    +0.280 A 
ATOM      6  N   LIG    1       -1.148  -8.079   2.269  0.00  0.00    -0.500 NA
ATOM      7  C   LIG    1       -1.761  -8.488   3.371  0.00  0.00    +0.120 A 
ATOM      8  C   LIG    1       -2.225  -7.510   4.170  0.00  0.00    -0.100 A 
ATOM      9  S   LIG    1       -1.825  -5.960   3.432  0.00  0.00    +0.230 S 
BRANCH   7  10
ATOM     10  C   LIG    1       -1.924  -9.925   3.701  0.00  0.00    -0.010 A 
ATOM     11  C   LIG    1       -2.666 -10.306   4.818  0.00  0.00    +0.100 A 
ATOM     12  C   LIG    1       -2.814 -11.645   5.120  0.00  0.00    +0.040 A 
ATOM     13  C   LIG    1       -2.229 -12.607   4.316  0.00  0.00    +0.110 A 
ATOM     14  C   LIG    1       -1.492 -12.234   3.206  0.00  0.00    -0.040 A 
ATOM     15  C   LIG    1       -1.341 -10.899   2.892  0.00  0.00    +0.130 A 
BRANCH  14  16
ATOM     16  N   LIG    1       -0.869 -13.269   2.351  0.00  0.00    +0.030 N 
ATOM     17  O   LIG    1       -0.220 -12.942   1.373  0.00  0.00    -0.160 OA
ATOM     18  O   LIG    1       -1.006 -14.448   2.625  0.00  0.00    -0.160 OA
ENDBRANCH  14  16
ENDBRANCH   7  10
ENDBRANCH   2   5
BRANCH   1  19
ATOM     19  C   LIG    1        0.221  -4.172  -0.274  0.00  0.00    +0.270 C 
BRANCH  19  20
ATOM     20  O   LIG    1        0.122  -2.753  -0.136  0.00  0.00    -0.280 OA
BRANCH  20  26
ATOM     21  C   LIG    1        0.606  -0.608  -1.056  0.00  0.00    +0.110 A 
ATOM     22  C   LIG    1        1.168   0.159  -2.065  0.00  0.00    -0.030 A 
ATOM     23  C   LIG    1        1.782  -0.457  -3.140  0.00  0.00    +0.020 A 
ATOM     24  C   LIG    1        1.836  -1.836  -3.213  0.00  0.00    +0.010 A 
ATOM     25  C   LIG    1        1.278  -2.606  -2.209  0.00  0.00    -0.030 A 
ATOM     26  C   LIG    1        0.667  -1.996  -1.126  0.00  0.00    +0.090 A 
BRANCH  21  28
ATOM     27  C   LIG    1       -0.017   1.425   0.010  0.00  0.00    +0.250 C 
ATOM     28  O   LIG    1        0.002  -0.004   0.002  0.00  0.00    -0.300 OA
ENDBRANCH  21  28
ENDBRANCH  20  26
ENDBRANCH  19  20
ENDBRANCH   1  19
TORSDOF 7
