REMARK  Name = ZINCrD0000072pI0.0
REMARK                            x       y       z     vdW  Elec       q    Type
REMARK                         _______ _______ _______ _____ _____    ______ ____
ROOT
ATOM      1  C   LIG    1       -0.016   1.317   0.009  0.00  0.00    +0.270 A 
ATOM      2  N   LIG    1        0.002  -0.004   0.002  0.00  0.00    -0.460 NA
ATOM      3  C   LIG    1        1.307  -0.347  -0.012  0.00  0.00    +0.220 A 
ATOM      4  N   LIG    1        2.002   0.761  -0.013  0.00  0.00    -0.360 NA
ATOM      5  O   LIG    1        1.264   1.723  -0.001  0.00  0.00    +0.100 OA
ENDROOT
BRANCH   3   6
ATOM      6  C   LIG    1        1.853  -1.728  -0.025  0.00  0.00    +0.060 A 
ATOM      7  C   LIG    1        1.001  -2.837  -0.016  0.00  0.00    -0.050 A 
ATOM      8  C   LIG    1        1.546  -4.104  -0.034  0.00  0.00    +0.320 A 
ATOM      9  N   LIG    1        2.853  -4.281  -0.047  0.00  0.00    -0.530 NA
ATOM     10  C   LIG    1        3.697  -3.260  -0.050  0.00  0.00    +0.400 A 
ATOM     11  C   LIG    1        3.229  -1.952  -0.039  0.00  0.00    -0.060 A 
BRANCH  10  12
ATOM     12  N   LIG    1        5.067  -3.501  -0.064  0.00  0.00    -0.620 N 
ATOM     13  C   LIG    1        5.569  -4.872  -0.186  0.00  0.00    +0.300 C 
ATOM     14  C   LIG    1        6.008  -2.383   0.044  0.00  0.00    +0.290 C 
ENDBRANCH  10  12
ENDBRANCH   3   6
BRANCH   1  16
ATOM     15  C   LIG    1       -2.531   1.803   0.018  0.00  0.00    +0.060 A 
ATOM     16  C   LIG    1       -1.213   2.180   0.020  0.00  0.00    -0.160 A 
ATOM     17  C   LIG    1       -1.273   3.605   0.028  0.00  0.00    +0.070 A 
ATOM     18  N   LIG    1       -2.535   3.915   0.035  0.00  0.00    -0.340 NA
ATOM     19  O   LIG    1       -3.243   2.936   0.033  0.00  0.00    +0.110 OA
BRANCH  17  20
ATOM     20  C   LIG    1       -0.107   4.560   0.028  0.00  0.00    +0.060 C 
ATOM     21  C   LIG    1       -0.174   5.449  -1.218  0.00  0.00    +0.030 C 
ATOM     22  C   LIG    1        0.970   6.466  -1.167  0.00  0.00    +0.000 C 
ATOM     23  C   LIG    1        0.869   7.274   0.130  0.00  0.00    +0.210 C 
ATOM     24  O   LIG    1        0.906   6.384   1.247  0.00  0.00    -0.370 OA
ATOM     25  C   LIG    1       -0.167   5.441   1.278  0.00  0.00    +0.230 C 
ENDBRANCH  17  20
BRANCH  15  27
ATOM     26  C   LIG    1       -3.250  -0.094   1.444  0.00  0.00    +0.050 C 
ATOM     27  C   LIG    1       -3.070   0.396   0.006  0.00  0.00    +0.160 C 
ENDBRANCH  15  27
ENDBRANCH   1  16
TORSDOF 5
