REMARK  Name = ZINCtV00000L6kTh.0
REMARK                            x       y       z     vdW  Elec       q    Type
REMARK                         _______ _______ _______ _____ _____    ______ ____
ROOT
ATOM      1  C   LIG    1       -2.890   4.067   1.386  0.00  0.00    +0.230 C 
ATOM      2  N   LIG    1       -2.279   4.012   0.051  0.00  0.00    -0.480 N 
ATOM      3  C   LIG    1       -1.208   3.128   0.030  0.00  0.00    +0.090 A 
ATOM      4  C   LIG    1       -1.233   1.733   0.017  0.00  0.00    +0.030 A 
ATOM      5  C   LIG    1       -0.013   1.076   0.008  0.00  0.00    +0.020 A 
ATOM      6  C   LIG    1        1.184   1.762   0.000  0.00  0.00    -0.010 A 
ATOM      7  C   LIG    1        1.224   3.152   0.005  0.00  0.00    +0.050 A 
ATOM      8  C   LIG    1        0.013   3.815   0.019  0.00  0.00    -0.120 A 
ATOM      9  C   LIG    1       -0.281   5.291   0.022  0.00  0.00    -0.060 C 
ATOM     10  C   LIG    1        0.571   6.015  -1.023  0.00  0.00    +0.050 C 
ATOM     11  C   LIG    1       -0.052   5.887   1.412  0.00  0.00    +0.070 C 
ATOM     12  C   LIG    1       -1.777   5.340  -0.355  0.00  0.00    +0.330 C 
ATOM     13  C   LIG    1       -2.469   6.421   0.422  0.00  0.00    -0.040 C 
ATOM     14  C   LIG    1       -2.596   7.640  -0.105  0.00  0.00    +0.070 C 
ATOM     15  C   LIG    1       -2.048   7.875  -1.455  0.00  0.00    -0.100 A 
ATOM     16  C   LIG    1       -1.856   9.172  -1.953  0.00  0.00    -0.050 A 
ATOM     17  C   LIG    1       -1.325   9.352  -3.243  0.00  0.00    +0.030 A 
ATOM     18  O   LIG    1       -1.245  10.682  -3.463  0.00  0.00    -0.180 OA
ATOM     19  C   LIG    1       -1.696  11.372  -2.403  0.00  0.00    +0.050 A 
ATOM     20  C   LIG    1       -1.774  12.876  -2.268  0.00  0.00    +0.150 C 
ATOM     21  C   LIG    1       -2.723  13.212  -1.112  0.00  0.00    +0.030 C 
ATOM     22  C   LIG    1       -2.325  12.407   0.128  0.00  0.00    +0.030 C 
ATOM     23  C   LIG    1       -2.648  10.925  -0.104  0.00  0.00    +0.110 C 
ATOM     24  C   LIG    1       -0.999   8.241  -4.011  0.00  0.00    +0.110 A 
ATOM     25  C   LIG    1       -1.195   6.965  -3.519  0.00  0.00    -0.100 A 
ATOM     26 BR   LIG    1       -0.747   5.470  -4.586  0.00  0.00    -0.010 Br
ATOM     27  C   LIG    1       -2.086  10.518  -1.440  0.00  0.00    -0.180 A 
ATOM     28  C   LIG    1       -1.718   6.772  -2.249  0.00  0.00    +0.170 A 
ATOM     29  O   LIG    1       -1.923   5.521  -1.758  0.00  0.00    -0.270 OA
ENDROOT
TORSDOF 0
