REMARK  Name = ZINCrH000004oJYb.0
REMARK                            x       y       z     vdW  Elec       q    Type
REMARK                         _______ _______ _______ _____ _____    ______ ____
ROOT
ATOM      1  C   LIG    1       -0.625   1.742   3.638  0.00  0.00    +0.090 A 
ATOM      2  C   LIG    1       -1.627   1.232   4.356  0.00  0.00    -0.110 A 
ATOM      3  S   LIG    1       -1.983   2.351   5.670  0.00  0.00    +0.250 S 
ATOM      4  C   LIG    1       -0.753   3.403   5.120  0.00  0.00    +0.240 A 
ATOM      5  N   LIG    1       -0.179   2.907   4.069  0.00  0.00    -0.500 NA
ENDROOT
BRANCH   4   6
ATOM      6  N   LIG    1       -0.417   4.613   5.714  0.00  0.00    -0.610 N 
ATOM      7  H   LIG    1        0.296   5.155   5.341  0.00  0.00    +0.430 HD
ATOM      8  C   LIG    1       -1.083   5.035   6.808  0.00  0.00    +0.600 C 
ATOM      9  O   LIG    1       -1.977   4.355   7.275  0.00  0.00    -0.490 OA
BRANCH   8  10
ATOM     10  C   LIG    1       -0.727   6.317   7.438  0.00  0.00    +0.010 A 
ATOM     11  C   LIG    1       -1.361   6.787   8.535  0.00  0.00    -0.010 A 
ATOM     12  S   LIG    1       -0.681   8.292   8.976  0.00  0.00    +0.260 S 
ATOM     13  C   LIG    1        0.444   8.200   7.625  0.00  0.00    +0.110 A 
ATOM     14  N   LIG    1        0.243   7.093   6.972  0.00  0.00    -0.430 NA
BRANCH  13  15
ATOM     15  C   LIG    1        1.458   9.213   7.292  0.00  0.00    +0.040 A 
ATOM     16  C   LIG    1        1.683  10.373   7.970  0.00  0.00    +0.000 A 
ATOM     17  C   LIG    1        2.736  11.032   7.307  0.00  0.00    -0.050 A 
ATOM     18  C   LIG    1        3.098  10.253   6.268  0.00  0.00    +0.200 A 
ATOM     19  O   LIG    1        2.328   9.153   6.265  0.00  0.00    -0.150 OA
ENDBRANCH  13  15
ENDBRANCH   8  10
ENDBRANCH   4   6
BRANCH   1  20
ATOM     20  C   LIG    1       -0.053   1.047   2.430  0.00  0.00    +0.280 C 
BRANCH  20  24
ATOM     21  C   LIG    1       -2.166   1.002  -1.260  0.00  0.00    +0.010 C 
ATOM     22  C   LIG    1       -0.755   1.594  -1.231  0.00  0.00    +0.200 C 
ATOM     23  C   LIG    1       -0.013   1.086   0.008  0.00  0.00    +0.150 C 
ATOM     24  N   LIG    1       -0.703   1.561   1.216  0.00  0.00    -0.530 NA
ATOM     25  C   LIG    1       -0.769   3.029   1.235  0.00  0.00    +0.160 C 
ATOM     26  C   LIG    1       -1.504   3.518  -0.017  0.00  0.00    +0.160 C 
ATOM     27  C   LIG    1       -1.506   5.048  -0.043  0.00  0.00    +0.060 C 
ATOM     28  O   LIG    1       -0.837   3.021  -1.180  0.00  0.00    -0.380 OA
ENDBRANCH  20  24
ENDBRANCH   1  20
TORSDOF 5
