REMARK  Name = ZINCvU0000000Cyi.0
REMARK                            x       y       z     vdW  Elec       q    Type
REMARK                         _______ _______ _______ _____ _____    ______ ____
ROOT
ATOM      1  C   LIG    1        3.007   1.636   1.831  0.00  0.00    +0.030 C 
ATOM      2  C   LIG    1        2.413   1.378   0.445  0.00  0.00    +0.290 C 
ENDROOT
BRANCH   2   3
ATOM      3  C   LIG    1        1.128   2.152   0.297  0.00  0.00    -0.080 A 
ATOM      4  C   LIG    1        0.350   2.418   1.409  0.00  0.00    +0.000 A 
ATOM      5  C   LIG    1       -0.829   3.129   1.277  0.00  0.00    +0.030 A 
ATOM      6  C   LIG    1       -1.234   3.573   0.034  0.00  0.00    +0.010 A 
ATOM      7  C   LIG    1       -0.453   3.311  -1.084  0.00  0.00    +0.150 A 
ATOM      8  C   LIG    1        0.728   2.593  -0.950  0.00  0.00    -0.010 A 
BRANCH   7   9
ATOM      9  N   LIG    1       -0.858   3.764  -2.344  0.00  0.00    -0.670 N 
ATOM     10  H   LIG    1       -0.674   3.231  -3.133  0.00  0.00    +0.410 HD
ATOM     11  C   LIG    1       -1.502   4.942  -2.461  0.00  0.00    +0.560 C 
ATOM     12  O   LIG    1       -1.643   5.657  -1.488  0.00  0.00    -0.510 OA
BRANCH  11  13
ATOM     13  C   LIG    1       -2.037   5.365  -3.773  0.00  0.00    -0.140 A 
ATOM     14  C   LIG    1       -1.871   4.549  -4.893  0.00  0.00    +0.040 A 
ATOM     15  C   LIG    1       -2.376   4.947  -6.114  0.00  0.00    +0.000 A 
ATOM     16  C   LIG    1       -3.037   6.157  -6.231  0.00  0.00    +0.040 A 
ATOM     17  C   LIG    1       -3.201   6.973  -5.125  0.00  0.00    +0.000 A 
ATOM     18  C   LIG    1       -2.704   6.584  -3.898  0.00  0.00    +0.080 A 
ENDBRANCH  11  13
ENDBRANCH   7   9
ENDBRANCH   2   3
BRANCH   2  19
ATOM     19  N   LIG    1        3.364   1.810  -0.582  0.00  0.00    -0.610 N 
ATOM     20  C   LIG    1        3.912   0.904  -1.417  0.00  0.00    +0.510 C 
ATOM     21  O   LIG    1        3.617  -0.268  -1.317  0.00  0.00    -0.520 OA
ATOM     22  C   LIG    1        3.720   3.226  -0.703  0.00  0.00    +0.280 C 
BRANCH  20  23
ATOM     23  C   LIG    1        4.890   1.348  -2.473  0.00  0.00    +0.140 C 
BRANCH  23  24
ATOM     24  C   LIG    1        5.351   0.152  -3.266  0.00  0.00    -0.160 A 
ATOM     25  C   LIG    1        6.460  -0.572  -3.048  0.00  0.00    +0.240 A 
ATOM     26  N   LIG    1        6.548  -1.581  -3.968  0.00  0.00    -0.590 N 
ATOM     27  H   LIG    1        7.263  -2.234  -4.012  0.00  0.00    +0.420 HD
ATOM     28  C   LIG    1        5.470  -1.530  -4.822  0.00  0.00    +0.100 A 
ATOM     29  C   LIG    1        5.074  -2.299  -5.911  0.00  0.00    -0.010 A 
ATOM     30  C   LIG    1        3.910  -1.989  -6.581  0.00  0.00    +0.020 A 
ATOM     31  C   LIG    1        3.127  -0.916  -6.180  0.00  0.00    -0.030 A 
ATOM     32  C   LIG    1        3.497  -0.146  -5.113  0.00  0.00    +0.050 A 
ATOM     33  C   LIG    1        4.669  -0.446  -4.416  0.00  0.00    -0.090 A 
ENDBRANCH  23  24
ENDBRANCH  20  23
ENDBRANCH   2  19
TORSDOF 6
