REMARK  Name = ZINCrD000000Ca3M.0
REMARK                            x       y       z     vdW  Elec       q    Type
REMARK                         _______ _______ _______ _____ _____    ______ ____
ROOT
ATOM      1  C   LIG    1        2.378   1.422  -0.023  0.00  0.00    +0.150 A 
ATOM      2  C   LIG    1        1.169   2.098  -0.015  0.00  0.00    +0.020 A 
ATOM      3  C   LIG    1       -0.019   1.391  -0.017  0.00  0.00    +0.040 A 
ATOM      4  C   LIG    1       -0.005   0.008  -0.028  0.00  0.00    +0.000 A 
ATOM      5  C   LIG    1        1.196  -0.675  -0.036  0.00  0.00    +0.040 A 
ATOM      6  C   LIG    1        2.393   0.027  -0.034  0.00  0.00    +0.120 A 
ENDROOT
BRANCH   6   7
ATOM      7  N   LIG    1        3.611  -0.662  -0.043  0.00  0.00    -0.590 N 
ATOM      8  C   LIG    1        4.338  -1.066  -1.249  0.00  0.00    +0.260 C 
ATOM      9  C   LIG    1        5.599  -1.782  -0.738  0.00  0.00    +0.100 C 
ATOM     10  C   LIG    1        5.484  -1.726   0.769  0.00  0.00    -0.170 A 
ATOM     11  C   LIG    1        6.319  -2.204   1.760  0.00  0.00    +0.060 A 
ATOM     12  C   LIG    1        5.990  -2.025   3.091  0.00  0.00    -0.050 A 
ATOM     13  C   LIG    1        4.822  -1.367   3.429  0.00  0.00    +0.040 A 
ATOM     14  C   LIG    1        3.984  -0.889   2.443  0.00  0.00    -0.060 A 
ATOM     15  C   LIG    1        4.312  -1.060   1.097  0.00  0.00    +0.190 A 
ENDBRANCH   6   7
BRANCH   1  18
ATOM     16  O   LIG    1        2.643   3.858   1.018  0.00  0.00    -0.510 OA
ATOM     17  C   LIG    1        3.623   3.388   0.480  0.00  0.00    +0.530 C 
ATOM     18  N   LIG    1        3.583   2.137  -0.020  0.00  0.00    -0.660 N 
ATOM     19  H   LIG    1        4.389   1.732  -0.378  0.00  0.00    +0.410 HD
BRANCH  17  20
ATOM     20  C   LIG    1        4.886   4.203   0.371  0.00  0.00    +0.000 C 
ATOM     21  C   LIG    1        5.226   4.501  -1.108  0.00  0.00    +0.070 C 
ATOM     22  C   LIG    1        5.782   5.908  -1.084  0.00  0.00    +0.520 C 
ATOM     23  N   LIG    1        5.465   6.511   0.074  0.00  0.00    -0.590 N 
ATOM     24  O   LIG    1        6.422   6.417  -1.980  0.00  0.00    -0.520 OA
ATOM     25  C   LIG    1        4.678   5.624   0.940  0.00  0.00    +0.310 C 
BRANCH  23  26
ATOM     26  C   LIG    1        5.856   7.878   0.428  0.00  0.00    +0.210 C 
ATOM     27  C   LIG    1        6.498   8.735  -0.664  0.00  0.00    +0.040 C 
ATOM     28  C   LIG    1        7.352   8.193   0.485  0.00  0.00    +0.000 C 
ENDBRANCH  23  26
ENDBRANCH  17  20
ENDBRANCH   1  18
TORSDOF 4
