REMARK  Name = ZINCkj000005jhk6.0
REMARK                            x       y       z     vdW  Elec       q    Type
REMARK                         _______ _______ _______ _____ _____    ______ ____
ROOT
ATOM      1  N   LIG    1        0.296  -3.202  -0.459  0.00  0.00    -0.500 N 
ATOM      2  H   LIG    1        1.158  -3.712  -0.337  0.00  0.00    +0.430 HD
ATOM      3  H   LIG    1        0.457  -2.410  -1.063  0.00  0.00    +0.420 HD
ENDROOT
BRANCH   1  12
ATOM      4  C   LIG    1        1.242  -5.228  -2.123  0.00  0.00    +0.060 C 
ATOM      5  C   LIG    1       -0.161  -4.669  -2.365  0.00  0.00    +0.010 C 
ATOM      6  C   LIG    1       -0.099  -3.551  -3.413  0.00  0.00    +0.040 C 
ATOM      7  C   LIG    1       -1.526  -3.135  -3.770  0.00  0.00    +0.280 C 
ATOM      8  N   LIG    1       -2.294  -2.858  -2.563  0.00  0.00    -0.690 N 
ATOM      9  H   LIG    1       -3.101  -2.326  -2.649  0.00  0.00    +0.420 HD
ATOM     10  C   LIG    1       -1.958  -3.291  -1.347  0.00  0.00    +0.500 C 
ATOM     11  O   LIG    1       -2.697  -3.032  -0.421  0.00  0.00    -0.510 OA
ATOM     12  C   LIG    1       -0.713  -4.081  -1.063  0.00  0.00    +0.190 C 
ENDBRANCH   1  12
BRANCH   1  13
ATOM     13  C   LIG    1       -0.183  -2.732   0.848  0.00  0.00    +0.320 C 
BRANCH  13  14
ATOM     14  C   LIG    1        0.852  -1.829   1.468  0.00  0.00    -0.160 A 
ATOM     15  C   LIG    1        1.704  -2.324   2.436  0.00  0.00    +0.060 A 
ATOM     16  C   LIG    1        2.654  -1.496   3.005  0.00  0.00    +0.030 A 
ATOM     17  C   LIG    1        2.748  -0.178   2.604  0.00  0.00    +0.060 A 
ATOM     18  C   LIG    1        1.892   0.320   1.633  0.00  0.00    -0.110 A 
ATOM     19  C   LIG    1        2.018   1.766   1.231  0.00  0.00    +0.290 C 
ATOM     20  O   LIG    1        1.333   1.998   0.000  0.00  0.00    -0.370 OA
ATOM     21  C   LIG    1       -0.019   1.526   0.010  0.00  0.00    +0.240 C 
ATOM     22  C   LIG    1        0.002  -0.004   0.002  0.00  0.00    +0.040 C 
ATOM     23  C   LIG    1        0.946  -0.507   1.064  0.00  0.00    -0.050 A 
ENDBRANCH  13  14
ENDBRANCH   1  13
TORSDOF 3
