REMARK  Name = ZINCpe000000TAGf.0
REMARK                            x       y       z     vdW  Elec       q    Type
REMARK                         _______ _______ _______ _____ _____    ______ ____
ROOT
ATOM      1  S   LIG    1        2.717   0.925  -0.019  0.00  0.00    +2.690 S 
ATOM      2  O   LIG    1        2.463  -0.365   0.519  0.00  0.00    -0.950 OA
ATOM      3  O   LIG    1        3.683   1.816   0.520  0.00  0.00    -0.950 OA
ENDROOT
BRANCH   1   4
ATOM      4  C   LIG    1        1.180   1.785   0.003  0.00  0.00    -0.680 A 
ATOM      5  C   LIG    1        1.163   3.167   0.011  0.00  0.00    +0.140 A 
ATOM      6  C   LIG    1       -0.040   3.849   0.028  0.00  0.00    +0.010 A 
ATOM      7  C   LIG    1       -1.230   3.142   0.035  0.00  0.00    +0.120 A 
ATOM      8  O   LIG    1       -2.424   3.802   0.050  0.00  0.00    -0.320 OA
ATOM      9  C   LIG    1       -3.190   3.682   1.250  0.00  0.00    +0.230 C 
ATOM     10  C   LIG    1       -4.021   2.409   1.235  0.00  0.00    +0.000 C 
ATOM     11  C   LIG    1       -3.160   1.155   1.236  0.00  0.00    +0.230 C 
ATOM     12  O   LIG    1       -2.392   1.066   0.035  0.00  0.00    -0.320 OA
ATOM     13  C   LIG    1       -1.214   1.754   0.021  0.00  0.00    +0.050 A 
ATOM     14  C   LIG    1       -0.008   1.075   0.011  0.00  0.00    +0.130 A 
ENDBRANCH   1   4
BRANCH   1  21
ATOM     15  N   LIG    1        2.761  -0.428  -6.214  0.00  0.00    -0.750 N 
ATOM     16  H   LIG    1        2.231  -1.097  -5.752  0.00  0.00    +0.400 HD
ATOM     17  C   LIG    1        3.075   0.728  -5.596  0.00  0.00    +0.710 C 
ATOM     18  N   LIG    1        2.740   0.914  -4.304  0.00  0.00    -0.630 N 
ATOM     19  C   LIG    1        3.172   2.122  -3.587  0.00  0.00    +0.290 C 
ATOM     20  C   LIG    1        3.931   1.697  -2.324  0.00  0.00    +0.290 C 
ATOM     21  N   LIG    1        3.128   0.696  -1.607  0.00  0.00    -1.000 NA
ATOM     22  C   LIG    1        2.701  -0.514  -2.323  0.00  0.00    +0.300 C 
ATOM     23  C   LIG    1        1.937  -0.086  -3.587  0.00  0.00    +0.270 C 
ATOM     24  O   LIG    1        3.659   1.603  -6.205  0.00  0.00    -0.590 OA
BRANCH  15  26
ATOM     25  C   LIG    1        2.731  -2.051  -8.044  0.00  0.00    +0.030 C 
ATOM     26  C   LIG    1        3.220  -0.676  -7.582  0.00  0.00    +0.270 C 
ENDBRANCH  15  26
ENDBRANCH   1  21
TORSDOF 3
