REMARK  Name = ZINCkj000005g0nQ.0
REMARK                            x       y       z     vdW  Elec       q    Type
REMARK                         _______ _______ _______ _____ _____    ______ ____
ROOT
ATOM      1  N   LIG    1        0.024  -0.503   1.581  0.00  0.00    -0.990 NA
ATOM      2  C   LIG    1       -1.235  -0.741   2.292  0.00  0.00    +0.310 C 
ENDROOT
BRANCH   1   6
ATOM      3  N   LIG    1        2.711  -1.454   4.686  0.00  0.00    -0.390 N 
ATOM      4  C   LIG    1        2.683  -0.055   4.242  0.00  0.00    +0.270 C 
ATOM      5  C   LIG    1        1.382   0.219   3.486  0.00  0.00    +0.050 C 
ATOM      6  C   LIG    1        1.302  -0.706   2.267  0.00  0.00    +0.250 C 
ATOM      7  C   LIG    1        1.407  -2.161   2.734  0.00  0.00    +0.060 C 
ATOM      8  C   LIG    1        2.707  -2.346   3.520  0.00  0.00    +0.260 C 
ATOM      9  H   LIG    1        1.899  -1.641   5.254  0.00  0.00    +0.420 HD
BRANCH   3  11
ATOM     10  C   LIG    1        3.895  -3.112   6.043  0.00  0.00    +0.080 C 
ATOM     11  C   LIG    1        3.926  -1.692   5.476  0.00  0.00    +0.250 C 
ENDBRANCH   3  11
ENDBRANCH   1   6
BRANCH   1  12
ATOM     12  S   LIG    1        0.002  -0.004   0.002  0.00  0.00    +2.720 S 
ATOM     13  O   LIG    1        1.252  -0.385  -0.556  0.00  0.00    -0.940 OA
ATOM     14  O   LIG    1       -1.247  -0.419  -0.533  0.00  0.00    -0.930 OA
BRANCH  12  15
ATOM     15  C   LIG    1       -0.022   1.758   0.012  0.00  0.00    -0.800 A 
ATOM     16  C   LIG    1        1.034   2.606   0.006  0.00  0.00    +0.110 A 
ATOM     17  O   LIG    1        0.525   3.846   0.017  0.00  0.00    +0.110 OA
ATOM     18  N   LIG    1       -0.684   3.830   0.028  0.00  0.00    -0.350 NA
ATOM     19  C   LIG    1        2.493   2.231  -0.009  0.00  0.00    +0.220 C 
ATOM     20  C   LIG    1       -1.147   2.613   0.021  0.00  0.00    +0.110 A 
ATOM     21  C   LIG    1       -2.596   2.199   0.025  0.00  0.00    +0.180 C 
ENDBRANCH  12  15
ENDBRANCH   1  12
TORSDOF 4
