REMARK  Name = ZINCnE000001LQjH.0
REMARK                            x       y       z     vdW  Elec       q    Type
REMARK                         _______ _______ _______ _____ _____    ______ ____
ROOT
ATOM      1  S   LIG    1       -4.163   2.810   0.130  0.00  0.00    +2.600 S 
ATOM      2  O   LIG    1       -4.197   2.299   1.455  0.00  0.00    -1.030 OA
ATOM      3  O   LIG    1       -4.490   2.031  -1.013  0.00  0.00    -1.030 OA
ENDROOT
BRANCH   1   4
ATOM      4  C   LIG    1       -5.241   4.204   0.107  0.00  0.00    -0.620 A 
ATOM      5  C   LIG    1       -5.681   4.757   1.295  0.00  0.00    +0.020 A 
ATOM      6  C   LIG    1       -6.523   5.853   1.277  0.00  0.00    -0.130 A 
ATOM      7  C   LIG    1       -6.934   6.390   0.071  0.00  0.00    -0.040 A 
ATOM      8  C   LIG    1       -6.498   5.833  -1.117  0.00  0.00    -0.130 A 
ATOM      9  C   LIG    1       -6.946   6.418  -2.432  0.00  0.00    +0.100 C 
ATOM     10  C   LIG    1       -7.856   7.582   0.051  0.00  0.00    +0.090 C 
ATOM     11  C   LIG    1       -6.998   6.460   2.572  0.00  0.00    +0.090 C 
ATOM     12  C   LIG    1       -5.238   4.169   2.610  0.00  0.00    +0.110 C 
ATOM     13  C   LIG    1       -5.652   4.740  -1.099  0.00  0.00    +0.020 A 
ATOM     14  C   LIG    1       -5.178   4.133  -2.394  0.00  0.00    +0.100 C 
ENDBRANCH   1   4
BRANCH   1  15
ATOM     15  N   LIG    1       -2.626   3.376  -0.115  0.00  0.00    -1.070 NA
BRANCH  15  21
ATOM     16  C   LIG    1       -0.249   2.948  -0.352  0.00  0.00    +0.260 A 
ATOM     17  N   LIG    1        0.768   2.106  -0.381  0.00  0.00    -0.510 NA
ATOM     18  C   LIG    1        0.599   0.806  -0.220  0.00  0.00    +0.150 A 
ATOM     19  C   LIG    1       -0.657   0.274  -0.012  0.00  0.00    -0.030 A 
ATOM     20  C   LIG    1       -1.757   1.120   0.021  0.00  0.00    -0.110 A 
ATOM     21  C   LIG    1       -1.549   2.483  -0.146  0.00  0.00    +0.240 A 
BRANCH  16  23
ATOM     22  C   LIG    1        1.324   4.688  -0.729  0.00  0.00    +0.210 C 
ATOM     23  O   LIG    1       -0.028   4.277  -0.523  0.00  0.00    -0.290 OA
ENDBRANCH  16  23
ENDBRANCH  15  21
ENDBRANCH   1  15
TORSDOF 4
