REMARK  Name = ZINCrD0000075HXs.0
REMARK                            x       y       z     vdW  Elec       q    Type
REMARK                         _______ _______ _______ _____ _____    ______ ____
ROOT
ATOM      1  O   LIG    1        1.130   2.873   0.007  0.00  0.00    -0.490 OA
ATOM      2  C   LIG    1        1.147   1.655   0.000  0.00  0.00    +0.600 C 
ATOM      3  N   LIG    1       -0.011   0.966   0.007  0.00  0.00    -0.720 N 
ATOM      4  H   LIG    1        0.002  -0.004   0.002  0.00  0.00    +0.400 HD
ENDROOT
BRANCH   2   5
ATOM      5  C   LIG    1        2.424   0.941  -0.016  0.00  0.00    -0.080 A 
ATOM      6  C   LIG    1        3.686   1.519  -0.031  0.00  0.00    -0.040 A 
ATOM      7  C   LIG    1        4.610   0.448  -0.041  0.00  0.00    -0.050 A 
ATOM      8  C   LIG    1        3.894  -0.694  -0.040  0.00  0.00    +0.210 A 
ATOM      9  O   LIG    1        2.587  -0.398  -0.025  0.00  0.00    -0.160 OA
BRANCH   6  10
ATOM     10  C   LIG    1        4.002   2.966  -0.032  0.00  0.00    -0.040 A 
ATOM     11  C   LIG    1        3.386   3.816  -0.951  0.00  0.00    +0.060 A 
ATOM     12  C   LIG    1        3.680   5.164  -0.944  0.00  0.00    +0.000 A 
ATOM     13  C   LIG    1        4.592   5.672  -0.035  0.00  0.00    +0.010 A 
ATOM     14  C   LIG    1        5.210   4.833   0.875  0.00  0.00    -0.010 A 
ATOM     15  C   LIG    1        4.920   3.484   0.881  0.00  0.00    +0.020 A 
ENDBRANCH   6  10
ENDBRANCH   2   5
BRANCH   3  16
ATOM     16  C   LIG    1       -1.290   1.681   0.017  0.00  0.00    +0.260 C 
ATOM     17  C   LIG    1       -2.402   0.795   0.631  0.00  0.00    +0.050 C 
ATOM     18  C   LIG    1       -3.693   1.400   0.027  0.00  0.00    +0.000 C 
ATOM     19  C   LIG    1       -3.299   1.769  -1.418  0.00  0.00    +0.000 C 
ATOM     20  C   LIG    1       -1.770   1.948  -1.424  0.00  0.00    +0.150 C 
BRANCH  20  21
ATOM     21  O   LIG    1       -1.435   3.281  -1.813  0.00  0.00    -0.550 OA
ATOM     22  H   LIG    1       -1.711   3.510  -2.711  0.00  0.00    +0.380 HD
ENDBRANCH  20  21
BRANCH  18  23
ATOM     23  C   LIG    1       -4.820   0.365   0.027  0.00  0.00    +0.330 C 
BRANCH  23  24
ATOM     24  N   LIG    1       -6.060   0.994  -0.436  0.00  0.00    -0.360 N 
ATOM     25  C   LIG    1       -6.829   0.573  -1.463  0.00  0.00    +0.250 A 
ATOM     26  C   LIG    1       -7.881   1.418  -1.565  0.00  0.00    -0.190 A 
ATOM     27  C   LIG    1       -7.745   2.395  -0.572  0.00  0.00    +0.250 A 
ATOM     28 CL   LIG    1       -9.167   1.315  -2.727  0.00  0.00    -0.040 Cl
ATOM     29  N   LIG    1       -6.654   2.141   0.105  0.00  0.00    -0.280 NA
ENDBRANCH  23  24
ENDBRANCH  18  23
ENDBRANCH   3  16
TORSDOF 6
