REMARK  Name = ZINCpk00000B83tp.0
REMARK                            x       y       z     vdW  Elec       q    Type
REMARK                         _______ _______ _______ _____ _____    ______ ____
ROOT
ATOM      1  C   LIG    1       -4.300   1.297   0.107  0.00  0.00    +0.120 A 
ATOM      2  C   LIG    1       -4.769   0.197   0.813  0.00  0.00    +0.110 A 
ATOM      3  C   LIG    1       -6.103  -0.148   0.756  0.00  0.00    +0.000 A 
ATOM      4  C   LIG    1       -6.989   0.597  -0.019  0.00  0.00    +0.220 A 
ATOM      5  N   LIG    1       -8.331   0.231  -0.062  0.00  0.00    -0.660 N 
ATOM      6  H   LIG    1       -8.659  -0.309   0.673  0.00  0.00    +0.420 HD
ATOM      7  C   LIG    1       -9.208   0.546  -1.011  0.00  0.00    +0.540 C 
ATOM      8  C   LIG    1       -8.868   1.387  -2.212  0.00  0.00    -0.270 C 
ATOM      9  S   LIG    1       -7.631   2.627  -1.722  0.00  0.00    +2.510 S 
ATOM     10  O   LIG    1       -6.859   3.038  -2.842  0.00  0.00    -0.910 OA
ATOM     11  O   LIG    1       -8.195   3.575  -0.826  0.00  0.00    -0.910 OA
ATOM     12  O   LIG    1      -10.343   0.133  -0.903  0.00  0.00    -0.490 OA
ATOM     13  C   LIG    1       -6.509   1.691  -0.730  0.00  0.00    -0.660 A 
ATOM     14  C   LIG    1       -5.179   2.042  -0.669  0.00  0.00    +0.140 A 
ENDROOT
BRANCH   1  16
ATOM     15  C   LIG    1       -2.250   1.445   1.309  0.00  0.00    +0.540 C 
ATOM     16  N   LIG    1       -2.946   1.650   0.173  0.00  0.00    -0.650 N 
ATOM     17  H   LIG    1       -2.509   2.042  -0.600  0.00  0.00    +0.420 HD
ATOM     18  O   LIG    1       -2.818   1.047   2.304  0.00  0.00    -0.500 OA
BRANCH  15  19
ATOM     19  C   LIG    1       -0.767   1.710   1.342  0.00  0.00    -0.100 C 
ATOM     20  C   LIG    1       -0.411   3.194   1.527  0.00  0.00    +0.080 C 
ATOM     21  C   LIG    1       -0.450   2.932   3.044  0.00  0.00    +0.260 C 
ATOM     22  F   LIG    1        0.563   3.583   3.755  0.00  0.00    -0.180 F 
ATOM     23  F   LIG    1       -1.716   3.116   3.610  0.00  0.00    -0.170 F 
ATOM     24  C   LIG    1       -0.129   1.463   2.719  0.00  0.00    +0.100 C 
BRANCH  19  25
ATOM     25  C   LIG    1       -0.018   1.039   0.190  0.00  0.00    +0.220 C 
BRANCH  25  27
ATOM     26  C   LIG    1       -0.039   0.772  -2.192  0.00  0.00    +0.220 C 
ATOM     27  O   LIG    1       -0.663   1.353  -1.046  0.00  0.00    -0.400 OA
ENDBRANCH  25  27
ENDBRANCH  19  25
ENDBRANCH  15  19
ENDBRANCH   1  16
TORSDOF 4
