REMARK  Name = ZINCnE000001RzKp.0
REMARK                            x       y       z     vdW  Elec       q    Type
REMARK                         _______ _______ _______ _____ _____    ______ ____
ROOT
ATOM      1  C   LIG    1        0.104  -3.917   3.280  0.00  0.00    -0.040 A 
ATOM      2  C   LIG    1       -0.556  -3.885   2.066  0.00  0.00    +0.010 A 
ATOM      3  C   LIG    1       -0.006  -3.204   0.997  0.00  0.00    +0.030 A 
ATOM      4  C   LIG    1        1.206  -2.554   1.141  0.00  0.00    -0.130 A 
ATOM      5  C   LIG    1        1.869  -2.590   2.353  0.00  0.00    +0.010 A 
ATOM      6  C   LIG    1        1.316  -3.267   3.424  0.00  0.00    +0.010 A 
ENDROOT
BRANCH   1   7
ATOM      7  C   LIG    1       -0.495  -4.660   4.446  0.00  0.00    +0.230 C 
BRANCH   7  12
ATOM      8  C   LIG    1        2.228  -7.750   7.125  0.00  0.00    -0.170 A 
ATOM      9  N   LIG    1        1.964  -6.515   7.381  0.00  0.00    -0.190 NA
ATOM     10  N   LIG    1        1.175  -5.808   6.502  0.00  0.00    -0.490 NA
ATOM     11  C   LIG    1        0.730  -6.493   5.406  0.00  0.00    +0.330 A 
ATOM     12  N   LIG    1       -0.028  -6.048   4.433  0.00  0.00    -0.610 NA
ATOM     13  S   LIG    1        1.401  -8.123   5.602  0.00  0.00    -0.090 S 
BRANCH   8  15
ATOM     14  F   LIG    1        3.537  -8.014   9.087  0.00  0.00    -0.170 F 
ATOM     15  C   LIG    1        3.066  -8.688   7.955  0.00  0.00    +0.580 C 
ATOM     16  F   LIG    1        4.151  -9.140   7.196  0.00  0.00    -0.180 F 
ATOM     17  F   LIG    1        2.287  -9.780   8.352  0.00  0.00    -0.180 F 
ENDBRANCH   8  15
ENDBRANCH   7  12
ENDBRANCH   1   7
BRANCH   4  18
ATOM     18  C   LIG    1        1.806  -1.812  -0.025  0.00  0.00    +0.370 C 
BRANCH  18  19
ATOM     19  N   LIG    1        1.339  -0.424  -0.013  0.00  0.00    -0.360 N 
ATOM     20  C   LIG    1        2.119   0.677  -0.015  0.00  0.00    +0.220 A 
ATOM     21  C   LIG    1        1.307   1.759  -0.001  0.00  0.00    -0.140 A 
ATOM     22  C   LIG    1       -0.016   1.304   0.009  0.00  0.00    +0.220 A 
ATOM     23  N   LIG    1        0.002  -0.004   0.002  0.00  0.00    -0.280 NA
ENDBRANCH  18  19
ENDBRANCH   4  18
TORSDOF 5
