REMARK  Name = ZINCrD00000758qn.0
REMARK                            x       y       z     vdW  Elec       q    Type
REMARK                         _______ _______ _______ _____ _____    ______ ____
ROOT
ATOM      1  N   LIG    1        2.007   4.081  -3.866  0.00  0.00    -0.530 NA
ATOM      2  C   LIG    1        2.915   4.590  -2.831  0.00  0.00    +0.190 C 
ATOM      3  C   LIG    1        2.095   5.149  -1.663  0.00  0.00    +0.090 C 
ATOM      4  C   LIG    1        1.149   4.054  -1.161  0.00  0.00    -0.090 C 
ATOM      5  C   LIG    1        0.524   4.230   0.222  0.00  0.00    +0.110 C 
ATOM      6  C   LIG    1        0.299   3.392  -2.250  0.00  0.00    +0.080 C 
ATOM      7  C   LIG    1        1.620   3.184   0.003  0.00  0.00    +0.050 C 
ATOM      8  C   LIG    1        1.226   2.936  -3.383  0.00  0.00    +0.170 C 
ENDROOT
BRANCH   7   9
ATOM      9  C   LIG    1        1.207   1.735  -0.000  0.00  0.00    +0.210 A 
ATOM     10  N   LIG    1       -0.015   1.282   0.009  0.00  0.00    -0.280 NA
ATOM     11  N   LIG    1        0.002  -0.004   0.002  0.00  0.00    -0.260 NA
ATOM     12  C   LIG    1        1.247  -0.420  -0.012  0.00  0.00    +0.200 A 
ATOM     13  O   LIG    1        2.034   0.675  -0.014  0.00  0.00    -0.220 OA
BRANCH  12  14
ATOM     14  C   LIG    1        1.701  -1.827  -0.024  0.00  0.00    +0.000 A 
ATOM     15  C   LIG    1        0.768  -2.864  -0.021  0.00  0.00    +0.070 A 
ATOM     16  C   LIG    1        1.198  -4.176  -0.033  0.00  0.00    +0.060 A 
ATOM     17  C   LIG    1        2.550  -4.464  -0.049  0.00  0.00    +0.020 A 
ATOM     18  C   LIG    1        3.483  -3.439  -0.052  0.00  0.00    +0.100 A 
ATOM     19  F   LIG    1        4.803  -3.728  -0.067  0.00  0.00    -0.130 F 
ATOM     20  C   LIG    1        3.065  -2.122  -0.045  0.00  0.00    +0.020 A 
ENDBRANCH  12  14
ENDBRANCH   7   9
BRANCH   1  21
ATOM     21  C   LIG    1        2.744   3.736  -5.090  0.00  0.00    +0.350 C 
BRANCH  21  26
ATOM     22  C   LIG    1       -0.555   2.576  -8.674  0.00  0.00    +0.210 C 
ATOM     23  C   LIG    1        0.440   2.491  -7.545  0.00  0.00    +0.170 A 
ATOM     24  N   LIG    1        0.850   1.405  -6.961  0.00  0.00    -0.380 NA
ATOM     25  O   LIG    1        1.654   1.672  -6.094  0.00  0.00    +0.070 OA
ATOM     26  C   LIG    1        1.832   2.996  -6.033  0.00  0.00    +0.180 A 
ATOM     27  N   LIG    1        1.066   3.526  -6.956  0.00  0.00    -0.460 NA
ENDBRANCH  21  26
ENDBRANCH   1  21
TORSDOF 4
