REMARK  Name = ZINCAx0000000c43.0
REMARK                            x       y       z     vdW  Elec       q    Type
REMARK                         _______ _______ _______ _____ _____    ______ ____
ROOT
ATOM      1  C   LIG    1        0.852  -1.192   2.846  0.00  0.00    +0.210 C 
ENDROOT
BRANCH   1   2
ATOM      2  C   LIG    1        2.012  -0.467   2.160  0.00  0.00    +0.020 C 
ATOM      3  C   LIG    1        2.407   0.903   2.704  0.00  0.00    -0.110 C 
ATOM      4  C   LIG    1        1.944   1.583   3.998  0.00  0.00    +0.070 C 
ATOM      5  C   LIG    1        3.400   1.466   4.482  0.00  0.00    +0.010 C 
ATOM      6  C   LIG    1        3.812   1.440   3.000  0.00  0.00    +0.040 C 
ATOM      7  C   LIG    1        1.687   0.797   1.370  0.00  0.00    -0.140 C 
ATOM      8  C   LIG    1        2.179   1.200  -0.024  0.00  0.00    +0.060 C 
ATOM      9  C   LIG    1        0.716   1.072  -0.486  0.00  0.00    +0.010 C 
ATOM     10  C   LIG    1        0.310   1.343   0.973  0.00  0.00    +0.050 C 
ENDBRANCH   1   2
BRANCH   1  11
ATOM     11  N   LIG    1        1.223  -1.511   4.231  0.00  0.00    -0.500 NA
ATOM     12  C   LIG    1        2.400  -2.390   4.271  0.00  0.00    +0.180 C 
ATOM     13  C   LIG    1        2.863  -2.551   5.723  0.00  0.00    +0.270 C 
ATOM     14  N   LIG    1        1.720  -3.004   6.531  0.00  0.00    -0.610 N 
ATOM     15  C   LIG    1        0.460  -2.251   6.437  0.00  0.00    +0.300 C 
ATOM     16  C   LIG    1        1.825  -4.080   7.335  0.00  0.00    +0.520 C 
ATOM     17  O   LIG    1        0.872  -4.440   7.994  0.00  0.00    -0.520 OA
ATOM     18  C   LIG    1        0.091  -2.102   4.957  0.00  0.00    +0.170 C 
BRANCH  16  19
ATOM     19  C   LIG    1        3.125  -4.837   7.416  0.00  0.00    +0.200 C 
BRANCH  19  20
ATOM     20  O   LIG    1        2.986  -5.928   8.328  0.00  0.00    -0.350 OA
BRANCH  20  21
ATOM     21  C   LIG    1        4.169  -6.714   8.479  0.00  0.00    +0.130 C 
ATOM     22  C   LIG    1        3.809  -8.159   8.903  0.00  0.00    +0.030 C 
ATOM     23  C   LIG    1        4.909  -8.474   9.950  0.00  0.00    +0.210 C 
ATOM     24  O   LIG    1        5.088  -7.218  10.638  0.00  0.00    -0.370 OA
ATOM     25  C   LIG    1        5.026  -6.181   9.644  0.00  0.00    +0.180 C 
ENDBRANCH  20  21
ENDBRANCH  19  20
ENDBRANCH  16  19
ENDBRANCH   1  11
BRANCH   1  27
ATOM     26  O   LIG    1        0.717  -3.539   2.641  0.00  0.00    -0.530 OA
ATOM     27  C   LIG    1        0.546  -2.467   2.102  0.00  0.00    +0.490 C 
ATOM     28  N   LIG    1        0.084  -2.414   0.837  0.00  0.00    -0.720 N 
ATOM     29  H   LIG    1        0.016  -1.561   0.380  0.00  0.00    +0.400 HD
BRANCH  28  30
ATOM     30  C   LIG    1       -0.317  -3.646   0.152  0.00  0.00    +0.320 C 
BRANCH  30  31
ATOM     31  C   LIG    1       -0.793  -3.314  -1.239  0.00  0.00    -0.120 A 
ATOM     32  C   LIG    1       -2.129  -3.035  -1.464  0.00  0.00    +0.060 A 
ATOM     33  C   LIG    1       -2.566  -2.726  -2.738  0.00  0.00    -0.010 A 
ATOM     34  C   LIG    1       -1.667  -2.707  -3.791  0.00  0.00    +0.110 A 
ATOM     35  C   LIG    1       -0.331  -2.992  -3.566  0.00  0.00    -0.010 A 
ATOM     36  F   LIG    1       -2.095  -2.411  -5.038  0.00  0.00    -0.140 F 
ATOM     37  C   LIG    1        0.104  -3.296  -2.290  0.00  0.00    +0.060 A 
ENDBRANCH  30  31
ENDBRANCH  28  30
ENDBRANCH   1  27
TORSDOF 8
