REMARK  Name = ZINCvU0000000Hx5.0
REMARK                            x       y       z     vdW  Elec       q    Type
REMARK                         _______ _______ _______ _____ _____    ______ ____
ROOT
ATOM      1  C   LIG    1        1.280  -2.171   0.311  0.00  0.00    +0.500 C 
ATOM      2  O   LIG    1        2.350  -2.747   0.294  0.00  0.00    -0.460 OA
ENDROOT
BRANCH   1   8
ATOM      3  C   LIG    1        2.414   0.028  -0.014  0.00  0.00    -0.100 A 
ATOM      4  C   LIG    1        2.352   1.408  -0.160  0.00  0.00    +0.080 A 
ATOM      5  C   LIG    1        1.131   2.051  -0.139  0.00  0.00    +0.050 A 
ATOM      6  C   LIG    1       -0.040   1.329   0.028  0.00  0.00    +0.040 A 
ATOM      7  C   LIG    1        0.001  -0.041   0.174  0.00  0.00    +0.080 A 
ATOM      8  C   LIG    1        1.229  -0.707   0.155  0.00  0.00    -0.090 A 
BRANCH   3   9
ATOM      9  S   LIG    1        3.971  -0.796  -0.040  0.00  0.00    +0.060 S 
BRANCH   9  15
ATOM     10  C   LIG    1        5.084  -2.337  -2.028  0.00  0.00    -0.010 A 
ATOM     11  C   LIG    1        5.110  -2.888  -3.312  0.00  0.00    +0.090 A 
ATOM     12  C   LIG    1        4.106  -2.590  -4.208  0.00  0.00    +0.010 A 
ATOM     13  C   LIG    1        3.065  -1.752  -3.841  0.00  0.00    +0.060 A 
ATOM     14  C   LIG    1        3.022  -1.205  -2.575  0.00  0.00    -0.010 A 
ATOM     15  C   LIG    1        4.024  -1.493  -1.657  0.00  0.00    -0.040 A 
BRANCH  10  17
ATOM     16  N   LIG    1        6.954  -2.875  -0.353  0.00  0.00    -0.400 NA
ATOM     17  C   LIG    1        6.127  -2.637  -1.094  0.00  0.00    +0.250 C 
ENDBRANCH  10  17
ENDBRANCH   9  15
ENDBRANCH   3   9
ENDBRANCH   1   8
BRANCH   1  18
ATOM     18  O   LIG    1        0.140  -2.872   0.472  0.00  0.00    -0.350 OA
BRANCH  18  19
ATOM     19  C   LIG    1        0.266  -4.311   0.619  0.00  0.00    +0.320 C 
BRANCH  19  20
ATOM     20  C   LIG    1       -1.102  -4.920   0.788  0.00  0.00    +0.010 A 
ATOM     21  C   LIG    1       -2.215  -4.144   0.792  0.00  0.00    -0.040 A 
ATOM     22  C   LIG    1       -3.486  -4.740   0.946  0.00  0.00    +0.510 A 
ATOM     23  O   LIG    1       -3.628  -6.066   1.102  0.00  0.00    -0.270 OA
ATOM     24  C   LIG    1       -2.561  -6.893   1.112  0.00  0.00    +0.160 A 
ATOM     25  C   LIG    1       -2.725  -8.262   1.273  0.00  0.00    +0.060 A 
ATOM     26  C   LIG    1       -1.620  -9.089   1.280  0.00  0.00    -0.040 A 
ATOM     27  C   LIG    1       -0.343  -8.566   1.128  0.00  0.00    +0.040 A 
ATOM     28  C   LIG    1       -0.160  -7.222   0.967  0.00  0.00    +0.100 A 
ATOM     29 BR   LIG    1       -1.848 -10.954   1.500  0.00  0.00    -0.020 Br
ATOM     30  O   LIG    1       -4.477  -4.033   0.943  0.00  0.00    -0.450 OA
ATOM     31  C   LIG    1       -1.266  -6.367   0.958  0.00  0.00    -0.130 A 
ENDBRANCH  19  20
ENDBRANCH  18  19
ENDBRANCH   1  18
TORSDOF 7
