REMARK  Name = ZINCpk00000xKxEX.0
REMARK                            x       y       z     vdW  Elec       q    Type
REMARK                         _______ _______ _______ _____ _____    ______ ____
ROOT
ATOM      1  C   LIG    1       -0.481   1.364   0.919  0.00  0.00    +0.190 A 
ATOM      2  N   LIG    1        0.711   1.874   1.098  0.00  0.00    -0.290 NA
ATOM      3  N   LIG    1        1.603   0.953   0.960  0.00  0.00    -0.280 NA
ATOM      4  C   LIG    1        1.021  -0.174   0.689  0.00  0.00    +0.160 A 
ATOM      5  C   LIG    1        1.650  -1.523   0.433  0.00  0.00    +0.460 C 
ATOM      6  N   LIG    1        0.557  -2.514   0.431  0.00  0.00    -0.610 N 
ATOM      7  C   LIG    1       -0.686  -2.172  -0.278  0.00  0.00    +0.310 C 
ATOM      8  C   LIG    1       -1.338  -0.962   0.400  0.00  0.00    +0.300 C 
ATOM      9  C   LIG    1        0.694  -3.698   1.060  0.00  0.00    +0.590 C 
ATOM     10  O   LIG    1       -0.257  -4.450   1.151  0.00  0.00    -0.520 OA
ATOM     11  N   LIG    1       -0.317   0.052   0.660  0.00  0.00    -0.470 N 
ENDROOT
BRANCH   9  12
ATOM     12  C   LIG    1        1.999  -4.082   1.638  0.00  0.00    -0.010 A 
ATOM     13  C   LIG    1        2.107  -5.235   2.425  0.00  0.00    +0.130 A 
ATOM     14  C   LIG    1        3.349  -5.553   2.944  0.00  0.00    +0.030 A 
ATOM     15  C   LIG    1        4.418  -4.706   2.652  0.00  0.00    +0.270 A 
ATOM     16  N   LIG    1        4.224  -3.631   1.895  0.00  0.00    -0.280 NA
ATOM     17  N   LIG    1        3.074  -3.337   1.409  0.00  0.00    -0.180 NA
BRANCH  15  18
ATOM     18  N   LIG    1        5.680  -4.986   3.149  0.00  0.00    -0.460 N 
ATOM     19  C   LIG    1        6.187  -6.278   2.621  0.00  0.00    +0.200 C 
ATOM     20  C   LIG    1        7.719  -6.169   2.827  0.00  0.00    +0.040 C 
ATOM     21  C   LIG    1        8.005  -4.682   2.517  0.00  0.00    +0.020 C 
ATOM     22  C   LIG    1        6.658  -3.963   2.719  0.00  0.00    +0.210 C 
ENDBRANCH  15  18
ENDBRANCH   9  12
BRANCH   1  24
ATOM     23  C   LIG    1       -1.961   2.717   2.378  0.00  0.00    +0.050 C 
ATOM     24  C   LIG    1       -1.791   2.107   0.986  0.00  0.00    +0.070 C 
ATOM     25  C   LIG    1       -1.799   3.220  -0.064  0.00  0.00    +0.050 C 
ENDBRANCH   1  24
TORSDOF 3
