REMARK  Name = ZINCqH0000051yBH.0
REMARK                            x       y       z     vdW  Elec       q    Type
REMARK                         _______ _______ _______ _____ _____    ______ ____
ROOT
ATOM      1  C   LIG    1       -1.227   3.147   0.030  0.00  0.00    -0.130 A 
ATOM      2  C   LIG    1       -1.214   1.749  -0.014  0.00  0.00    +0.160 A 
ATOM      3  C   LIG    1       -0.013   1.076  -0.023  0.00  0.00    -0.010 A 
ATOM      4  C   LIG    1        1.183   1.789   0.000  0.00  0.00    +0.200 A 
ATOM      5  C   LIG    1        1.167   3.181   0.039  0.00  0.00    -0.040 A 
ATOM      6  C   LIG    1       -0.021   3.854   0.054  0.00  0.00    +0.180 A 
ENDROOT
BRANCH   4   7
ATOM      7  N   LIG    1        2.396   1.109  -0.015  0.00  0.00    -0.510 N 
ATOM      8  C   LIG    1        2.547   0.323  -1.260  0.00  0.00    +0.190 C 
ATOM      9  C   LIG    1        3.705  -0.635  -1.208  0.00  0.00    +0.040 C 
ATOM     10  C   LIG    1        3.184  -2.008  -0.735  0.00  0.00    +0.010 C 
ATOM     11  C   LIG    1        2.979  -2.052   0.709  0.00  0.00    +0.010 C 
ATOM     12  C   LIG    1        1.932  -1.021   1.180  0.00  0.00    -0.010 C 
ATOM     13  C   LIG    1        2.585   0.333   1.231  0.00  0.00    +0.240 C 
ENDBRANCH   4   7
BRANCH   5  14
ATOM     14  N   LIG    1        2.442   3.933   0.064  0.00  0.00    +0.030 N 
ATOM     15  O   LIG    1        3.503   3.334   0.050  0.00  0.00    -0.090 OA
ATOM     16  O   LIG    1        2.430   5.150   0.098  0.00  0.00    -0.190 OA
ENDBRANCH   5  14
BRANCH   1  18
ATOM     17  O   LIG    1       -2.519   5.088   0.079  0.00  0.00    -0.490 OA
ATOM     18  C   LIG    1       -2.509   3.873   0.046  0.00  0.00    +0.510 C 
BRANCH  18  19
ATOM     19  O   LIG    1       -3.671   3.190   0.023  0.00  0.00    -0.350 OA
BRANCH  19  20
ATOM     20  C   LIG    1       -4.895   3.971   0.040  0.00  0.00    +0.300 C 
BRANCH  20  21
ATOM     21  C   LIG    1       -6.082   3.043   0.010  0.00  0.00    -0.160 A 
ATOM     22  C   LIG    1       -6.635   2.649  -1.199  0.00  0.00    +0.090 A 
ATOM     23  C   LIG    1       -7.723   1.790  -1.179  0.00  0.00    -0.030 A 
ATOM     24  C   LIG    1       -8.225   1.368   0.038  0.00  0.00    +0.270 A 
ATOM     25  N   LIG    1       -7.678   1.768   1.169  0.00  0.00    -0.480 NA
ATOM     26  C   LIG    1       -6.638   2.580   1.187  0.00  0.00    +0.290 A 
ENDBRANCH  20  21
ENDBRANCH  19  20
ENDBRANCH  18  19
ENDBRANCH   1  18
TORSDOF 6
