REMARK  Name = ZINCrH00000No4FR.0
REMARK                            x       y       z     vdW  Elec       q    Type
REMARK                         _______ _______ _______ _____ _____    ______ ____
ROOT
ATOM      1  N   LIG    1       -2.552   4.085   0.067  0.00  0.00    -0.560 N 
ATOM      2  C   LIG    1       -1.291   3.773  -0.293  0.00  0.00    +0.550 C 
ATOM      3  O   LIG    1       -0.442   4.642  -0.349  0.00  0.00    -0.520 OA
ENDROOT
BRANCH   1   4
ATOM      4  C   LIG    1       -2.904   5.420   0.292  0.00  0.00    +0.140 A 
ATOM      5  C   LIG    1       -3.769   6.069  -0.579  0.00  0.00    +0.020 A 
ATOM      6  C   LIG    1       -4.113   7.386  -0.351  0.00  0.00    +0.040 A 
ATOM      7  C   LIG    1       -3.600   8.063   0.743  0.00  0.00    -0.090 A 
ATOM      8  C   LIG    1       -3.821   9.488   1.204  0.00  0.00    +0.060 C 
ATOM      9  C   LIG    1       -3.356   9.514   2.675  0.00  0.00    +0.170 C 
ATOM     10  C   LIG    1       -2.322   8.368   2.716  0.00  0.00    +0.100 C 
ATOM     11  C   LIG    1       -2.739   7.419   1.613  0.00  0.00    -0.080 A 
ATOM     12  C   LIG    1       -2.395   6.098   1.392  0.00  0.00    +0.040 A 
BRANCH   9  13
ATOM     13  O   LIG    1       -2.741  10.764   2.993  0.00  0.00    -0.380 OA
ATOM     14  C   LIG    1       -3.645  11.742   3.510  0.00  0.00    +0.200 C 
ENDBRANCH   9  13
ENDBRANCH   1   4
BRANCH   2  15
ATOM     15  C   LIG    1       -0.942   2.381  -0.618  0.00  0.00    -0.090 C 
ATOM     16  C   LIG    1        0.274   2.089  -1.069  0.00  0.00    +0.150 C 
ENDBRANCH   2  15
BRANCH   1  17
ATOM     17  C   LIG    1       -3.553   3.027   0.221  0.00  0.00    +0.360 C 
BRANCH  17  21
ATOM     18  C   LIG    1       -3.638   1.728   4.298  0.00  0.00    +0.080 A 
ATOM     19  C   LIG    1       -4.345   2.868   3.911  0.00  0.00    +0.010 A 
ATOM     20  C   LIG    1       -4.314   3.282   2.593  0.00  0.00    +0.160 A 
ATOM     21  C   LIG    1       -3.583   2.570   1.657  0.00  0.00    -0.180 A 
ATOM     22  C   LIG    1       -2.885   1.435   2.034  0.00  0.00    +0.150 A 
ATOM     23  F   LIG    1       -2.179   0.741   1.115  0.00  0.00    -0.120 F 
ATOM     24  F   LIG    1       -4.998   4.385   2.217  0.00  0.00    -0.120 F 
ATOM     25  C   LIG    1       -2.904   1.014   3.350  0.00  0.00    +0.010 A 
BRANCH  18  27
ATOM     26  C   LIG    1       -3.691   0.937   6.780  0.00  0.00    +0.100 C 
ATOM     27  C   LIG    1       -3.667   1.294   5.662  0.00  0.00    -0.170 C 
ENDBRANCH  18  27
ENDBRANCH  17  21
ENDBRANCH   1  17
TORSDOF 6
