REMARK  Name = ZINCpk00000ebcyB.0
REMARK                            x       y       z     vdW  Elec       q    Type
REMARK                         _______ _______ _______ _____ _____    ______ ____
ROOT
ATOM      1  C   LIG    1       -0.058   1.505  -0.098  0.00  0.00    +0.030 C 
ATOM      2  C   LIG    1       -1.272   2.038   0.175  0.00  0.00    +0.240 C 
ENDROOT
BRANCH   1   8
ATOM      3  C   LIG    1        2.604   1.768   1.462  0.00  0.00    +0.220 C 
ATOM      4  C   LIG    1        2.187   2.484   0.204  0.00  0.00    +0.270 A 
ATOM      5  N   LIG    1        2.894   3.360  -0.461  0.00  0.00    -0.330 NA
ATOM      6  N   LIG    1        2.247   3.779  -1.488  0.00  0.00    -0.030 NA
ATOM      7  N   LIG    1        1.095   3.204  -1.554  0.00  0.00    -0.060 NA
ATOM      8  N   LIG    1        1.012   2.340  -0.447  0.00  0.00    -0.330 N 
ENDBRANCH   1   8
BRANCH   2   9
ATOM      9  C   LIG    1       -1.431   3.498   0.266  0.00  0.00    -0.100 A 
ATOM     10  C   LIG    1       -0.372   4.293   0.718  0.00  0.00    +0.020 A 
ATOM     11  C   LIG    1       -0.527   5.661   0.794  0.00  0.00    +0.010 A 
ATOM     12  C   LIG    1       -1.729   6.247   0.437  0.00  0.00    +0.040 A 
ATOM     13  C   LIG    1       -2.783   5.466  -0.005  0.00  0.00    +0.010 A 
ATOM     14  C   LIG    1       -2.643   4.097  -0.093  0.00  0.00    +0.060 A 
ENDBRANCH   2   9
BRANCH   1  15
ATOM     15  C   LIG    1        0.136   0.052  -0.034  0.00  0.00    +0.520 C 
ATOM     16  O   LIG    1       -0.765  -0.665   0.358  0.00  0.00    -0.490 OA
BRANCH  15  17
ATOM     17  O   LIG    1        1.314  -0.488  -0.408  0.00  0.00    -0.320 OA
BRANCH  17  18
ATOM     18  C   LIG    1        1.476  -1.918  -0.211  0.00  0.00    +0.270 C 
BRANCH  18  19
ATOM     19  C   LIG    1        2.883  -2.318  -0.571  0.00  0.00    +0.520 C 
ATOM     20  N   LIG    1        3.237  -3.619  -0.563  0.00  0.00    -0.720 N 
ATOM     21  H   LIG    1        2.585  -4.297  -0.326  0.00  0.00    +0.400 HD
ATOM     22  O   LIG    1        3.698  -1.470  -0.867  0.00  0.00    -0.510 OA
BRANCH  20  23
ATOM     23  C   LIG    1        4.605  -4.008  -0.913  0.00  0.00    +0.170 C 
ATOM     24  C   LIG    1        4.918  -3.549  -2.338  0.00  0.00    +0.040 C 
ATOM     25  C   LIG    1        4.740  -5.530  -0.826  0.00  0.00    +0.040 C 
ATOM     26  C   LIG    1        5.586  -3.353   0.061  0.00  0.00    +0.040 C 
ENDBRANCH  20  23
ENDBRANCH  18  19
ENDBRANCH  17  18
ENDBRANCH  15  17
ENDBRANCH   1  15
TORSDOF 7
