REMARK  Name = ZINCqH0000004MkT.0
REMARK                            x       y       z     vdW  Elec       q    Type
REMARK                         _______ _______ _______ _____ _____    ______ ____
ROOT
ATOM      1  N   LIG    1        0.448   6.817  -0.898  0.00  0.00    -0.510 N 
ATOM      2  H   LIG    1        1.167   7.372  -0.459  0.00  0.00    +0.420 HD
ATOM      3  H   LIG    1        0.094   6.142  -0.237  0.00  0.00    +0.430 HD
ENDROOT
BRANCH   1   4
ATOM      4  C   LIG    1       -0.647   7.693  -1.337  0.00  0.00    +0.350 C 
BRANCH   4   7
ATOM      5  C   LIG    1       -2.691   8.402   1.633  0.00  0.00    +0.170 A 
ATOM      6  N   LIG    1       -2.153   7.819   0.582  0.00  0.00    -0.480 NA
ATOM      7  C   LIG    1       -1.225   8.411  -0.145  0.00  0.00    +0.030 A 
ATOM      8  C   LIG    1       -0.768   9.678   0.172  0.00  0.00    -0.030 A 
ATOM      9  C   LIG    1       -1.304  10.337   1.264  0.00  0.00    +0.110 A 
ATOM     10  C   LIG    1       -2.288   9.683   2.017  0.00  0.00    -0.140 A 
BRANCH  10  11
ATOM     11  C   LIG    1       -2.890  10.336   3.196  0.00  0.00    +0.520 C 
ATOM     12  O   LIG    1       -3.663   9.715   3.911  0.00  0.00    -0.650 OA
ATOM     13  O   LIG    1       -2.615  11.499   3.457  0.00  0.00    -0.670 OA
ENDBRANCH  10  11
BRANCH   5  15
ATOM     14  C   LIG    1       -3.100   6.990   3.631  0.00  0.00    +0.030 C 
ATOM     15  C   LIG    1       -3.748   7.680   2.428  0.00  0.00    +0.110 C 
ENDBRANCH   5  15
ENDBRANCH   4   7
ENDBRANCH   1   4
BRANCH   1  16
ATOM     16  C   LIG    1        1.011   6.117  -2.060  0.00  0.00    +0.350 C 
BRANCH  16  17
ATOM     17  C   LIG    1        2.051   5.130  -1.597  0.00  0.00    -0.310 A 
ATOM     18  C   LIG    1        1.901   3.790  -1.527  0.00  0.00    +0.310 A 
ATOM     19  N   LIG    1        3.054   3.265  -1.059  0.00  0.00    -0.450 N 
ATOM     20  H   LIG    1        3.229   2.324  -0.904  0.00  0.00    +0.450 HD
ATOM     21  N   LIG    1        3.952   4.316  -0.836  0.00  0.00    -0.260 NA
ATOM     22  C   LIG    1        3.354   5.442  -1.162  0.00  0.00    +0.140 A 
BRANCH  22  23
ATOM     23  C   LIG    1        3.946   6.801  -1.080  0.00  0.00    -0.030 A 
ATOM     24  C   LIG    1        4.705   7.167   0.030  0.00  0.00    +0.060 A 
ATOM     25  C   LIG    1        5.253   8.431   0.101  0.00  0.00    +0.060 A 
ATOM     26  C   LIG    1        5.044   9.337  -0.924  0.00  0.00    -0.080 A 
ATOM     27  C   LIG    1        4.296   8.976  -2.031  0.00  0.00    +0.050 A 
ATOM     28 BR   LIG    1        5.791  11.071  -0.816  0.00  0.00    -0.030 Br
ATOM     29  C   LIG    1        3.744   7.714  -2.112  0.00  0.00    +0.030 A 
ENDBRANCH  22  23
ENDBRANCH  16  17
ENDBRANCH   1  16
TORSDOF 7
