REMARK  Name = ZINCAx0000000bvD.0
REMARK                            x       y       z     vdW  Elec       q    Type
REMARK                         _______ _______ _______ _____ _____    ______ ____
ROOT
ATOM      1  C   LIG    1        2.876   6.822  -0.485  0.00  0.00    +0.230 C 
ATOM      2  C   LIG    1        2.508   8.288  -0.176  0.00  0.00    +0.070 C 
ATOM      3  C   LIG    1        1.444   8.150   0.945  0.00  0.00    +0.180 C 
ATOM      4  C   LIG    1        0.699   6.861   0.507  0.00  0.00    +0.240 C 
ATOM      5  N   LIG    1        1.754   5.985  -0.035  0.00  0.00    -0.600 N 
ATOM      6  C   LIG    1        1.696   4.641  -0.111  0.00  0.00    +0.540 C 
ATOM      7  O   LIG    1        2.656   4.014  -0.507  0.00  0.00    -0.500 OA
ENDROOT
BRANCH   1  10
ATOM      8  N   LIG    1        5.287   7.083   0.003  0.00  0.00    -0.730 N 
ATOM      9  H   LIG    1        5.312   7.790  -0.660  0.00  0.00    +0.400 HD
ATOM     10  C   LIG    1        4.130   6.440   0.258  0.00  0.00    +0.510 C 
ATOM     11  O   LIG    1        4.098   5.555   1.087  0.00  0.00    -0.510 OA
BRANCH   8  12
ATOM     12  C   LIG    1        6.506   6.712   0.726  0.00  0.00    +0.320 C 
BRANCH  12  16
ATOM     13  C   LIG    1        9.751   9.159  -0.603  0.00  0.00    -0.000 A 
ATOM     14  C   LIG    1        8.959   9.568   0.470  0.00  0.00    +0.030 A 
ATOM     15  C   LIG    1        7.913   8.774   0.894  0.00  0.00    +0.040 A 
ATOM     16  C   LIG    1        7.650   7.574   0.257  0.00  0.00    -0.100 A 
ATOM     17  C   LIG    1        8.435   7.160  -0.803  0.00  0.00    +0.040 A 
ATOM     18  C   LIG    1        9.480   7.948  -1.241  0.00  0.00    +0.030 A 
BRANCH  13  21
ATOM     19  C   LIG    1       12.566   8.153  -1.164  0.00  0.00    +0.160 C 
ATOM     20  C   LIG    1       12.131   9.588  -1.320  0.00  0.00    +0.080 A 
ATOM     21  C   LIG    1       10.873  10.005  -1.063  0.00  0.00    -0.200 A 
ATOM     22  S   LIG    1       10.809  11.740  -1.366  0.00  0.00    +0.140 S 
ATOM     23  C   LIG    1       12.459  11.734  -1.811  0.00  0.00    +0.220 A 
ATOM     24  N   LIG    1       12.944  10.540  -1.721  0.00  0.00    -0.470 NA
ENDBRANCH  13  21
ENDBRANCH  12  16
ENDBRANCH   8  12
ENDBRANCH   1  10
BRANCH   3  25
ATOM     25  O   LIG    1        0.559   9.272   0.953  0.00  0.00    -0.550 OA
ATOM     26  H   LIG    1       -0.123   9.230   1.637  0.00  0.00    +0.390 HD
ENDBRANCH   3  25
BRANCH   6  27
ATOM     27  C   LIG    1        0.439   3.916   0.295  0.00  0.00    +0.250 C 
BRANCH  27  28
ATOM     28  C   LIG    1        0.600   3.374   1.717  0.00  0.00    -0.070 C 
ATOM     29  C   LIG    1       -0.720   2.752   2.178  0.00  0.00    +0.050 C 
ATOM     30  C   LIG    1        0.982   4.517   2.659  0.00  0.00    +0.050 C 
ATOM     31  C   LIG    1        1.698   2.309   1.735  0.00  0.00    +0.030 C 
ENDBRANCH  27  28
BRANCH  27  32
ATOM     32  N   LIG    1        0.196   2.805  -0.627  0.00  0.00    -0.700 N 
ATOM     33  H   LIG    1        0.936   2.406  -1.112  0.00  0.00    +0.410 HD
ATOM     34  C   LIG    1       -1.056   2.336  -0.803  0.00  0.00    +0.550 C 
ATOM     35  O   LIG    1       -1.981   2.838  -0.201  0.00  0.00    -0.510 OA
BRANCH  34  36
ATOM     36  C   LIG    1       -1.305   1.192  -1.752  0.00  0.00    +0.000 C 
ATOM     37  C   LIG    1       -2.081   1.496  -3.036  0.00  0.00    +0.080 C 
ATOM     38  F   LIG    1       -0.289   0.233  -1.822  0.00  0.00    -0.160 F 
ATOM     39  C   LIG    1       -2.748   0.706  -1.908  0.00  0.00    +0.100 C 
ENDBRANCH  34  36
ENDBRANCH  27  32
ENDBRANCH   6  27
TORSDOF 9
