REMARK  Name = ZINCrD0000074hCd.0
REMARK                            x       y       z     vdW  Elec       q    Type
REMARK                         _______ _______ _______ _____ _____    ______ ____
ROOT
ATOM      1  C   LIG    1        0.162   0.960  -4.895  0.00  0.00    +0.280 C 
ENDROOT
BRANCH   1   2
ATOM      2  C   LIG    1       -0.578   1.467  -6.134  0.00  0.00    -0.030 C 
ATOM      3  C   LIG    1       -2.014   0.934  -6.127  0.00  0.00    +0.010 C 
ATOM      4  C   LIG    1       -1.981  -0.596  -6.214  0.00  0.00    +0.210 C 
ATOM      5  O   LIG    1       -1.277  -0.991  -7.393  0.00  0.00    -0.380 OA
ATOM      6  C   LIG    1        0.085  -0.559  -7.432  0.00  0.00    +0.210 C 
ATOM      7  C   LIG    1        0.135   0.970  -7.396  0.00  0.00    +0.020 C 
BRANCH   2   8
ATOM      8  C   LIG    1       -0.600   2.974  -6.128  0.00  0.00    -0.060 A 
ATOM      9  C   LIG    1       -0.001   3.669  -5.094  0.00  0.00    +0.050 A 
ATOM     10  C   LIG    1       -0.020   5.051  -5.087  0.00  0.00    +0.040 A 
ATOM     11  C   LIG    1       -0.638   5.739  -6.115  0.00  0.00    -0.030 A 
ATOM     12  C   LIG    1       -1.238   5.044  -7.151  0.00  0.00    +0.050 A 
ATOM     13 CL   LIG    1       -0.662   7.475  -6.107  0.00  0.00    -0.050 Cl
ATOM     14  C   LIG    1       -1.213   3.661  -7.160  0.00  0.00    -0.020 A 
ATOM     15 CL   LIG    1       -1.959   2.788  -8.462  0.00  0.00    -0.040 Cl
ENDBRANCH   2   8
ENDBRANCH   1   2
BRANCH   1  17
ATOM     16  C   LIG    1       -0.047   1.107  -2.471  0.00  0.00    +0.520 C 
ATOM     17  N   LIG    1       -0.524   1.433  -3.689  0.00  0.00    -0.730 N 
ATOM     18  H   LIG    1       -1.321   1.980  -3.768  0.00  0.00    +0.400 HD
ATOM     19  O   LIG    1        0.949   0.422  -2.373  0.00  0.00    -0.530 OA
BRANCH  16  20
ATOM     20  C   LIG    1       -0.753   1.593  -1.232  0.00  0.00    +0.050 C 
BRANCH  20  21
ATOM     21  C   LIG    1       -0.013   1.086   0.008  0.00  0.00    +0.290 C 
BRANCH  21  23
ATOM     22  C   LIG    1       -0.222   1.232   2.431  0.00  0.00    +0.540 C 
ATOM     23  N   LIG    1       -0.698   1.558   1.213  0.00  0.00    -0.730 N 
ATOM     24  H   LIG    1       -1.495   2.106   1.135  0.00  0.00    +0.400 HD
ATOM     25  O   LIG    1        0.774   0.548   2.529  0.00  0.00    -0.530 OA
BRANCH  22  29
ATOM     26  C   LIG    1        0.926   0.452   5.014  0.00  0.00    +0.070 C 
ATOM     27  C   LIG    1       -0.336   1.316   5.024  0.00  0.00    -0.010 C 
ATOM     28  C   LIG    1       -0.208   2.760   4.531  0.00  0.00    +0.050 C 
ATOM     29  C   LIG    1       -0.927   1.718   3.671  0.00  0.00    -0.080 C 
ENDBRANCH  22  29
ENDBRANCH  21  23
ENDBRANCH  20  21
ENDBRANCH  16  20
ENDBRANCH   1  17
TORSDOF 7
