REMARK  Name = ZINCpk00000y6y4u.0
REMARK                            x       y       z     vdW  Elec       q    Type
REMARK                         _______ _______ _______ _____ _____    ______ ____
ROOT
ATOM      1  C   LIG    1       -2.262   2.919  -3.666  0.00  0.00    +0.520 C 
ATOM      2  N   LIG    1       -2.063   2.091  -2.622  0.00  0.00    -0.730 N 
ATOM      3  H   LIG    1       -1.318   2.240  -2.019  0.00  0.00    +0.390 HD
ATOM      4  O   LIG    1       -3.194   2.732  -4.420  0.00  0.00    -0.540 OA
ENDROOT
BRANCH   1   5
ATOM      5  C   LIG    1       -1.327   4.078  -3.898  0.00  0.00    +0.050 C 
BRANCH   5   6
ATOM      6  C   LIG    1       -1.773   4.853  -5.139  0.00  0.00    +0.140 C 
BRANCH   6  14
ATOM      7  C   LIG    1        0.868   4.795  -6.890  0.00  0.00    +0.150 C 
ATOM      8  C   LIG    1        0.328   5.987  -6.143  0.00  0.00    +0.080 A 
ATOM      9  N   LIG    1        0.869   7.178  -6.106  0.00  0.00    -0.300 NA
ATOM     10  N   LIG    1        0.063   7.999  -5.306  0.00  0.00    -0.480 N 
ATOM     11  H   LIG    1        0.225   8.934  -5.104  0.00  0.00    +0.440 HD
ATOM     12  C   LIG    1       -0.980   7.262  -4.872  0.00  0.00    +0.100 A 
ATOM     13  C   LIG    1       -2.100   7.743  -3.986  0.00  0.00    +0.140 C 
ATOM     14  C   LIG    1       -0.838   6.012  -5.370  0.00  0.00    -0.240 A 
ENDBRANCH   6  14
ENDBRANCH   5   6
ENDBRANCH   1   5
BRANCH   2  15
ATOM     15  C   LIG    1       -2.973   0.964  -2.397  0.00  0.00    +0.290 C 
BRANCH  15  16
ATOM     16  C   LIG    1       -2.527   0.189  -1.156  0.00  0.00    +0.130 C 
ATOM     17  C   LIG    1       -3.613  -0.830  -0.728  0.00  0.00    +0.060 C 
ATOM     18  C   LIG    1       -3.322  -1.033   0.777  0.00  0.00    +0.190 C 
ATOM     19  C   LIG    1       -2.540   0.221   1.208  0.00  0.00    +0.200 C 
ATOM     20  F   LIG    1       -4.520  -1.129   1.494  0.00  0.00    -0.200 F 
ATOM     21  N   LIG    1       -2.426   1.092   0.019  0.00  0.00    -0.460 N 
BRANCH  21  22
ATOM     22  C   LIG    1       -1.217   1.779   0.017  0.00  0.00    +0.230 A 
ATOM     23  C   LIG    1       -0.013   1.076   0.008  0.00  0.00    -0.010 A 
ATOM     24  C   LIG    1        1.165   1.807   0.001  0.00  0.00    +0.060 A 
ATOM     25  C   LIG    1        1.074   3.191   0.009  0.00  0.00    +0.220 A 
ATOM     26  N   LIG    1       -0.109   3.774   0.023  0.00  0.00    -0.220 NA
ATOM     27  N   LIG    1       -1.203   3.104   0.030  0.00  0.00    -0.210 NA
ENDBRANCH  21  22
ENDBRANCH  15  16
ENDBRANCH   2  15
TORSDOF 6
