REMARK  Name = ZINCb80000006kOP.0
REMARK                            x       y       z     vdW  Elec       q    Type
REMARK                         _______ _______ _______ _____ _____    ______ ____
ROOT
ATOM      1  C   LIG    1        2.042   0.745  -0.013  0.00  0.00    +0.180 A 
ATOM      2  N   LIG    1        1.248   1.792  -0.000  0.00  0.00    -0.420 NA
ATOM      3  C   LIG    1       -0.017   1.377   0.010  0.00  0.00    +0.250 A 
ATOM      4  C   LIG    1        0.002  -0.004   0.002  0.00  0.00    -0.120 A 
ATOM      5  O   LIG    1        1.301  -0.373  -0.012  0.00  0.00    -0.140 OA
ENDROOT
BRANCH   1   6
ATOM      6  C   LIG    1        3.521   0.792  -0.028  0.00  0.00    +0.570 C 
ATOM      7  O   LIG    1        4.162  -0.239  -0.041  0.00  0.00    -0.470 OA
BRANCH   6   9
ATOM      8  C   LIG    1        5.609   1.951  -0.043  0.00  0.00    +0.300 C 
ATOM      9  O   LIG    1        4.157   1.980  -0.028  0.00  0.00    -0.320 OA
ENDBRANCH   6   9
ENDBRANCH   1   6
BRANCH   4  10
ATOM     10  C   LIG    1       -1.160  -0.894   0.009  0.00  0.00    +0.580 C 
ATOM     11  O   LIG    1       -1.002  -2.098   0.001  0.00  0.00    -0.430 OA
ENDBRANCH   4  10
TORSDOF 3
