REMARK  Name = ZINCtj000002dg2E.1
REMARK                            x       y       z     vdW  Elec       q    Type
REMARK                         _______ _______ _______ _____ _____    ______ ____
ROOT
ATOM      1  C   LIG    1       -2.071   0.221  -5.709  0.00  0.00    -0.120 A 
ATOM      2  C   LIG    1       -3.429  -0.003  -5.833  0.00  0.00    +0.030 A 
ATOM      3  C   LIG    1       -4.112   0.483  -6.933  0.00  0.00    +0.030 A 
ATOM      4  C   LIG    1       -3.434   1.182  -7.914  0.00  0.00    -0.090 A 
ATOM      5  C   LIG    1       -2.075   1.401  -7.793  0.00  0.00    +0.030 A 
ATOM      6  C   LIG    1       -1.393   0.920  -6.690  0.00  0.00    +0.030 A 
ENDROOT
BRANCH   1   7
ATOM      7  C   LIG    1       -1.328  -0.303  -4.508  0.00  0.00    +0.340 C 
BRANCH   7   9
ATOM      8  C   LIG    1       -0.727   0.458  -2.272  0.00  0.00    +0.510 C 
ATOM      9  N   LIG    1       -1.336   0.709  -3.448  0.00  0.00    -0.700 N 
ATOM     10  H   LIG    1       -1.780   1.558  -3.593  0.00  0.00    +0.410 HD
ATOM     11  O   LIG    1       -0.172  -0.605  -2.091  0.00  0.00    -0.530 OA
BRANCH   8  17
ATOM     12  C   LIG    1        1.364   1.519  -0.003  0.00  0.00    +0.330 C 
ATOM     13  N   LIG    1       -0.012   1.005   0.008  0.00  0.00    -0.380 N 
ATOM     14  C   LIG    1       -0.712   1.485   1.213  0.00  0.00    +0.270 C 
ATOM     15  C   LIG    1       -1.937   2.294   0.739  0.00  0.00    +0.080 C 
ATOM     16  C   LIG    1       -2.181   1.750  -0.694  0.00  0.00    +0.100 C 
ATOM     17  C   LIG    1       -0.737   1.499  -1.182  0.00  0.00    +0.170 C 
ATOM     18  H   LIG    1        0.002  -0.004   0.002  0.00  0.00    +0.430 HD
ENDBRANCH   8  17
ENDBRANCH   7   9
ENDBRANCH   1   7
BRANCH   4  19
ATOM     19  C   LIG    1       -4.178   1.707  -9.115  0.00  0.00    +0.340 C 
BRANCH  19  20
ATOM     20  N   LIG    1       -4.169   0.695 -10.175  0.00  0.00    -0.710 N 
ATOM     21  H   LIG    1       -3.725  -0.155 -10.030  0.00  0.00    +0.420 HD
ATOM     22  C   LIG    1       -4.778   0.946 -11.351  0.00  0.00    +0.580 C 
ATOM     23  O   LIG    1       -5.334   2.011 -11.532  0.00  0.00    -0.510 OA
BRANCH  22  24
ATOM     24  C   LIG    1       -4.769  -0.077 -12.423  0.00  0.00    +0.150 A 
ATOM     25  N   LIG    1       -4.164  -1.234 -12.224  0.00  0.00    -0.400 NA
ATOM     26  C   LIG    1       -4.145  -2.170 -13.177  0.00  0.00    +0.360 A 
ATOM     27  N   LIG    1       -3.612  -3.385 -13.213  0.00  0.00    -0.460 NA
ATOM     28  C   LIG    1       -3.863  -3.940 -14.399  0.00  0.00    +0.250 A 
ATOM     29  C   LIG    1       -4.574  -3.062 -15.145  0.00  0.00    +0.110 A 
ATOM     30  N   LIG    1       -4.757  -1.944 -14.385  0.00  0.00    -0.390 N 
ATOM     31  C   LIG    1       -5.391  -0.758 -14.624  0.00  0.00    +0.300 A 
ATOM     32  C   LIG    1       -5.413   0.185 -13.652  0.00  0.00    +0.020 A 
ENDBRANCH  22  24
ENDBRANCH  19  20
ENDBRANCH   4  19
TORSDOF 6
