REMARK  Name = ZINCtj000002dg2E.0
REMARK                            x       y       z     vdW  Elec       q    Type
REMARK                         _______ _______ _______ _____ _____    ______ ____
ROOT
ATOM      1  C   LIG    1       -3.546   7.369   1.184  0.00  0.00    -0.120 A 
ATOM      2  C   LIG    1       -3.109   7.323   2.495  0.00  0.00    +0.030 A 
ATOM      3  C   LIG    1       -1.775   7.088   2.771  0.00  0.00    +0.030 A 
ATOM      4  C   LIG    1       -0.878   6.899   1.736  0.00  0.00    -0.090 A 
ATOM      5  C   LIG    1       -1.315   6.950   0.425  0.00  0.00    +0.030 A 
ATOM      6  C   LIG    1       -2.650   7.181   0.149  0.00  0.00    +0.030 A 
ENDROOT
BRANCH   1   7
ATOM      7  C   LIG    1       -5.001   7.623   0.884  0.00  0.00    +0.340 C 
BRANCH   7   9
ATOM      8  C   LIG    1       -6.463   9.531   0.482  0.00  0.00    +0.500 C 
ATOM      9  N   LIG    1       -5.228   9.065   0.752  0.00  0.00    -0.700 N 
ATOM     10  H   LIG    1       -4.488   9.684   0.860  0.00  0.00    +0.410 HD
ATOM     11  O   LIG    1       -7.387   8.757   0.347  0.00  0.00    -0.510 OA
BRANCH   8  17
ATOM     12  C   LIG    1       -8.223  10.289   2.059  0.00  0.00    +0.320 C 
ATOM     13  N   LIG    1       -7.757  11.442   1.276  0.00  0.00    -0.380 N 
ATOM     14  C   LIG    1       -8.879  11.994   0.487  0.00  0.00    +0.270 C 
ATOM     15  C   LIG    1       -8.238  12.451  -0.847  0.00  0.00    +0.080 C 
ATOM     16  C   LIG    1       -7.179  11.341  -1.082  0.00  0.00    +0.100 C 
ATOM     17  C   LIG    1       -6.696  11.014   0.346  0.00  0.00    +0.150 C 
ATOM     18  H   LIG    1       -7.399  12.152   1.896  0.00  0.00    +0.430 HD
ENDBRANCH   8  17
ENDBRANCH   7   9
ENDBRANCH   1   7
BRANCH   4  19
ATOM     19  C   LIG    1        0.576   6.644   2.037  0.00  0.00    +0.330 C 
BRANCH  19  20
ATOM     20  N   LIG    1        0.801   5.202   2.169  0.00  0.00    -0.710 N 
ATOM     21  H   LIG    1        0.061   4.584   2.062  0.00  0.00    +0.420 HD
ATOM     22  C   LIG    1        2.036   4.735   2.440  0.00  0.00    +0.580 C 
ATOM     23  O   LIG    1        2.963   5.509   2.574  0.00  0.00    -0.510 OA
BRANCH  22  24
ATOM     24  C   LIG    1        2.264   3.276   2.574  0.00  0.00    +0.150 A 
ATOM     25  N   LIG    1        1.256   2.437   2.427  0.00  0.00    -0.400 NA
ATOM     26  C   LIG    1        1.439   1.118   2.544  0.00  0.00    +0.360 A 
ATOM     27  N   LIG    1        0.599   0.095   2.443  0.00  0.00    -0.460 NA
ATOM     28  C   LIG    1        1.266  -1.041   2.643  0.00  0.00    +0.250 A 
ATOM     29  C   LIG    1        2.566  -0.745   2.880  0.00  0.00    +0.120 A 
ATOM     30  N   LIG    1        2.686   0.612   2.819  0.00  0.00    -0.390 N 
ATOM     31  C   LIG    1        3.751   1.454   2.975  0.00  0.00    +0.300 A 
ATOM     32  C   LIG    1        3.559   2.789   2.855  0.00  0.00    +0.020 A 
ENDBRANCH  22  24
ENDBRANCH  19  20
ENDBRANCH   4  19
TORSDOF 6
