REMARK  Name = ZINCvU00000005OP.0
REMARK                            x       y       z     vdW  Elec       q    Type
REMARK                         _______ _______ _______ _____ _____    ______ ____
ROOT
ATOM      1  C   LIG    1       -2.218  -1.760  -1.667  0.00  0.00    +0.610 C 
ATOM      2  N   LIG    1       -1.224  -2.430  -2.159  0.00  0.00    -0.540 NA
ATOM      3  C   LIG    1        0.154  -2.008  -1.869  0.00  0.00    +0.210 C 
ATOM      4  C   LIG    1        0.330  -0.785  -0.991  0.00  0.00    -0.230 C 
ATOM      5  C   LIG    1       -0.825  -0.156  -0.527  0.00  0.00    +0.270 A 
ATOM      6  C   LIG    1       -0.713   0.984   0.292  0.00  0.00    -0.010 A 
ATOM      7  C   LIG    1       -1.842   1.596   0.743  0.00  0.00    +0.120 A 
ATOM      8  C   LIG    1       -3.098   1.080   0.383  0.00  0.00    -0.010 A 
ATOM      9  C   LIG    1       -3.191  -0.013  -0.401  0.00  0.00    +0.260 A 
ATOM     10  N   LIG    1       -2.066  -0.645  -0.867  0.00  0.00    -0.460 N 
ENDROOT
BRANCH   3  11
ATOM     11  C   LIG    1        0.862  -3.161  -1.205  0.00  0.00    -0.090 A 
ATOM     12  C   LIG    1        0.322  -3.747  -0.076  0.00  0.00    +0.030 A 
ATOM     13  C   LIG    1        0.969  -4.807   0.530  0.00  0.00    +0.000 A 
ATOM     14  C   LIG    1        2.162  -5.276   0.011  0.00  0.00    -0.080 A 
ATOM     15  C   LIG    1        2.706  -4.686  -1.115  0.00  0.00    +0.020 A 
ATOM     16  C   LIG    1        2.870  -6.429   0.674  0.00  0.00    +0.090 C 
ATOM     17  C   LIG    1        2.056  -3.628  -1.723  0.00  0.00    +0.020 A 
ENDBRANCH   3  11
BRANCH   3  18
ATOM     18  C   LIG    1        0.854  -1.736  -3.202  0.00  0.00    +0.450 C 
ATOM     19  F   LIG    1        0.857  -2.903  -3.973  0.00  0.00    -0.170 F 
ATOM     20  F   LIG    1        2.171  -1.331  -2.963  0.00  0.00    -0.170 F 
ATOM     21  F   LIG    1        0.172  -0.725  -3.888  0.00  0.00    -0.180 F 
ENDBRANCH   3  18
BRANCH   1  22
ATOM     22  N   LIG    1       -3.495  -2.183  -1.958  0.00  0.00    -0.650 N 
ATOM     23  H   LIG    1       -4.258  -1.710  -1.591  0.00  0.00    +0.420 HD
BRANCH  22  28
ATOM     24  C   LIG    1       -4.297  -6.694  -5.303  0.00  0.00    +0.090 C 
ATOM     25  C   LIG    1       -4.084  -5.495  -4.415  0.00  0.00    -0.090 A 
ATOM     26  C   LIG    1       -4.954  -4.423  -4.483  0.00  0.00    +0.030 A 
ATOM     27  C   LIG    1       -4.761  -3.323  -3.670  0.00  0.00    -0.010 A 
ATOM     28  C   LIG    1       -3.693  -3.295  -2.783  0.00  0.00    +0.150 A 
ATOM     29  C   LIG    1       -2.817  -4.372  -2.721  0.00  0.00    +0.040 A 
ATOM     30  C   LIG    1       -3.019  -5.471  -3.533  0.00  0.00    +0.030 A 
ENDBRANCH  22  28
ENDBRANCH   1  22
BRANCH   4  31
ATOM     31  C   LIG    1        1.632  -0.294  -0.651  0.00  0.00    +0.280 C 
ATOM     32  N   LIG    1        2.665   0.095  -0.382  0.00  0.00    -0.420 NA
ENDBRANCH   4  31
TORSDOF 5
