REMARK  Name = ZINCrH000004qWmV.0
REMARK                            x       y       z     vdW  Elec       q    Type
REMARK                         _______ _______ _______ _____ _____    ______ ____
ROOT
ATOM      1  C   LIG    1        4.126   0.899  -1.448  0.00  0.00    +0.510 C 
ATOM      2  N   LIG    1        5.445   0.993  -1.705  0.00  0.00    -0.730 N 
ATOM      3  H   LIG    1        6.075   1.107  -0.976  0.00  0.00    +0.400 HD
ATOM      4  O   LIG    1        3.339   0.757  -2.360  0.00  0.00    -0.520 OA
ENDROOT
BRANCH   1   5
ATOM      5  C   LIG    1        3.628   0.972  -0.027  0.00  0.00    +0.150 C 
BRANCH   5  11
ATOM      6  C   LIG    1       -1.740  -3.353   0.001  0.00  0.00    +0.090 C 
ATOM      7  C   LIG    1       -0.654  -2.309  -0.004  0.00  0.00    -0.060 A 
ATOM      8  C   LIG    1        0.676  -2.701  -0.019  0.00  0.00    -0.100 A 
ATOM      9  C   LIG    1        1.679  -1.757  -0.023  0.00  0.00    +0.050 A 
ATOM     10  C   LIG    1        1.349  -0.403  -0.013  0.00  0.00    -0.110 A 
ATOM     11  C   LIG    1        2.127   0.843  -0.014  0.00  0.00    -0.170 A 
ATOM     12  C   LIG    1        1.233   1.841   0.000  0.00  0.00    +0.230 A 
ATOM     13  O   LIG    1       -0.016   1.344   0.009  0.00  0.00    -0.190 OA
ATOM     14  C   LIG    1        0.002  -0.004   0.002  0.00  0.00    +0.050 A 
ATOM     15  C   LIG    1        1.026  -4.167  -0.030  0.00  0.00    +0.100 C 
ATOM     16  C   LIG    1       -0.994  -0.972   0.006  0.00  0.00    +0.020 A 
ENDBRANCH   5  11
ENDBRANCH   1   5
BRANCH   2  17
ATOM     17  C   LIG    1        5.929   0.923  -3.087  0.00  0.00    +0.270 C 
BRANCH  17  18
ATOM     18  C   LIG    1        7.453   1.054  -3.100  0.00  0.00    +0.270 C 
BRANCH  18  19
ATOM     19  N   LIG    1        7.937   0.984  -4.481  0.00  0.00    -0.720 N 
ATOM     20  H   LIG    1        7.308   0.869  -5.210  0.00  0.00    +0.400 HD
ATOM     21  C   LIG    1        9.257   1.077  -4.739  0.00  0.00    +0.560 C 
ATOM     22  O   LIG    1       10.046   1.221  -3.825  0.00  0.00    -0.530 OA
BRANCH  21  23
ATOM     23  C   LIG    1        9.745   1.006  -6.132  0.00  0.00    -0.130 A 
ATOM     24  C   LIG    1        8.841   0.836  -7.183  0.00  0.00    +0.070 A 
ATOM     25  C   LIG    1        9.303   0.774  -8.481  0.00  0.00    +0.020 A 
ATOM     26  C   LIG    1       10.659   0.871  -8.743  0.00  0.00    -0.010 A 
ATOM     27  C   LIG    1       11.560   1.036  -7.704  0.00  0.00    +0.020 A 
ATOM     28 CL   LIG    1       11.232   0.787 -10.379  0.00  0.00    -0.060 Cl
ATOM     29  C   LIG    1       11.111   1.103  -6.402  0.00  0.00    +0.110 A 
ENDBRANCH  21  23
ENDBRANCH  18  19
ENDBRANCH  17  18
ENDBRANCH   2  17
TORSDOF 6
