REMARK  Name = ZINCrD000000AhgI.0
REMARK                            x       y       z     vdW  Elec       q    Type
REMARK                         _______ _______ _______ _____ _____    ______ ____
ROOT
ATOM      1  O   LIG    1        2.161   0.425   4.864  0.00  0.00    -0.540 OA
ATOM      2  C   LIG    1        2.226  -0.717   4.461  0.00  0.00    +0.510 C 
ATOM      3  N   LIG    1        2.226  -1.741   5.337  0.00  0.00    -0.730 N 
ATOM      4  H   LIG    1        2.278  -2.655   5.015  0.00  0.00    +0.400 HD
ENDROOT
BRANCH   3   5
ATOM      5  C   LIG    1        2.146  -1.475   6.775  0.00  0.00    +0.260 C 
BRANCH   5   6
ATOM      6  C   LIG    1        2.163  -2.800   7.541  0.00  0.00    +0.030 C 
BRANCH   6   7
ATOM      7  C   LIG    1        2.080  -2.522   9.043  0.00  0.00    +0.160 C 
BRANCH   7   8
ATOM      8  O   LIG    1        2.096  -3.760   9.758  0.00  0.00    -0.380 OA
BRANCH   8   9
ATOM      9  C   LIG    1        2.022  -3.612  11.177  0.00  0.00    +0.220 C 
BRANCH   9  10
ATOM     10  C   LIG    1        2.046  -4.972  11.826  0.00  0.00    -0.090 A 
ATOM     11  C   LIG    1        0.862  -5.641  12.071  0.00  0.00    +0.020 A 
ATOM     12  C   LIG    1        0.884  -6.891  12.662  0.00  0.00    +0.000 A 
ATOM     13  C   LIG    1        2.090  -7.467  13.016  0.00  0.00    +0.010 A 
ATOM     14  C   LIG    1        3.273  -6.795  12.775  0.00  0.00    +0.000 A 
ATOM     15  C   LIG    1        3.252  -5.548  12.180  0.00  0.00    +0.020 A 
ENDBRANCH   9  10
ENDBRANCH   8   9
ENDBRANCH   7   8
ENDBRANCH   6   7
ENDBRANCH   5   6
ENDBRANCH   3   5
BRANCH   2  16
ATOM     16  C   LIG    1        2.308  -0.991   2.982  0.00  0.00    +0.040 C 
BRANCH  16  17
ATOM     17  C   LIG    1        2.291   0.334   2.216  0.00  0.00    +0.080 C 
BRANCH  17  18
ATOM     18  C   LIG    1        2.374   0.056   0.714  0.00  0.00    +0.010 C 
ATOM     19  C   LIG    1        2.491   1.380  -0.042  0.00  0.00    +0.110 C 
ATOM     20  C   LIG    1        1.173   2.109   0.002  0.00  0.00    -0.120 A 
ATOM     21  C   LIG    1        1.148   3.489   0.027  0.00  0.00    +0.050 A 
ATOM     22  C   LIG    1       -0.061   4.160   0.050  0.00  0.00    -0.010 A 
ATOM     23  C   LIG    1       -1.248   3.451   0.047  0.00  0.00    +0.040 A 
ATOM     24  C   LIG    1       -1.230   2.070   0.031  0.00  0.00    -0.020 A 
ATOM     25  C   LIG    1       -0.017   1.393   0.010  0.00  0.00    +0.160 A 
ATOM     26  N   LIG    1        0.002  -0.004   0.002  0.00  0.00    -0.660 N 
ATOM     27  H   LIG    1       -0.810  -0.494  -0.199  0.00  0.00    +0.410 HD
ATOM     28  C   LIG    1        1.135  -0.676   0.271  0.00  0.00    +0.530 C 
ATOM     29  O   LIG    1        1.159  -1.883   0.156  0.00  0.00    -0.520 OA
ENDBRANCH  17  18
ENDBRANCH  16  17
ENDBRANCH   2  16
TORSDOF 9
