REMARK  Name = ZINCrD00000lcY8b.0
REMARK                            x       y       z     vdW  Elec       q    Type
REMARK                         _______ _______ _______ _____ _____    ______ ____
ROOT
ATOM      1  O   LIG    1       -2.405   0.961  -0.229  0.00  0.00    -0.320 OA
ENDROOT
BRANCH   1   2
ATOM      2  C   LIG    1       -3.569   1.290   0.368  0.00  0.00    +0.540 C 
ATOM      3  O   LIG    1       -3.678   2.357   0.942  0.00  0.00    -0.490 OA
BRANCH   2   5
ATOM      4  C   LIG    1       -5.649   0.366  -0.667  0.00  0.00    +0.050 A 
ATOM      5  C   LIG    1       -4.701   0.362   0.325  0.00  0.00    -0.190 A 
ATOM      6  C   LIG    1       -4.937  -0.660   1.321  0.00  0.00    -0.050 A 
ATOM      7  C   LIG    1       -6.024  -1.379   1.083  0.00  0.00    -0.250 A 
ATOM      8  C   LIG    1       -6.513  -2.506   1.956  0.00  0.00    +0.150 C 
ATOM      9  C   LIG    1       -4.040  -0.881   2.512  0.00  0.00    +0.120 C 
ATOM     10  S   LIG    1       -6.813  -0.848  -0.392  0.00  0.00    +0.310 S 
BRANCH   4  13
ATOM     11  C   LIG    1       -6.647   2.104  -3.840  0.00  0.00    +0.130 C 
ATOM     12  C   LIG    1       -6.637   1.157  -2.667  0.00  0.00    +0.510 C 
ATOM     13  N   LIG    1       -5.658   1.237  -1.745  0.00  0.00    -0.630 N 
ATOM     14  H   LIG    1       -4.960   1.904  -1.835  0.00  0.00    +0.420 HD
ATOM     15  O   LIG    1       -7.510   0.323  -2.554  0.00  0.00    -0.500 OA
ENDBRANCH   4  13
ENDBRANCH   2   5
ENDBRANCH   1   2
BRANCH   1  16
ATOM     16  C   LIG    1       -1.325   1.929  -0.146  0.00  0.00    +0.190 C 
ATOM     17  C   LIG    1       -1.401   2.881  -1.342  0.00  0.00    +0.080 C 
BRANCH  16  18
ATOM     18  C   LIG    1       -0.002   1.208  -0.162  0.00  0.00    +0.520 C 
ATOM     19  N   LIG    1        1.143   1.898   0.001  0.00  0.00    -0.670 N 
ATOM     20  H   LIG    1        1.123   2.866   0.056  0.00  0.00    +0.420 HD
ATOM     21  O   LIG    1        0.032   0.007  -0.327  0.00  0.00    -0.480 OA
BRANCH  19  22
ATOM     22  C   LIG    1        2.360   1.220   0.091  0.00  0.00    +0.180 A 
ATOM     23  C   LIG    1        2.414  -0.031   0.697  0.00  0.00    +0.020 A 
ATOM     24  C   LIG    1        3.611  -0.705   0.782  0.00  0.00    +0.090 A 
ATOM     25  C   LIG    1        4.776  -0.125   0.271  0.00  0.00    -0.040 A 
ATOM     26  C   LIG    1        4.719   1.134  -0.332  0.00  0.00    +0.090 A 
ATOM     27  C   LIG    1        3.517   1.800  -0.419  0.00  0.00    +0.000 A 
BRANCH  25  28
ATOM     28  C   LIG    1        6.024  -0.821   0.364  0.00  0.00    +0.250 C 
ATOM     29  N   LIG    1        7.015  -1.372   0.438  0.00  0.00    -0.410 NA
ENDBRANCH  25  28
ENDBRANCH  19  22
ENDBRANCH  16  18
ENDBRANCH   1  16
TORSDOF 7
