REMARK  Name = ZINCbw0000001MUi.0
REMARK                            x       y       z     vdW  Elec       q    Type
REMARK                         _______ _______ _______ _____ _____    ______ ____
ROOT
ATOM      1  C   LIG    1       -1.326   2.136   0.020  0.00  0.00    +0.140 C 
ATOM      2  C   LIG    1       -0.017   1.390   0.010  0.00  0.00    -0.070 A 
ATOM      3  C   LIG    1        1.184   2.080   0.002  0.00  0.00    +0.140 A 
ATOM      4  C   LIG    1        2.365   1.353  -0.013  0.00  0.00    -0.110 A 
ATOM      5  C   LIG    1        2.311  -0.034  -0.020  0.00  0.00    +0.200 A 
ATOM      6  N   LIG    1        1.155  -0.664  -0.012  0.00  0.00    -0.430 NA
ATOM      7 CL   LIG    1        3.786  -0.949  -0.039  0.00  0.00    +0.010 Cl
ATOM      8 BR   LIG    1        4.034   2.243  -0.025  0.00  0.00    +0.010 Br
ATOM      9  C   LIG    1        0.002  -0.004   0.002  0.00  0.00    +0.220 A 
ENDROOT
BRANCH   9  10
ATOM     10  C   LIG    1       -1.232  -0.731   0.010  0.00  0.00    +0.260 C 
ATOM     11  N   LIG    1       -2.211  -1.307   0.016  0.00  0.00    -0.360 NA
ENDBRANCH   9  10
TORSDOF 1
