REMARK  Name = ZINCpe000000VzTI.0
REMARK                            x       y       z     vdW  Elec       q    Type
REMARK                         _______ _______ _______ _____ _____    ______ ____
ROOT
ATOM      1  C   LIG    1        2.513   1.220   0.118  0.00  0.00    -0.060 A 
ATOM      2  C   LIG    1        2.479  -0.177   0.082  0.00  0.00    +0.050 A 
ATOM      3  C   LIG    1        1.274  -0.839   0.030  0.00  0.00    +0.110 A 
ATOM      4  C   LIG    1        0.078  -0.117   0.014  0.00  0.00    -0.130 A 
ATOM      5  C   LIG    1        0.108   1.285   0.051  0.00  0.00    +0.210 A 
ATOM      6  C   LIG    1        1.325   1.948   0.103  0.00  0.00    +0.090 A 
ENDROOT
BRANCH   5   7
ATOM      7  N   LIG    1       -1.081   2.009   0.029  0.00  0.00    -0.640 N 
ATOM      8  H   LIG    1       -1.901   1.605   0.354  0.00  0.00    +0.440 HD
ATOM      9  C   LIG    1       -1.092   3.272  -0.442  0.00  0.00    +0.580 C 
ATOM     10  O   LIG    1       -0.088   3.743  -0.943  0.00  0.00    -0.490 OA
BRANCH   9  11
ATOM     11  C   LIG    1       -2.315   4.077  -0.352  0.00  0.00    +0.070 C 
ATOM     12  N   LIG    1       -3.381   3.563   0.178  0.00  0.00    -0.190 NA
ATOM     13  N   LIG    1       -4.564   4.302   0.283  0.00  0.00    -0.460 N 
ATOM     14  C   LIG    1       -4.760   5.388  -0.491  0.00  0.00    +0.500 C 
ATOM     15  C   LIG    1       -3.692   5.813  -1.467  0.00  0.00    +0.090 C 
ATOM     16  O   LIG    1       -5.790   6.020  -0.403  0.00  0.00    -0.510 OA
ATOM     17  C   LIG    1       -5.599   3.892   1.236  0.00  0.00    +0.350 C 
ATOM     18  C   LIG    1       -2.316   5.486  -0.882  0.00  0.00    +0.120 C 
ENDBRANCH   9  11
ENDBRANCH   5   7
BRANCH   1  19
ATOM     19  C   LIG    1        3.812   1.926   0.173  0.00  0.00    +0.510 C 
ATOM     20  O   LIG    1        3.842   3.140   0.205  0.00  0.00    -0.490 OA
BRANCH  19  22
ATOM     21  C   LIG    1        6.197   1.982   0.244  0.00  0.00    +0.290 C 
ATOM     22  O   LIG    1        4.961   1.223   0.189  0.00  0.00    -0.350 OA
ENDBRANCH  19  22
ENDBRANCH   1  19
BRANCH   4  23
ATOM     23  C   LIG    1       -1.214  -0.828  -0.042  0.00  0.00    +0.510 C 
ATOM     24  O   LIG    1       -2.248  -0.201  -0.153  0.00  0.00    -0.500 OA
BRANCH  23  25
ATOM     25  O   LIG    1       -1.246  -2.173   0.030  0.00  0.00    -0.350 OA
ATOM     26  C   LIG    1       -2.552  -2.805  -0.031  0.00  0.00    +0.290 C 
ENDBRANCH  23  25
ENDBRANCH   4  23
TORSDOF 6
