REMARK  Name = ZINCpk00000e9QhU.0
REMARK                            x       y       z     vdW  Elec       q    Type
REMARK                         _______ _______ _______ _____ _____    ______ ____
ROOT
ATOM      1  C   LIG    1       -0.043   0.595   0.112  0.00  0.00    +0.490 A 
ATOM      2  N   LIG    1        0.129  -0.713  -0.015  0.00  0.00    -0.550 NA
ATOM      3  C   LIG    1        1.345  -1.228  -0.097  0.00  0.00    +0.350 A 
ATOM      4  C   LIG    1        2.444  -0.382  -0.050  0.00  0.00    -0.250 A 
ATOM      5  C   LIG    1        3.827  -0.966  -0.138  0.00  0.00    +0.290 C 
ATOM      6  N   LIG    1        4.801   0.077  -0.478  0.00  0.00    -0.510 NA
ATOM      7  C   LIG    1        4.675   1.216   0.445  0.00  0.00    +0.220 C 
ATOM      8  C   LIG    1        3.372   1.955   0.134  0.00  0.00    +0.080 C 
ATOM      9  C   LIG    1        2.229   0.976   0.081  0.00  0.00    +0.210 A 
ATOM     10  N   LIG    1        0.985   1.428   0.160  0.00  0.00    -0.530 NA
ENDROOT
BRANCH   1  15
ATOM     11  C   LIG    1       -5.273   1.966   1.430  0.00  0.00    +0.190 C 
ATOM     12  N   LIG    1       -3.909   1.427   1.347  0.00  0.00    -0.550 NA
ATOM     13  C   LIG    1       -3.730   0.634   0.123  0.00  0.00    +0.180 C 
ATOM     14  C   LIG    1       -2.325   0.026   0.113  0.00  0.00    +0.220 C 
ATOM     15  N   LIG    1       -1.328   1.103   0.190  0.00  0.00    -0.460 N 
ATOM     16  C   LIG    1       -1.507   1.896   1.414  0.00  0.00    +0.220 C 
ATOM     17  C   LIG    1       -2.912   2.503   1.424  0.00  0.00    +0.200 C 
ENDBRANCH   1  15
BRANCH   6  18
ATOM     18  C   LIG    1        4.643   0.510  -1.873  0.00  0.00    +0.180 C 
BRANCH  18  19
ATOM     19  C   LIG    1        5.864   1.331  -2.293  0.00  0.00    +0.170 C 
BRANCH  19  20
ATOM     20  O   LIG    1        7.027   0.501  -2.273  0.00  0.00    -0.370 OA
BRANCH  20  21
ATOM     21  C   LIG    1        8.229   1.175  -2.652  0.00  0.00    +0.160 C 
BRANCH  21  22
ATOM     22  C   LIG    1        9.402   0.195  -2.595  0.00  0.00    -0.010 C 
ATOM     23  C   LIG    1       10.038   0.076  -1.200  0.00  0.00    +0.020 C 
ATOM     24  C   LIG    1       11.402   0.034  -1.913  0.00  0.00    +0.010 C 
ATOM     25  C   LIG    1       10.734   0.801  -3.067  0.00  0.00    +0.020 C 
ENDBRANCH  21  22
ENDBRANCH  20  21
ENDBRANCH  19  20
ENDBRANCH  18  19
ENDBRANCH   6  18
TORSDOF 6
