REMARK  Name = ZINCpk00000eaTFt.0
REMARK                            x       y       z     vdW  Elec       q    Type
REMARK                         _______ _______ _______ _____ _____    ______ ____
ROOT
ATOM      1  N   LIG    1        3.565   1.890  -0.022  0.00  0.00    -0.500 NA
ATOM      2  C   LIG    1        3.420   2.868   1.087  0.00  0.00    +0.200 C 
ATOM      3  C   LIG    1        4.854   3.430   1.254  0.00  0.00    +0.020 C 
ATOM      4  C   LIG    1        5.743   2.189   1.010  0.00  0.00    +0.070 C 
ATOM      5  C   LIG    1        4.863   1.217   0.202  0.00  0.00    +0.180 C 
ENDROOT
BRANCH   4   6
ATOM      6  C   LIG    1        6.967   2.569   0.218  0.00  0.00    -0.230 A 
ATOM      7  C   LIG    1        8.252   2.378   0.597  0.00  0.00    +0.230 A 
ATOM      8  N   LIG    1        9.045   2.853  -0.386  0.00  0.00    -0.370 N 
ATOM      9  N   LIG    1        8.221   3.353  -1.402  0.00  0.00    -0.300 NA
ATOM     10  C   LIG    1        6.976   3.177  -1.042  0.00  0.00    +0.240 A 
BRANCH   8  11
ATOM     11  C   LIG    1       10.510   2.848  -0.389  0.00  0.00    +0.250 C 
ATOM     12  C   LIG    1       11.017   1.584   0.310  0.00  0.00    +0.060 C 
ATOM     13  C   LIG    1       11.026   4.082   0.353  0.00  0.00    +0.040 C 
ENDBRANCH   8  11
ENDBRANCH   4   6
BRANCH   1  14
ATOM     14  C   LIG    1        2.462   0.920  -0.017  0.00  0.00    +0.210 C 
BRANCH  14  17
ATOM     15  N   LIG    1       -0.011   0.966   0.007  0.00  0.00    -0.630 N 
ATOM     16  H   LIG    1        0.002  -0.004   0.002  0.00  0.00    +0.420 HD
ATOM     17  C   LIG    1        1.147   1.655   0.000  0.00  0.00    +0.520 C 
ATOM     18  O   LIG    1        1.130   2.868   0.007  0.00  0.00    -0.490 OA
BRANCH  15  22
ATOM     19  C   LIG    1       -3.525   4.502   0.043  0.00  0.00    +0.180 C 
ATOM     20  C   LIG    1       -2.763   3.202   0.032  0.00  0.00    -0.020 A 
ATOM     21  C   LIG    1       -1.418   3.054   0.031  0.00  0.00    -0.040 A 
ATOM     22  C   LIG    1       -1.228   1.647   0.017  0.00  0.00    +0.250 A 
ATOM     23  N   LIG    1       -2.424   1.118   0.020  0.00  0.00    -0.390 NA
ATOM     24  O   LIG    1       -3.284   1.967   0.029  0.00  0.00    +0.100 OA
ENDBRANCH  15  22
ENDBRANCH  14  17
ENDBRANCH   1  14
BRANCH   3  25
ATOM     25  C   LIG    1        5.064   3.978   2.667  0.00  0.00    +0.180 C 
BRANCH  25  26
ATOM     26  O   LIG    1        4.320   5.188   2.824  0.00  0.00    -0.570 OA
ATOM     27  H   LIG    1        4.407   5.592   3.698  0.00  0.00    +0.380 HD
ENDBRANCH  25  26
ENDBRANCH   3  25
TORSDOF 7
