REMARK  Name = ZINCtV000002OGT2.0
REMARK                            x       y       z     vdW  Elec       q    Type
REMARK                         _______ _______ _______ _____ _____    ______ ____
ROOT
ATOM      1  O   LIG    1        5.087  -3.773   0.290  0.00  0.00    -0.500 OA
ATOM      2  C   LIG    1        5.021  -2.558   0.301  0.00  0.00    +0.570 C 
ATOM      3  N   LIG    1        6.148  -1.823   0.386  0.00  0.00    -0.620 N 
ATOM      4  H   LIG    1        6.095  -0.855   0.395  0.00  0.00    +0.420 HD
ENDROOT
BRANCH   2   5
ATOM      5  C   LIG    1        3.708  -1.890   0.221  0.00  0.00    -0.150 A 
ATOM      6  C   LIG    1        2.539  -2.651   0.133  0.00  0.00    +0.120 A 
ATOM      7  C   LIG    1        1.316  -2.025   0.059  0.00  0.00    +0.020 A 
ATOM      8  C   LIG    1        1.242  -0.635   0.072  0.00  0.00    +0.180 A 
ATOM      9  C   LIG    1        2.405   0.126   0.155  0.00  0.00    -0.010 A 
ATOM     10  C   LIG    1        3.631  -0.495   0.235  0.00  0.00    +0.070 A 
BRANCH   8  11
ATOM     11  N   LIG    1        0.002  -0.004  -0.003  0.00  0.00    -0.670 N 
ATOM     12  H   LIG    1       -0.087   0.834  -0.483  0.00  0.00    +0.410 HD
ATOM     13  C   LIG    1       -1.073  -0.558   0.591  0.00  0.00    +0.600 C 
ATOM     14  O   LIG    1       -0.980  -1.649   1.121  0.00  0.00    -0.500 OA
BRANCH  13  15
ATOM     15  C   LIG    1       -2.353   0.156   0.602  0.00  0.00    -0.280 A 
ATOM     16  C   LIG    1       -3.510  -0.299   1.170  0.00  0.00    +0.120 A 
ATOM     17  C   LIG    1       -4.562   0.575   1.036  0.00  0.00    +0.000 A 
ATOM     18  C   LIG    1       -4.279   1.708   0.381  0.00  0.00    -0.050 A 
ATOM     19  S   LIG    1       -2.643   1.739  -0.104  0.00  0.00    +0.200 S 
ENDBRANCH  13  15
ENDBRANCH   8  11
ENDBRANCH   2   5
BRANCH   3  20
ATOM     20  C   LIG    1        7.383  -2.452   0.461  0.00  0.00    +0.240 A 
ATOM     21  N   LIG    1        8.521  -1.839   0.541  0.00  0.00    -0.490 NA
ATOM     22  C   LIG    1        9.608  -2.597   0.609  0.00  0.00    +0.140 A 
ATOM     23  C   LIG    1        9.361  -3.919   0.575  0.00  0.00    -0.120 A 
ATOM     24  S   LIG    1        7.618  -4.145   0.454  0.00  0.00    +0.270 S 
BRANCH  22  25
ATOM     25  C   LIG    1       10.978  -2.034   0.709  0.00  0.00    -0.020 A 
ATOM     26  C   LIG    1       11.217  -0.717   0.843  0.00  0.00    -0.120 A 
ATOM     27  S   LIG    1       12.951  -0.438   0.928  0.00  0.00    +0.210 S 
ATOM     28  C   LIG    1       13.272  -2.160   0.775  0.00  0.00    -0.150 A 
ATOM     29 CL   LIG    1       14.850  -2.882   0.760  0.00  0.00    +0.000 Cl
ATOM     30 CL   LIG    1       10.000   0.518   0.919  0.00  0.00    +0.020 Cl
ATOM     31  C   LIG    1       12.124  -2.829   0.678  0.00  0.00    +0.060 A 
ENDBRANCH  22  25
ENDBRANCH   3  20
TORSDOF 5
