REMARK  Name = ZINCpe000000WkJv.0
REMARK                            x       y       z     vdW  Elec       q    Type
REMARK                         _______ _______ _______ _____ _____    ______ ____
ROOT
ATOM      1  C   LIG    1       -1.187   1.624   0.017  0.00  0.00    +0.570 C 
ATOM      2  N   LIG    1       -0.011   0.966   0.007  0.00  0.00    -0.710 N 
ATOM      3  H   LIG    1        0.002  -0.004   0.002  0.00  0.00    +0.410 HD
ATOM      4  O   LIG    1       -1.204   2.839   0.023  0.00  0.00    -0.530 OA
ENDROOT
BRANCH   1   9
ATOM      5  C   LIG    1       -3.633  -1.233   0.012  0.00  0.00    +0.160 A 
ATOM      6  C   LIG    1       -4.843  -0.554   0.022  0.00  0.00    -0.130 A 
ATOM      7  C   LIG    1       -4.864   0.834   0.030  0.00  0.00    +0.160 A 
ATOM      8  C   LIG    1       -3.676   1.546   0.028  0.00  0.00    +0.020 A 
ATOM      9  C   LIG    1       -2.458   0.867   0.018  0.00  0.00    -0.060 A 
ATOM     10  C   LIG    1       -2.441  -0.528   0.005  0.00  0.00    -0.020 A 
BRANCH   5  12
ATOM     11  C   LIG    1       -4.884  -3.255   0.007  0.00  0.00    +0.250 C 
ATOM     12  O   LIG    1       -3.618  -2.592   0.005  0.00  0.00    -0.310 OA
ENDBRANCH   5  12
BRANCH   7  13
ATOM     13  O   LIG    1       -6.052   1.494   0.039  0.00  0.00    -0.310 OA
ATOM     14  C   LIG    1       -7.238   0.697   0.040  0.00  0.00    +0.250 C 
ENDBRANCH   7  13
ENDBRANCH   1   9
BRANCH   2  15
ATOM     15  C   LIG    1        1.248   1.716  -0.001  0.00  0.00    +0.310 C 
BRANCH  15  16
ATOM     16  C   LIG    1        2.406   0.752  -0.017  0.00  0.00    +0.510 C 
ATOM     17  N   LIG    1        3.671   1.218  -0.026  0.00  0.00    -0.720 N 
ATOM     18  H   LIG    1        3.835   2.174  -0.023  0.00  0.00    +0.410 HD
ATOM     19  O   LIG    1        2.201  -0.443  -0.021  0.00  0.00    -0.530 OA
BRANCH  17  20
ATOM     20  C   LIG    1        4.797   0.282  -0.042  0.00  0.00    +0.270 C 
BRANCH  20  21
ATOM     21  C   LIG    1        6.111   1.065  -0.051  0.00  0.00    +0.030 C 
BRANCH  21  22
ATOM     22  C   LIG    1        7.287   0.086  -0.067  0.00  0.00    +0.330 C 
BRANCH  22  23
ATOM     23  N   LIG    1        8.546   0.836  -0.075  0.00  0.00    -0.380 N 
ATOM     24  C   LIG    1        9.557   0.700   0.808  0.00  0.00    +0.220 A 
ATOM     25  C   LIG    1       10.533   1.568   0.456  0.00  0.00    -0.120 A 
ATOM     26  C   LIG    1       10.104   2.259  -0.682  0.00  0.00    +0.230 A 
ATOM     27  N   LIG    1        8.915   1.817  -1.005  0.00  0.00    -0.300 NA
ENDBRANCH  22  23
ENDBRANCH  21  22
ENDBRANCH  20  21
ENDBRANCH  17  20
ENDBRANCH  15  16
ENDBRANCH   2  15
TORSDOF 9
