REMARK  Name = ZINCrg00000fRgpx.0
REMARK                            x       y       z     vdW  Elec       q    Type
REMARK                         _______ _______ _______ _____ _____    ______ ____
ROOT
ATOM      1  C   LIG    1       -1.331   2.074   0.020  0.00  0.00    +0.420 C 
ENDROOT
BRANCH   1   2
ATOM      2  N   LIG    1       -1.083   3.518   0.026  0.00  0.00    -0.570 N 
ATOM      3  C   LIG    1       -0.962   4.265  -1.077  0.00  0.00    +0.710 C 
ATOM      4  N   LIG    1       -0.738   5.563  -0.797  0.00  0.00    -0.710 N 
ATOM      5  H   LIG    1       -0.618   6.283  -1.435  0.00  0.00    +0.440 HD
ATOM      6  C   LIG    1       -0.711   5.673   0.668  0.00  0.00    +0.130 C 
ATOM      7  C   LIG    1        0.651   6.171   1.140  0.00  0.00    +0.060 C 
ATOM      8  C   LIG    1        0.667   6.246   2.669  0.00  0.00    +0.020 C 
ATOM      9  C   LIG    1       -0.436   7.194   3.144  0.00  0.00    +0.010 C 
ATOM     10  C   LIG    1       -1.796   6.668   2.683  0.00  0.00    +0.030 C 
ATOM     11  C   LIG    1       -1.823   6.595   1.155  0.00  0.00    +0.010 C 
ATOM     12  C   LIG    1       -3.176   6.049   0.694  0.00  0.00    +0.020 C 
ATOM     13  O   LIG    1       -1.043   3.822  -2.206  0.00  0.00    -0.530 OA
ATOM     14  C   LIG    1       -0.955   4.260   1.146  0.00  0.00    +0.540 C 
ATOM     15  O   LIG    1       -1.019   3.874   2.293  0.00  0.00    -0.450 OA
ENDBRANCH   1   2
BRANCH   1  16
ATOM     16  C   LIG    1       -0.016   1.338   0.009  0.00  0.00    +0.460 C 
ATOM     17  O   LIG    1        1.022   1.956   0.003  0.00  0.00    -0.490 OA
BRANCH  16  18
ATOM     18  O   LIG    1        0.002  -0.004   0.002  0.00  0.00    -0.350 OA
BRANCH  18  19
ATOM     19  C   LIG    1        1.305  -0.646  -0.014  0.00  0.00    +0.380 C 
BRANCH  19  24
ATOM     20  N   LIG    1        1.049  -2.947   1.056  0.00  0.00    -0.290 N 
ATOM     21  N   LIG    1        0.897  -4.151   0.620  0.00  0.00    -0.080 NA
ATOM     22  N   LIG    1        0.886  -4.128  -0.668  0.00  0.00    -0.070 NA
ATOM     23  N   LIG    1        1.026  -2.914  -1.075  0.00  0.00    -0.270 NA
ATOM     24  C   LIG    1        1.127  -2.142  -0.020  0.00  0.00    +0.170 A 
BRANCH  20  25
ATOM     25  C   LIG    1        1.119  -2.532   2.459  0.00  0.00    +0.340 C 
BRANCH  25  26
ATOM     26  C   LIG    1       -0.289  -2.219   2.969  0.00  0.00    +0.020 C 
BRANCH  26  28
ATOM     27  C   LIG    1       -1.624  -1.472   4.945  0.00  0.00    +0.030 C 
ATOM     28  C   LIG    1       -0.216  -1.786   4.435  0.00  0.00    +0.020 C 
ENDBRANCH  26  28
ENDBRANCH  25  26
ENDBRANCH  20  25
ENDBRANCH  19  24
ENDBRANCH  18  19
ENDBRANCH  16  18
ENDBRANCH   1  16
TORSDOF 8
