REMARK  Name = ZINCvU0000000JED.0
REMARK                            x       y       z     vdW  Elec       q    Type
REMARK                         _______ _______ _______ _____ _____    ______ ____
ROOT
ATOM      1  C   LIG    1        3.682  -0.670  -0.013  0.00  0.00    -0.060 A 
ATOM      2  C   LIG    1        4.433   0.074   0.884  0.00  0.00    +0.020 A 
ATOM      3  C   LIG    1        4.326   1.474   0.879  0.00  0.00    +0.190 A 
ATOM      4  N   LIG    1        3.531   2.115   0.048  0.00  0.00    -0.430 NA
ATOM      5  C   LIG    1        2.773   1.480  -0.848  0.00  0.00    +0.130 A 
ATOM      6  C   LIG    1        1.933   2.191  -1.723  0.00  0.00    +0.050 A 
ATOM      7  C   LIG    1        1.170   1.515  -2.625  0.00  0.00    +0.030 A 
ATOM      8  C   LIG    1        1.206   0.125  -2.699  0.00  0.00    +0.030 A 
ATOM      9  C   LIG    1        2.009  -0.598  -1.866  0.00  0.00    +0.040 A 
ATOM     10  C   LIG    1        2.806   0.064  -0.927  0.00  0.00    -0.070 A 
ENDROOT
BRANCH   1  12
ATOM     11  O   LIG    1        2.748  -2.812   0.033  0.00  0.00    -0.520 OA
ATOM     12  C   LIG    1        3.762  -2.147  -0.045  0.00  0.00    +0.570 C 
ATOM     13  N   LIG    1        4.960  -2.754  -0.161  0.00  0.00    -0.600 N 
ATOM     14  C   LIG    1        6.200  -1.966  -0.176  0.00  0.00    +0.280 C 
ATOM     15  C   LIG    1        7.009  -2.334  -1.419  0.00  0.00    +0.040 C 
ATOM     16  C   LIG    1        7.225  -3.849  -1.454  0.00  0.00    +0.070 C 
ATOM     17  C   LIG    1        5.871  -4.558  -1.529  0.00  0.00    +0.030 C 
ATOM     18  C   LIG    1        5.050  -4.215  -0.282  0.00  0.00    +0.290 C 
BRANCH  16  19
ATOM     19  C   LIG    1        8.049  -4.211  -2.663  0.00  0.00    +0.090 A 
ATOM     20  C   LIG    1        7.894  -3.504  -3.842  0.00  0.00    +0.220 A 
ATOM     21  N   LIG    1        8.617  -3.821  -4.902  0.00  0.00    -0.430 NA
ATOM     22  C   LIG    1        9.487  -4.813  -4.835  0.00  0.00    +0.210 A 
ATOM     23  C   LIG    1        9.642  -5.519  -3.656  0.00  0.00    +0.230 A 
ATOM     24  N   LIG    1        8.923  -5.199  -2.595  0.00  0.00    -0.440 NA
ENDBRANCH  16  19
ENDBRANCH   1  12
BRANCH   3  25
ATOM     25  C   LIG    1        5.134   2.257   1.843  0.00  0.00    -0.050 A 
ATOM     26  C   LIG    1        5.980   1.605   2.740  0.00  0.00    +0.040 A 
ATOM     27  C   LIG    1        6.735   2.340   3.631  0.00  0.00    +0.010 A 
ATOM     28  C   LIG    1        6.645   3.720   3.646  0.00  0.00    +0.050 A 
ATOM     29  C   LIG    1        5.804   4.373   2.763  0.00  0.00    +0.020 A 
ATOM     30  C   LIG    1        5.048   3.650   1.862  0.00  0.00    -0.000 A 
ATOM     31 CL   LIG    1        3.993   4.471   0.754  0.00  0.00    -0.030 Cl
ENDBRANCH   3  25
TORSDOF 3
