REMARK  Name = ZINCrD00000hQ5gK.0
REMARK                            x       y       z     vdW  Elec       q    Type
REMARK                         _______ _______ _______ _____ _____    ______ ____
ROOT
ATOM      1  N   LIG    1        1.947  -0.839   3.280  0.00  0.00    -0.650 N 
ATOM      2  H   LIG    1        2.769  -1.349   3.342  0.00  0.00    +0.420 HD
ATOM      3  C   LIG    1        1.739  -0.021   2.229  0.00  0.00    +0.520 C 
ATOM      4  O   LIG    1        0.711   0.617   2.151  0.00  0.00    -0.430 OA
ENDROOT
BRANCH   1   9
ATOM      5  C   LIG    1        2.594  -4.218   7.807  0.00  0.00    +0.180 C 
ATOM      6  C   LIG    1        1.821  -3.225   6.978  0.00  0.00    +0.030 A 
ATOM      7  C   LIG    1        2.244  -2.697   5.820  0.00  0.00    -0.150 A 
ATOM      8  C   LIG    1        1.181  -1.794   5.374  0.00  0.00    -0.260 A 
ATOM      9  C   LIG    1        0.984  -0.950   4.274  0.00  0.00    +0.460 A 
ATOM     10  N   LIG    1       -0.147  -0.254   4.209  0.00  0.00    -0.520 NA
ATOM     11  C   LIG    1       -1.066  -0.361   5.151  0.00  0.00    +0.570 A 
ATOM     12  N   LIG    1       -0.921  -1.142   6.200  0.00  0.00    -0.530 NA
ATOM     13  C   LIG    1        0.178  -1.874   6.357  0.00  0.00    +0.320 A 
ATOM     14  C   LIG    1        3.548  -2.978   5.119  0.00  0.00    +0.130 C 
ATOM     15  O   LIG    1        0.606  -2.739   7.291  0.00  0.00    -0.170 OA
ENDBRANCH   1   9
BRANCH   3  16
ATOM     16  C   LIG    1        2.784   0.099   1.150  0.00  0.00    -0.060 C 
ATOM     17  C   LIG    1        2.446  -0.471  -0.229  0.00  0.00    +0.090 C 
ATOM     18  C   LIG    1        2.489   1.044  -0.017  0.00  0.00    +0.060 C 
BRANCH  18  19
ATOM     19  C   LIG    1        1.175   1.782   0.000  0.00  0.00    -0.050 A 
ATOM     20  C   LIG    1       -0.013   1.076   0.008  0.00  0.00    +0.070 A 
ATOM     21  C   LIG    1       -1.220   1.750   0.017  0.00  0.00    +0.020 A 
ATOM     22  C   LIG    1       -1.241   3.136   0.030  0.00  0.00    +0.060 A 
ATOM     23  O   LIG    1       -2.438   3.785   0.040  0.00  0.00    -0.310 OA
ATOM     24  C   LIG    1       -2.417   5.164   0.425  0.00  0.00    +0.220 C 
ATOM     25  C   LIG    1       -1.270   5.855  -0.325  0.00  0.00    +0.220 C 
ATOM     26  O   LIG    1       -0.045   5.207   0.035  0.00  0.00    -0.310 OA
ATOM     27  C   LIG    1       -0.046   3.846   0.024  0.00  0.00    +0.040 A 
ATOM     28  C   LIG    1        1.161   3.164   0.008  0.00  0.00    +0.030 A 
ENDBRANCH  18  19
ENDBRANCH   3  16
TORSDOF 3
