REMARK  Name = ZINCpe000000ZkoU.0
REMARK                            x       y       z     vdW  Elec       q    Type
REMARK                         _______ _______ _______ _____ _____    ______ ____
ROOT
ATOM      1  O   LIG    1        0.828  -0.606   1.006  0.00  0.00    -0.530 OA
ATOM      2  C   LIG    1       -0.122  -0.009   0.537  0.00  0.00    +0.560 C 
ATOM      3  N   LIG    1       -1.156  -0.694   0.009  0.00  0.00    -0.720 N 
ATOM      4  H   LIG    1       -1.913  -0.217  -0.365  0.00  0.00    +0.400 HD
ENDROOT
BRANCH   3   5
ATOM      5  C   LIG    1       -1.136  -2.159   0.001  0.00  0.00    +0.270 C 
ATOM      6  C   LIG    1       -1.683  -2.776  -1.298  0.00  0.00    -0.010 C 
ATOM      7  C   LIG    1       -2.372  -3.832  -0.416  0.00  0.00    +0.170 C 
ATOM      8  C   LIG    1       -2.337  -2.794   0.712  0.00  0.00    -0.090 C 
ATOM      9  C   LIG    1       -3.571  -1.892   0.753  0.00  0.00    +0.020 C 
ATOM     10  C   LIG    1       -3.377  -0.836   1.847  0.00  0.00    +0.210 C 
ATOM     11  O   LIG    1       -3.101  -1.487   3.089  0.00  0.00    -0.380 OA
ATOM     12  C   LIG    1       -1.891  -2.246   3.100  0.00  0.00    +0.200 C 
ATOM     13  C   LIG    1       -1.997  -3.385   2.079  0.00  0.00    +0.020 C 
BRANCH   7  14
ATOM     14  O   LIG    1       -1.562  -4.982  -0.161  0.00  0.00    -0.540 OA
ATOM     15  H   LIG    1       -1.580  -5.640  -0.869  0.00  0.00    +0.380 HD
ENDBRANCH   7  14
ENDBRANCH   3   5
BRANCH   2  16
ATOM     16  C   LIG    1       -0.142   1.467   0.545  0.00  0.00    -0.160 A 
ATOM     17  C   LIG    1       -1.230   2.156   0.001  0.00  0.00    +0.070 A 
ATOM     18  C   LIG    1       -1.248   3.533   0.015  0.00  0.00    +0.010 A 
ATOM     19  C   LIG    1       -0.179   4.238   0.559  0.00  0.00    +0.190 A 
ATOM     20  C   LIG    1        0.908   3.556   1.096  0.00  0.00    -0.010 A 
ATOM     21  C   LIG    1        0.929   2.179   1.091  0.00  0.00    +0.120 A 
BRANCH  19  22
ATOM     22  N   LIG    1       -0.198   5.634   0.567  0.00  0.00    -0.480 N 
ATOM     23  C   LIG    1        0.792   6.461   1.081  0.00  0.00    +0.170 A 
ATOM     24  C   LIG    1        0.409   7.720   0.897  0.00  0.00    +0.200 A 
ATOM     25  N   LIG    1       -0.831   7.702   0.275  0.00  0.00    -0.640 N 
ATOM     26  H   LIG    1       -1.353   8.480   0.023  0.00  0.00    +0.440 HD
ATOM     27  C   LIG    1       -1.183   6.416   0.083  0.00  0.00    +0.660 A 
ATOM     28  O   LIG    1       -2.213   6.027  -0.439  0.00  0.00    -0.550 OA
ENDBRANCH  19  22
ENDBRANCH   2  16
TORSDOF 4
