REMARK  Name = ZINCrD000007284M.0
REMARK                            x       y       z     vdW  Elec       q    Type
REMARK                         _______ _______ _______ _____ _____    ______ ____
ROOT
ATOM      1  O   LIG    1       -0.490  -2.611   2.321  0.00  0.00    -0.320 OA
ENDROOT
BRANCH   1   2
ATOM      2  C   LIG    1       -0.561  -1.280   2.127  0.00  0.00    +0.490 C 
ATOM      3  O   LIG    1       -1.219  -0.835   1.208  0.00  0.00    -0.470 OA
BRANCH   2   9
ATOM      4  C   LIG    1        0.090   1.019   2.832  0.00  0.00    -0.610 A 
ATOM      5  C   LIG    1        0.762   1.870   3.684  0.00  0.00    +0.130 A 
ATOM      6  C   LIG    1        1.510   1.360   4.730  0.00  0.00    +0.040 A 
ATOM      7  C   LIG    1        1.589  -0.007   4.930  0.00  0.00    +0.060 A 
ATOM      8  C   LIG    1        0.922  -0.870   4.085  0.00  0.00    +0.080 A 
ATOM      9  C   LIG    1        0.161  -0.362   3.031  0.00  0.00    -0.040 A 
BRANCH   4  10
ATOM     10  S   LIG    1       -0.862   1.671   1.500  0.00  0.00    +2.500 S 
ATOM     11  O   LIG    1       -2.128   1.040   1.633  0.00  0.00    -0.910 OA
ATOM     12  O   LIG    1       -0.728   3.079   1.631  0.00  0.00    -0.950 OA
BRANCH  10  14
ATOM     13  C   LIG    1       -0.753   1.593  -1.232  0.00  0.00    +0.090 C 
ATOM     14  C   LIG    1       -0.013   1.086   0.008  0.00  0.00    -0.330 C 
ENDBRANCH  10  14
ENDBRANCH   4  10
ENDBRANCH   2   9
ENDBRANCH   1   2
BRANCH   1  15
ATOM     15  C   LIG    1       -1.225  -3.453   1.394  0.00  0.00    +0.250 C 
BRANCH  15  16
ATOM     16  C   LIG    1       -1.029  -4.900   1.766  0.00  0.00    +0.400 C 
ATOM     17  O   LIG    1       -0.338  -5.193   2.719  0.00  0.00    -0.430 OA
BRANCH  16  18
ATOM     18  C   LIG    1       -1.676  -5.958   0.974  0.00  0.00    -0.170 A 
ATOM     19  C   LIG    1       -2.479  -5.627  -0.122  0.00  0.00    +0.050 A 
ATOM     20  C   LIG    1       -3.075  -6.627  -0.855  0.00  0.00    +0.000 A 
ATOM     21  C   LIG    1       -2.898  -7.963  -0.511  0.00  0.00    -0.040 A 
ATOM     22  C   LIG    1       -3.601  -8.999  -1.350  0.00  0.00    +0.070 C 
ATOM     23  C   LIG    1       -2.977 -10.376  -1.139  0.00  0.00    +0.020 C 
ATOM     24  C   LIG    1       -2.910 -10.651   0.368  0.00  0.00    +0.020 C 
ATOM     25  C   LIG    1       -1.861  -9.726   0.981  0.00  0.00    +0.080 C 
ATOM     26  C   LIG    1       -2.107  -8.298   0.568  0.00  0.00    -0.090 A 
ATOM     27  C   LIG    1       -1.499  -7.300   1.313  0.00  0.00    +0.090 A 
ENDBRANCH  16  18
ENDBRANCH  15  16
ENDBRANCH   1  15
TORSDOF 7
