REMARK  Name = ZINCvU0000000HVn.0
REMARK                            x       y       z     vdW  Elec       q    Type
REMARK                         _______ _______ _______ _____ _____    ______ ____
ROOT
ATOM      1  C   LIG    1       -1.019   6.186  -0.726  0.00  0.00    -0.010 C 
ATOM      2  C   LIG    1       -2.327   5.400  -0.833  0.00  0.00    +0.060 C 
ATOM      3  C   LIG    1       -2.357   4.316   0.250  0.00  0.00    +0.290 C 
ATOM      4  N   LIG    1       -1.146   3.493   0.128  0.00  0.00    -0.600 N 
ATOM      5  C   LIG    1        0.164   4.158   0.133  0.00  0.00    +0.260 C 
ATOM      6  C   LIG    1       -1.235   2.152   0.020  0.00  0.00    +0.590 C 
ATOM      7  O   LIG    1       -2.325   1.622  -0.081  0.00  0.00    -0.500 OA
ATOM      8  C   LIG    1        0.165   5.244  -0.954  0.00  0.00    +0.040 C 
ENDROOT
BRANCH   6   9
ATOM      9  C   LIG    1       -0.017   1.333   0.024  0.00  0.00    -0.210 A 
ATOM     10  C   LIG    1        0.209   0.302  -0.799  0.00  0.00    +0.020 A 
ATOM     11  C   LIG    1        1.446  -0.346  -0.632  0.00  0.00    -0.050 A 
ATOM     12  C   LIG    1        1.970  -1.453  -1.340  0.00  0.00    +0.090 A 
ATOM     13  C   LIG    1        3.198  -1.949  -1.034  0.00  0.00    +0.080 A 
ATOM     14  C   LIG    1        3.961  -1.379  -0.022  0.00  0.00    -0.150 A 
ATOM     15  C   LIG    1        3.479  -0.302   0.683  0.00  0.00    +0.130 A 
ATOM     16  C   LIG    1        2.219   0.226   0.386  0.00  0.00    -0.150 A 
ATOM     17 CL   LIG    1       -0.946  -0.202  -1.992  0.00  0.00    -0.010 Cl
ATOM     18  S   LIG    1        1.346   1.575   1.103  0.00  0.00    +0.200 S 
BRANCH  14  19
ATOM     19  C   LIG    1        5.321  -1.942   0.302  0.00  0.00    +0.510 C 
ATOM     20  F   LIG    1        6.147  -0.920   0.782  0.00  0.00    -0.170 F 
ATOM     21  F   LIG    1        5.885  -2.494  -0.853  0.00  0.00    -0.170 F 
ATOM     22  F   LIG    1        5.193  -2.936   1.279  0.00  0.00    -0.170 F 
ENDBRANCH  14  19
ENDBRANCH   6   9
BRANCH   1  24
ATOM     23  O   LIG    1       -1.942   7.408  -2.522  0.00  0.00    -0.530 OA
ATOM     24  C   LIG    1       -1.001   7.275  -1.768  0.00  0.00    +0.520 C 
ATOM     25  N   LIG    1        0.060   8.100  -1.863  0.00  0.00    -0.730 N 
ATOM     26  H   LIG    1        0.813   7.993  -1.260  0.00  0.00    +0.400 HD
BRANCH  25  27
ATOM     27  C   LIG    1        0.077   9.158  -2.876  0.00  0.00    +0.230 C 
ATOM     28  C   LIG    1        0.588   8.588  -4.200  0.00  0.00    +0.000 C 
ATOM     29  C   LIG    1        0.606   9.693  -5.258  0.00  0.00    +0.010 C 
ATOM     30  C   LIG    1        1.530  10.823  -4.800  0.00  0.00    +0.000 C 
ATOM     31  C   LIG    1        1.019  11.394  -3.475  0.00  0.00    +0.020 C 
ATOM     32  C   LIG    1        1.001  10.288  -2.417  0.00  0.00    +0.010 C 
ENDBRANCH  25  27
ENDBRANCH   1  24
TORSDOF 4
