REMARK  Name = ZINCrD000006V8Cs.0
REMARK                            x       y       z     vdW  Elec       q    Type
REMARK                         _______ _______ _______ _____ _____    ______ ____
ROOT
ATOM      1  C   LIG    1        1.280   1.980   0.001  0.00  0.00    +0.040 C 
ATOM      2  C   LIG    1        1.361   2.854   1.254  0.00  0.00    +0.060 C 
ENDROOT
BRANCH   1   8
ATOM      3  C   LIG    1        6.527  -1.638  -1.060  0.00  0.00    +0.130 A 
ATOM      4  C   LIG    1        5.639  -1.671  -0.023  0.00  0.00    -0.030 A 
ATOM      5  C   LIG    1        4.558  -0.774  -0.006  0.00  0.00    -0.010 A 
ATOM      6  C   LIG    1        3.624  -0.777   1.044  0.00  0.00    +0.010 A 
ATOM      7  C   LIG    1        2.592   0.110   1.031  0.00  0.00    +0.050 A 
ATOM      8  C   LIG    1        2.439   1.016  -0.016  0.00  0.00    -0.080 A 
ATOM      9  C   LIG    1        3.323   1.048  -1.050  0.00  0.00    +0.050 A 
ATOM     10  C   LIG    1        4.405   0.152  -1.069  0.00  0.00    -0.080 A 
ATOM     11  C   LIG    1        5.338   0.157  -2.120  0.00  0.00    +0.070 A 
ATOM     12  C   LIG    1        6.374  -0.724  -2.107  0.00  0.00    -0.060 A 
BRANCH   3  14
ATOM     13  C   LIG    1        8.467  -2.424  -2.186  0.00  0.00    +0.250 C 
ATOM     14  O   LIG    1        7.572  -2.506  -1.075  0.00  0.00    -0.320 OA
ENDBRANCH   3  14
ENDBRANCH   1   8
BRANCH   1  15
ATOM     15  C   LIG    1       -0.014   1.209   0.009  0.00  0.00    +0.520 C 
ATOM     16  N   LIG    1       -1.191   1.867   0.018  0.00  0.00    -0.730 N 
ATOM     17  H   LIG    1       -1.204   2.837   0.023  0.00  0.00    +0.400 HD
ATOM     18  O   LIG    1        0.002  -0.004   0.002  0.00  0.00    -0.520 OA
BRANCH  16  19
ATOM     19  C   LIG    1       -2.449   1.117   0.020  0.00  0.00    +0.420 C 
BRANCH  19  20
ATOM     20  C   LIG    1       -3.608   2.080   0.030  0.00  0.00    +0.110 A 
ATOM     21  N   LIG    1       -4.208   2.580  -1.019  0.00  0.00    -0.220 NA
ATOM     22  N   LIG    1       -5.157   3.369  -0.656  0.00  0.00    -0.280 NA
ATOM     23  C   LIG    1       -5.214   3.414   0.665  0.00  0.00    +0.200 A 
ATOM     24  C   LIG    1       -6.040   4.099   1.576  0.00  0.00    +0.080 A 
ATOM     25  C   LIG    1       -5.849   3.919   2.911  0.00  0.00    +0.070 A 
ATOM     26  C   LIG    1       -4.826   3.066   3.360  0.00  0.00    +0.030 A 
ATOM     27  C   LIG    1       -4.039   2.419   2.474  0.00  0.00    +0.230 A 
ATOM     28  N   LIG    1       -4.225   2.585   1.133  0.00  0.00    -0.380 N 
ENDBRANCH  19  20
ENDBRANCH  16  19
ENDBRANCH   1  15
TORSDOF 5
