REMARK  Name = ZINCpk00000KfKWv.0
REMARK                            x       y       z     vdW  Elec       q    Type
REMARK                         _______ _______ _______ _____ _____    ______ ____
ROOT
ATOM      1  N   LIG    1       -3.398   4.258  -0.948  0.00  0.00    -0.710 N 
ATOM      2  H   LIG    1       -2.775   4.715  -0.361  0.00  0.00    +0.410 HD
ATOM      3  C   LIG    1       -4.685   4.106  -0.578  0.00  0.00    +0.560 C 
ATOM      4  O   LIG    1       -5.465   3.532  -1.313  0.00  0.00    -0.540 OA
ENDROOT
BRANCH   3   5
ATOM      5  C   LIG    1       -5.148   4.636   0.720  0.00  0.00    -0.140 A 
ATOM      6  C   LIG    1       -4.252   5.291   1.569  0.00  0.00    +0.080 A 
ATOM      7  C   LIG    1       -4.689   5.790   2.776  0.00  0.00    +0.000 A 
ATOM      8  C   LIG    1       -6.017   5.632   3.156  0.00  0.00    +0.180 A 
ATOM      9  C   LIG    1       -6.910   4.976   2.316  0.00  0.00    +0.030 A 
ATOM     10  C   LIG    1       -6.482   4.480   1.105  0.00  0.00    +0.120 A 
BRANCH   8  11
ATOM     11  N   LIG    1       -6.455   6.135   4.385  0.00  0.00    -0.340 N 
ATOM     12  C   LIG    1       -5.713   6.784   5.304  0.00  0.00    +0.500 A 
ATOM     13  N   LIG    1       -6.492   7.092   6.309  0.00  0.00    -0.530 NA
ATOM     14  C   LIG    1       -7.728   6.650   6.076  0.00  0.00    +0.440 A 
ATOM     15  N   LIG    1       -7.755   6.058   4.911  0.00  0.00    -0.310 NA
ENDBRANCH   8  11
ENDBRANCH   3   5
BRANCH   1  16
ATOM     16  C   LIG    1       -2.938   3.731  -2.235  0.00  0.00    +0.280 C 
BRANCH  16  18
ATOM     17  C   LIG    1       -0.940   3.378  -3.693  0.00  0.00    +0.000 C 
ATOM     18  C   LIG    1       -1.449   4.035  -2.408  0.00  0.00    +0.160 C 
BRANCH  18  19
ATOM     19  N   LIG    1       -0.704   3.503  -1.259  0.00  0.00    -0.530 NA
ATOM     20  C   LIG    1       -0.754   2.034  -1.232  0.00  0.00    +0.160 C 
ATOM     21  C   LIG    1       -0.019   1.526   0.010  0.00  0.00    +0.160 C 
ATOM     22  O   LIG    1        1.323   2.022   0.000  0.00  0.00    -0.380 OA
ATOM     23  C   LIG    1        1.409   3.449  -0.025  0.00  0.00    +0.190 C 
ATOM     24  C   LIG    1        0.749   4.023   1.231  0.00  0.00    +0.010 C 
ATOM     25  C   LIG    1        0.002  -0.004   0.002  0.00  0.00    +0.050 C 
ATOM     26  C   LIG    1        0.688   3.977  -1.268  0.00  0.00    +0.160 C 
ENDBRANCH  18  19
ENDBRANCH  16  18
ENDBRANCH   1  16
TORSDOF 5
