REMARK  Name = ZINCrD000000BjuI.0
REMARK                            x       y       z     vdW  Elec       q    Type
REMARK                         _______ _______ _______ _____ _____    ______ ____
ROOT
ATOM      1  O   LIG    1        0.140  -0.071  -0.054  0.00  0.00    -0.580 OA
ATOM      2  C   LIG    1        0.585  -0.664  -1.018  0.00  0.00    +0.710 C 
ATOM      3  N   LIG    1        0.514  -2.009  -1.073  0.00  0.00    -0.630 N 
ATOM      4  C   LIG    1       -0.189  -2.774  -0.031  0.00  0.00    +0.280 C 
ATOM      5  C   LIG    1       -1.167  -3.738  -0.721  0.00  0.00    +0.220 C 
ATOM      6  O   LIG    1       -0.460  -4.502  -1.701  0.00  0.00    -0.370 OA
ATOM      7  C   LIG    1        0.102  -3.721  -2.758  0.00  0.00    +0.200 C 
ATOM      8  C   LIG    1        1.141  -2.756  -2.175  0.00  0.00    +0.260 C 
ATOM      9  N   LIG    1        1.150   0.023  -2.030  0.00  0.00    -0.740 N 
ATOM     10  H   LIG    1        1.571  -0.453  -2.764  0.00  0.00    +0.400 HD
ENDROOT
BRANCH   7  11
ATOM     11  C   LIG    1        0.766  -4.631  -3.759  0.00  0.00    -0.070 A 
ATOM     12  C   LIG    1        1.406  -5.780  -3.331  0.00  0.00    +0.060 A 
ATOM     13  C   LIG    1        2.011  -6.617  -4.249  0.00  0.00    +0.050 A 
ATOM     14  C   LIG    1        1.986  -6.301  -5.595  0.00  0.00    -0.080 A 
ATOM     15  C   LIG    1        1.351  -5.149  -6.022  0.00  0.00    +0.050 A 
ATOM     16 BR   LIG    1        2.819  -7.443  -6.851  0.00  0.00    -0.050 Br
ATOM     17  C   LIG    1        0.741  -4.315  -5.104  0.00  0.00    +0.030 A 
ENDBRANCH   7  11
BRANCH   9  18
ATOM     18  C   LIG    1        1.129   1.488  -2.023  0.00  0.00    +0.320 C 
BRANCH  18  19
ATOM     19  C   LIG    1        1.831   2.014  -3.276  0.00  0.00    +0.130 C 
ATOM     20  C   LIG    1        1.812   3.549  -3.274  0.00  0.00    +0.240 C 
ATOM     21  O   LIG    1        2.488   4.007  -4.450  0.00  0.00    -0.300 OA
ATOM     22  C   LIG    1        3.679   3.415  -4.742  0.00  0.00    +0.050 A 
ATOM     23  C   LIG    1        4.547   4.032  -5.629  0.00  0.00    +0.030 A 
ATOM     24  C   LIG    1        5.758   3.442  -5.936  0.00  0.00    +0.020 A 
ATOM     25  C   LIG    1        6.108   2.235  -5.360  0.00  0.00    +0.020 A 
ATOM     26  C   LIG    1        5.247   1.614  -4.475  0.00  0.00    +0.020 A 
ATOM     27  C   LIG    1        4.031   2.202  -4.160  0.00  0.00    +0.050 A 
ATOM     28  O   LIG    1        3.197   1.583  -3.281  0.00  0.00    -0.300 OA
ENDBRANCH  18  19
ENDBRANCH   9  18
TORSDOF 3
