REMARK  Name = ZINCrH000004mU43.0
REMARK                            x       y       z     vdW  Elec       q    Type
REMARK                         _______ _______ _______ _____ _____    ______ ____
ROOT
ATOM      1  N   LIG    1        2.405   4.102   0.584  0.00  0.00    -0.730 N 
ATOM      2  H   LIG    1        3.223   3.589   0.489  0.00  0.00    +0.400 HD
ATOM      3  C   LIG    1        2.419   5.276   1.245  0.00  0.00    +0.520 C 
ATOM      4  O   LIG    1        1.396   5.917   1.364  0.00  0.00    -0.510 OA
ENDROOT
BRANCH   1   5
ATOM      5  C   LIG    1        1.155   3.599   0.010  0.00  0.00    +0.310 C 
ATOM      6  C   LIG    1        0.974   4.171  -1.398  0.00  0.00    +0.050 C 
BRANCH   5  11
ATOM      7  C   LIG    1        2.463   0.063  -0.237  0.00  0.00    +0.100 A 
ATOM      8  C   LIG    1        1.288  -0.672  -0.193  0.00  0.00    -0.040 A 
ATOM      9  C   LIG    1        0.072  -0.025  -0.084  0.00  0.00    -0.030 A 
ATOM     10  C   LIG    1        0.028   1.360  -0.018  0.00  0.00    +0.100 A 
ATOM     11  C   LIG    1        1.203   2.095  -0.061  0.00  0.00    -0.080 A 
ATOM     12  C   LIG    1        2.418   1.448  -0.171  0.00  0.00    +0.030 A 
BRANCH   7  14
ATOM     13  C   LIG    1        3.631  -2.002  -0.407  0.00  0.00    +0.250 C 
ATOM     14  O   LIG    1        3.660  -0.575  -0.344  0.00  0.00    -0.320 OA
ENDBRANCH   7  14
BRANCH  10  15
ATOM     15  O   LIG    1       -1.169   1.997   0.084  0.00  0.00    -0.310 OA
ATOM     16  C   LIG    1       -2.340   1.178   0.117  0.00  0.00    +0.250 C 
ENDBRANCH  10  15
ENDBRANCH   5  11
ENDBRANCH   1   5
BRANCH   3  17
ATOM     17  C   LIG    1        3.705   5.793   1.836  0.00  0.00    +0.160 C 
BRANCH  17  18
ATOM     18  C   LIG    1        3.451   7.114   2.516  0.00  0.00    +0.010 A 
ATOM     19  C   LIG    1        3.736   7.414   3.796  0.00  0.00    +0.160 A 
ATOM     20  O   LIG    1        3.356   8.691   4.002  0.00  0.00    -0.200 OA
ATOM     21  C   LIG    1        2.837   9.153   2.852  0.00  0.00    +0.230 A 
ATOM     22  N   LIG    1        2.895   8.197   1.954  0.00  0.00    -0.440 NA
BRANCH  21  23
ATOM     23  C   LIG    1        2.292  10.510   2.634  0.00  0.00    -0.020 A 
ATOM     24  C   LIG    1        1.786  10.870   1.384  0.00  0.00    +0.070 A 
ATOM     25  C   LIG    1        1.274  12.136   1.189  0.00  0.00    +0.010 A 
ATOM     26  C   LIG    1        1.273  13.052   2.226  0.00  0.00    +0.030 A 
ATOM     27  C   LIG    1        1.779  12.704   3.466  0.00  0.00    +0.010 A 
ATOM     28  C   LIG    1        2.288  11.439   3.676  0.00  0.00    +0.040 A 
ENDBRANCH  21  23
ENDBRANCH  17  18
ENDBRANCH   3  17
TORSDOF 7
