REMARK  Name = ZINCpe000000VwzX.0
REMARK                            x       y       z     vdW  Elec       q    Type
REMARK                         _______ _______ _______ _____ _____    ______ ____
ROOT
ATOM      1  N   LIG    1        3.406   3.407   1.260  0.00  0.00    -1.100 NA
ATOM      2  H   LIG    1        3.027   3.320   2.149  0.00  0.00    +0.430 HD
ENDROOT
BRANCH   1   3
ATOM      3  S   LIG    1        4.999   3.037   1.000  0.00  0.00    +2.700 S 
ATOM      4  O   LIG    1        5.030   2.159  -0.117  0.00  0.00    -0.940 OA
ATOM      5  O   LIG    1        5.545   2.701   2.268  0.00  0.00    -0.890 OA
BRANCH   3  11
ATOM      6  C   LIG    1        6.418   5.466   1.339  0.00  0.00    -0.210 A 
ATOM      7  C   LIG    1        6.923   6.469   0.535  0.00  0.00    +0.340 A 
ATOM      8  N   LIG    1        6.631   6.149  -0.736  0.00  0.00    -0.440 N 
ATOM      9  H   LIG    1        6.863   6.672  -1.519  0.00  0.00    +0.450 HD
ATOM     10  N   LIG    1        5.940   4.932  -0.740  0.00  0.00    -0.170 NA
ATOM     11  C   LIG    1        5.803   4.519   0.489  0.00  0.00    -0.430 A 
BRANCH   6  12
ATOM     12  C   LIG    1        6.505   5.396   2.808  0.00  0.00    +0.510 C 
ATOM     13  O   LIG    1        6.018   4.454   3.402  0.00  0.00    -0.450 OA
BRANCH  12  15
ATOM     14  C   LIG    1        7.173   6.242   4.939  0.00  0.00    +0.280 C 
ATOM     15  O   LIG    1        7.125   6.377   3.494  0.00  0.00    -0.360 OA
ENDBRANCH  12  15
ENDBRANCH   6  12
ENDBRANCH   3  11
ENDBRANCH   1   3
BRANCH   1  16
ATOM     16  C   LIG    1        2.570   3.867   0.149  0.00  0.00    +0.310 C 
BRANCH  16  17
ATOM     17  C   LIG    1        2.520   5.373   0.147  0.00  0.00    -0.150 A 
ATOM     18  C   LIG    1        2.708   6.072   1.325  0.00  0.00    +0.100 A 
ATOM     19  C   LIG    1        2.663   7.453   1.325  0.00  0.00    -0.010 A 
ATOM     20  C   LIG    1        2.429   8.139   0.145  0.00  0.00    +0.130 A 
ATOM     21  C   LIG    1        2.241   7.440  -1.035  0.00  0.00    -0.040 A 
ATOM     22  F   LIG    1        2.384   9.489   0.146  0.00  0.00    -0.130 F 
ATOM     23  C   LIG    1        2.292   6.057  -1.035  0.00  0.00    +0.150 A 
ATOM     24  F   LIG    1        2.113   5.375  -2.187  0.00  0.00    -0.120 F 
ENDBRANCH  16  17
BRANCH  16  25
ATOM     25  C   LIG    1        1.155   3.310   0.311  0.00  0.00    +0.060 C 
BRANCH  25  26
ATOM     26  C   LIG    1        1.188   1.786   0.178  0.00  0.00    +0.170 C 
BRANCH  26  27
ATOM     27  O   LIG    1       -0.114   1.257   0.435  0.00  0.00    -0.570 OA
ATOM     28  H   LIG    1       -0.168   0.294   0.368  0.00  0.00    +0.380 HD
ENDBRANCH  26  27
ENDBRANCH  25  26
ENDBRANCH  16  25
ENDBRANCH   1  16
TORSDOF 9
