REMARK  Name = ZINCqH0000037Bhc.1
REMARK                            x       y       z     vdW  Elec       q    Type
REMARK                         _______ _______ _______ _____ _____    ______ ____
ROOT
ATOM      1  C   LIG    1       -7.236   0.890  -0.383  0.00  0.00    +0.130 C 
ATOM      2  C   LIG    1       -6.038   0.199  -0.981  0.00  0.00    -0.070 A 
ATOM      3  C   LIG    1       -6.066  -1.090  -1.353  0.00  0.00    -0.190 A 
ATOM      4  S   LIG    1       -4.513  -1.579  -2.008  0.00  0.00    +0.250 S 
ATOM      5  C   LIG    1       -3.845   0.028  -1.754  0.00  0.00    +0.050 A 
ATOM      6  N   LIG    1       -2.631   0.530  -2.010  0.00  0.00    -0.500 NA
ATOM      7  C   LIG    1       -2.342   1.781  -1.730  0.00  0.00    +0.280 A 
ATOM      8  N   LIG    1       -3.225   2.605  -1.197  0.00  0.00    -0.590 NA
ATOM      9  C   LIG    1       -4.455   2.205  -0.910  0.00  0.00    +0.500 A 
ATOM     10  C   LIG    1       -4.823   0.857  -1.187  0.00  0.00    -0.180 A 
ENDROOT
BRANCH   3  11
ATOM     11  C   LIG    1       -7.231  -1.967  -1.228  0.00  0.00    +0.540 C 
ATOM     12  O   LIG    1       -8.275  -1.535  -0.757  0.00  0.00    -0.650 OA
ATOM     13  O   LIG    1       -7.160  -3.133  -1.595  0.00  0.00    -0.660 OA
ENDBRANCH   3  11
BRANCH   9  14
ATOM     14  N   LIG    1       -5.364   3.080  -0.352  0.00  0.00    -0.690 N 
ATOM     15  H   LIG    1       -6.284   2.803  -0.219  0.00  0.00    +0.420 HD
BRANCH  14  16
ATOM     16  C   LIG    1       -4.940   4.426   0.039  0.00  0.00    +0.260 C 
ATOM     17  C   LIG    1       -5.864   4.952   1.140  0.00  0.00    +0.020 C 
ATOM     18  C   LIG    1       -5.421   6.358   1.549  0.00  0.00    +0.060 C 
ATOM     19  C   LIG    1       -5.492   7.288   0.336  0.00  0.00    +0.030 C 
ATOM     20  C   LIG    1       -4.568   6.762  -0.764  0.00  0.00    +0.300 C 
ATOM     21  F   LIG    1       -3.253   6.717  -0.288  0.00  0.00    -0.200 F 
ATOM     22  F   LIG    1       -4.633   7.613  -1.873  0.00  0.00    -0.200 F 
ATOM     23  C   LIG    1       -5.011   5.356  -1.173  0.00  0.00    +0.020 C 
ENDBRANCH  14  16
ENDBRANCH   9  14
BRANCH   7  24
ATOM     24  C   LIG    1       -0.959   2.293  -2.035  0.00  0.00    +0.390 C 
BRANCH  24  25
ATOM     25  N   LIG    1       -0.092   2.087  -0.867  0.00  0.00    -0.380 N 
ATOM     26  C   LIG    1        1.222   2.693  -1.119  0.00  0.00    +0.320 C 
ATOM     27  C   LIG    1        0.072   0.647  -0.627  0.00  0.00    +0.320 C 
ATOM     28  H   LIG    1       -0.511   2.517  -0.057  0.00  0.00    +0.430 HD
ENDBRANCH  24  25
ENDBRANCH   7  24
TORSDOF 5
