REMARK  Name = ZINCnE000001GoBS.1
REMARK                            x       y       z     vdW  Elec       q    Type
REMARK                         _______ _______ _______ _____ _____    ______ ____
ROOT
ATOM      1  S   LIG    1        2.711   0.916  -0.019  0.00  0.00    +2.600 S 
ATOM      2  O   LIG    1        2.451  -0.372   0.521  0.00  0.00    -1.020 OA
ATOM      3  O   LIG    1        3.680   1.804   0.521  0.00  0.00    -1.020 OA
ENDROOT
BRANCH   1   7
ATOM      4  C   LIG    1       -1.234   3.144   0.030  0.00  0.00    -0.100 A 
ATOM      5  C   LIG    1       -1.217   1.748   0.017  0.00  0.00    +0.050 A 
ATOM      6  C   LIG    1       -0.013   1.076   0.008  0.00  0.00    +0.110 A 
ATOM      7  C   LIG    1        1.177   1.782   0.000  0.00  0.00    -0.580 A 
ATOM      8  C   LIG    1        1.167   3.166   0.007  0.00  0.00    +0.110 A 
ATOM      9  C   LIG    1       -0.030   3.850   0.022  0.00  0.00    +0.060 A 
BRANCH   4  10
ATOM     10  C   LIG    1       -2.521   3.870   0.045  0.00  0.00    +0.510 C 
ATOM     11  O   LIG    1       -2.532   5.085   0.052  0.00  0.00    -0.500 OA
BRANCH  10  12
ATOM     12  O   LIG    1       -3.681   3.185   0.053  0.00  0.00    -0.350 OA
BRANCH  12  14
ATOM     13  C   LIG    1       -6.110   3.021   0.075  0.00  0.00    +0.070 C 
ATOM     14  C   LIG    1       -4.906   3.964   0.068  0.00  0.00    +0.200 C 
ENDBRANCH  12  14
ENDBRANCH  10  12
ENDBRANCH   4  10
ENDBRANCH   1   7
BRANCH   1  15
ATOM     15  N   LIG    1        3.123   0.684  -1.606  0.00  0.00    -1.080 NA
BRANCH  15  16
ATOM     16  C   LIG    1        4.307   0.015  -1.930  0.00  0.00    +0.280 A 
ATOM     17  C   LIG    1        4.654  -0.180  -3.261  0.00  0.00    -0.020 A 
ATOM     18  C   LIG    1        5.824  -0.841  -3.579  0.00  0.00    +0.030 A 
ATOM     19  C   LIG    1        6.652  -1.309  -2.574  0.00  0.00    -0.010 A 
ATOM     20  C   LIG    1        6.309  -1.115  -1.245  0.00  0.00    -0.000 A 
ATOM     21 CL   LIG    1        7.350  -1.702   0.014  0.00  0.00    -0.080 Cl
ATOM     22  F   LIG    1        7.796  -1.955  -2.888  0.00  0.00    -0.150 F 
ATOM     23  C   LIG    1        5.142  -0.450  -0.922  0.00  0.00    -0.120 A 
ENDBRANCH  15  16
ENDBRANCH   1  15
TORSDOF 6
