REMARK  Name = ZINCvU0000000FVp.0
REMARK                            x       y       z     vdW  Elec       q    Type
REMARK                         _______ _______ _______ _____ _____    ______ ____
ROOT
ATOM      1  N   LIG    1       -2.337  -6.358   1.443  0.00  0.00    -0.660 N 
ATOM      2  H   LIG    1       -2.658  -6.313   2.357  0.00  0.00    +0.420 HD
ATOM      3  C   LIG    1       -2.644  -5.377   0.571  0.00  0.00    +0.700 C 
ATOM      4  N   LIG    1       -3.499  -4.399   0.932  0.00  0.00    -0.730 N 
ATOM      5  H   LIG    1       -3.892  -4.401   1.818  0.00  0.00    +0.400 HD
ATOM      6  O   LIG    1       -2.151  -5.374  -0.540  0.00  0.00    -0.560 OA
ENDROOT
BRANCH   4   7
ATOM      7  C   LIG    1       -3.833  -3.332  -0.015  0.00  0.00    +0.360 C 
ATOM      8  C   LIG    1       -5.203  -2.743   0.336  0.00  0.00    +0.050 C 
ATOM      9  C   LIG    1       -5.419  -1.465  -0.480  0.00  0.00    +0.040 C 
ATOM     10  C   LIG    1       -4.489  -0.367   0.039  0.00  0.00    +0.140 C 
ATOM     11  C   LIG    1       -3.068  -0.913   0.093  0.00  0.00    +0.080 A 
ATOM     12  N   LIG    1       -1.995  -0.141   0.169  0.00  0.00    -0.470 NA
ATOM     13  C   LIG    1       -0.833  -0.717   0.209  0.00  0.00    +0.110 A 
ATOM     14  S   LIG    1       -1.056  -2.463   0.139  0.00  0.00    +0.130 S 
ATOM     15  C   LIG    1       -2.799  -2.233   0.068  0.00  0.00    -0.240 A 
BRANCH  13  16
ATOM     16  C   LIG    1        0.468  -0.020   0.294  0.00  0.00    -0.040 A 
ATOM     17  C   LIG    1        0.514   1.374   0.339  0.00  0.00    +0.110 A 
ATOM     18  C   LIG    1        1.730   2.019   0.418  0.00  0.00    -0.010 A 
ATOM     19  C   LIG    1        2.905   1.285   0.454  0.00  0.00    +0.120 A 
ATOM     20  C   LIG    1        2.865  -0.099   0.410  0.00  0.00    -0.010 A 
ATOM     21  F   LIG    1        4.094   1.922   0.532  0.00  0.00    -0.130 F 
ATOM     22  C   LIG    1        1.654  -0.754   0.331  0.00  0.00    +0.060 A 
ENDBRANCH  13  16
ENDBRANCH   4   7
BRANCH   1  25
ATOM     23  C   LIG    1       -0.455  -7.950   3.280  0.00  0.00    +0.130 C 
ATOM     24  C   LIG    1       -0.713  -8.166   1.811  0.00  0.00    -0.220 A 
ATOM     25  C   LIG    1       -1.557  -7.438   1.030  0.00  0.00    +0.340 A 
ATOM     26  N   LIG    1       -1.497  -7.949  -0.221  0.00  0.00    -0.340 N 
ATOM     27  N   LIG    1       -0.597  -9.022  -0.206  0.00  0.00    -0.230 NA
ATOM     28  C   LIG    1       -2.243  -7.465  -1.386  0.00  0.00    +0.390 C 
ATOM     29  C   LIG    1       -0.132  -9.152   1.010  0.00  0.00    -0.000 A 
BRANCH  29  30
ATOM     30  C   LIG    1        0.865 -10.186   1.467  0.00  0.00    +0.560 C 
ATOM     31  F   LIG    1        0.257 -11.046   2.388  0.00  0.00    -0.170 F 
ATOM     32  F   LIG    1        1.954  -9.549   2.072  0.00  0.00    -0.160 F 
ATOM     33  F   LIG    1        1.310 -10.924   0.364  0.00  0.00    -0.170 F 
ENDBRANCH  29  30
ENDBRANCH   1  25
TORSDOF 4
