REMARK  Name = ZINCvU0000000GQv.0
REMARK                            x       y       z     vdW  Elec       q    Type
REMARK                         _______ _______ _______ _____ _____    ______ ____
ROOT
ATOM      1  O   LIG    1        2.354   0.940   2.043  0.00  0.00    -0.420 OA
ATOM      2  C   LIG    1        2.488   1.452   0.946  0.00  0.00    +0.460 A 
ATOM      3  C   LIG    1        3.787   1.965   0.440  0.00  0.00    -0.210 A 
ATOM      4  C   LIG    1        4.967   1.703   1.135  0.00  0.00    +0.120 A 
ATOM      5  C   LIG    1        6.164   2.183   0.648  0.00  0.00    +0.000 A 
ATOM      6  C   LIG    1        6.191   2.921  -0.526  0.00  0.00    +0.100 A 
ATOM      7  C   LIG    1        5.032   3.189  -1.219  0.00  0.00    +0.020 A 
ATOM      8  C   LIG    1        3.808   2.717  -0.746  0.00  0.00    +0.140 A 
ATOM      9  O   LIG    1        2.683   3.002  -1.441  0.00  0.00    -0.180 OA
ATOM     10  C   LIG    1        1.532   2.370  -1.135  0.00  0.00    +0.100 A 
ATOM     11  C   LIG    1        0.263   2.339  -1.881  0.00  0.00    +0.570 C 
ATOM     12  O   LIG    1        0.063   2.904  -2.938  0.00  0.00    -0.450 OA
ATOM     13  N   LIG    1       -0.645   1.592  -1.221  0.00  0.00    -0.510 N 
ATOM     14  C   LIG    1       -0.013   1.086   0.008  0.00  0.00    +0.380 C 
ATOM     15  C   LIG    1        1.382   1.620  -0.002  0.00  0.00    -0.230 A 
ENDROOT
BRANCH  13  16
ATOM     16  C   LIG    1       -1.944   1.344  -1.628  0.00  0.00    +0.340 A 
ATOM     17  N   LIG    1       -2.792   0.621  -0.982  0.00  0.00    -0.480 NA
ATOM     18  C   LIG    1       -4.026   0.476  -1.505  0.00  0.00    +0.110 A 
ATOM     19  C   LIG    1       -5.121  -0.252  -0.995  0.00  0.00    +0.070 A 
ATOM     20  C   LIG    1       -6.310  -0.289  -1.679  0.00  0.00    +0.040 A 
ATOM     21  C   LIG    1       -6.454   0.387  -2.881  0.00  0.00    +0.040 A 
ATOM     22  C   LIG    1       -5.398   1.104  -3.399  0.00  0.00    +0.060 A 
ATOM     23  C   LIG    1       -4.184   1.153  -2.718  0.00  0.00    -0.190 A 
ATOM     24  S   LIG    1       -2.669   1.966  -3.104  0.00  0.00    +0.150 S 
ENDBRANCH  13  16
BRANCH  14  25
ATOM     25  C   LIG    1       -0.753   1.589   1.221  0.00  0.00    -0.060 A 
ATOM     26  C   LIG    1       -0.916   0.767   2.320  0.00  0.00    +0.050 A 
ATOM     27  C   LIG    1       -1.595   1.227   3.433  0.00  0.00    +0.060 A 
ATOM     28  C   LIG    1       -2.111   2.509   3.448  0.00  0.00    +0.000 A 
ATOM     29  C   LIG    1       -1.948   3.333   2.347  0.00  0.00    +0.100 A 
ATOM     30  F   LIG    1       -2.451   4.586   2.361  0.00  0.00    -0.140 F 
ATOM     31  C   LIG    1       -1.264   2.873   1.235  0.00  0.00    -0.020 A 
ENDBRANCH  14  25
TORSDOF 2
