REMARK  Name = ZINCvU00000005hF.0
REMARK                            x       y       z     vdW  Elec       q    Type
REMARK                         _______ _______ _______ _____ _____    ______ ____
ROOT
ATOM      1  N   LIG    1        6.042   2.641  -1.829  0.00  0.00    -0.610 N 
ATOM      2  C   LIG    1        5.803   3.451  -2.867  0.00  0.00    +0.510 C 
ATOM      3  C   LIG    1        6.970   2.937  -3.656  0.00  0.00    +0.160 C 
ATOM      4  O   LIG    1        4.956   4.291  -3.087  0.00  0.00    -0.480 OA
ATOM      5  C   LIG    1        7.212   2.035  -2.453  0.00  0.00    +0.320 C 
ENDROOT
BRANCH   5   6
ATOM      6  C   LIG    1        8.500   2.332  -1.729  0.00  0.00    -0.090 A 
ATOM      7  C   LIG    1        9.602   1.521  -1.919  0.00  0.00    +0.050 A 
ATOM      8  C   LIG    1       10.784   1.793  -1.256  0.00  0.00    +0.030 A 
ATOM      9  C   LIG    1       10.864   2.877  -0.402  0.00  0.00    +0.050 A 
ATOM     10  C   LIG    1        9.761   3.690  -0.212  0.00  0.00    -0.090 A 
ATOM     11 BR   LIG    1        9.869   5.174   0.956  0.00  0.00    -0.050 Br
ATOM     12  C   LIG    1        8.580   3.420  -0.879  0.00  0.00    +0.070 A 
ENDBRANCH   5   6
BRANCH   1  13
ATOM     13  C   LIG    1        5.378   2.441  -0.539  0.00  0.00    +0.370 C 
BRANCH  13  18
ATOM     14  C   LIG    1        2.051   0.757  -1.156  0.00  0.00    +0.140 A 
ATOM     15  C   LIG    1        2.373  -0.576  -0.935  0.00  0.00    -0.010 A 
ATOM     16  C   LIG    1        3.663  -0.924  -0.588  0.00  0.00    +0.030 A 
ATOM     17  C   LIG    1        4.634   0.052  -0.460  0.00  0.00    +0.000 A 
ATOM     18  C   LIG    1        4.316   1.380  -0.679  0.00  0.00    -0.100 A 
ATOM     19  C   LIG    1        3.029   1.734  -1.032  0.00  0.00    +0.030 A 
BRANCH  14  22
ATOM     20  C   LIG    1       -1.133   2.722  -1.563  0.00  0.00    +0.110 C 
ATOM     21  C   LIG    1        0.230   2.287  -1.091  0.00  0.00    +0.510 C 
ATOM     22  N   LIG    1        0.744   1.113  -1.509  0.00  0.00    -0.680 N 
ATOM     23  H   LIG    1        0.209   0.515  -2.054  0.00  0.00    +0.410 HD
ATOM     24  O   LIG    1        0.862   2.990  -0.331  0.00  0.00    -0.520 OA
ENDBRANCH  14  22
ENDBRANCH  13  18
ENDBRANCH   1  13
BRANCH   3  25
ATOM     25  O   LIG    1        8.000   3.905  -3.867  0.00  0.00    -0.260 OA
BRANCH  25  26
ATOM     26  C   LIG    1        7.887   4.696  -4.967  0.00  0.00    +0.090 A 
ATOM     27  C   LIG    1        6.756   4.620  -5.764  0.00  0.00    -0.030 A 
ATOM     28  C   LIG    1        6.642   5.429  -6.879  0.00  0.00    +0.040 A 
ATOM     29  C   LIG    1        7.659   6.306  -7.207  0.00  0.00    +0.020 A 
ATOM     30  C   LIG    1        8.791   6.381  -6.417  0.00  0.00    +0.020 A 
ATOM     31  C   LIG    1        8.909   5.578  -5.297  0.00  0.00    +0.080 A 
ATOM     32  F   LIG    1       10.015   5.652  -4.525  0.00  0.00    -0.130 F 
ENDBRANCH  25  26
ENDBRANCH   3  25
TORSDOF 6
