REMARK  Name = ZINCpe00000KSrwT.0
REMARK                            x       y       z     vdW  Elec       q    Type
REMARK                         _______ _______ _______ _____ _____    ______ ____
ROOT
ATOM      1  N   LIG    1       -1.158   0.106   0.132  0.00  0.00    -0.520 NA
ATOM      2  C   LIG    1       -0.598  -0.278  -1.171  0.00  0.00    +0.170 C 
ATOM      3  C   LIG    1        0.750   0.417  -1.373  0.00  0.00    +0.040 C 
ATOM      4  C   LIG    1        0.551   1.934  -1.310  0.00  0.00    +0.000 C 
ATOM      5  C   LIG    1       -0.077   2.303   0.037  0.00  0.00    +0.180 C 
ATOM      6  C   LIG    1       -1.401   1.553   0.199  0.00  0.00    +0.210 C 
ENDROOT
BRANCH   5   7
ATOM      7  C   LIG    1       -0.330   3.787   0.084  0.00  0.00    -0.110 A 
ATOM      8  C   LIG    1       -1.534   4.298  -0.366  0.00  0.00    +0.010 A 
ATOM      9  C   LIG    1       -1.768   5.659  -0.318  0.00  0.00    +0.000 A 
ATOM     10  C   LIG    1       -0.795   6.511   0.169  0.00  0.00    +0.000 A 
ATOM     11  C   LIG    1        0.411   6.002   0.614  0.00  0.00    +0.000 A 
ATOM     12  C   LIG    1        0.643   4.639   0.571  0.00  0.00    +0.010 A 
ENDBRANCH   5   7
BRANCH   5  13
ATOM     13  O   LIG    1        0.811   1.936   1.094  0.00  0.00    -0.530 OA
ATOM     14  H   LIG    1        1.672   2.374   1.054  0.00  0.00    +0.370 HD
ENDBRANCH   5  13
BRANCH   1  15
ATOM     15  C   LIG    1       -2.385  -0.648   0.421  0.00  0.00    +0.300 C 
BRANCH  15  18
ATOM     16  N   LIG    1       -1.719  -4.223   0.249  0.00  0.00    -0.230 N 
ATOM     17  C   LIG    1       -1.788  -3.073   0.974  0.00  0.00    +0.160 A 
ATOM     18  C   LIG    1       -2.164  -2.105   0.106  0.00  0.00    +0.000 A 
ATOM     19  N   LIG    1       -2.297  -2.695  -1.087  0.00  0.00    -0.240 NA
ATOM     20  N   LIG    1       -2.027  -3.946  -0.970  0.00  0.00    -0.050 NA
BRANCH  16  26
ATOM     21  C   LIG    1       -0.728  -4.829   3.098  0.00  0.00    +0.390 C 
ATOM     22  N   LIG    1       -0.927  -5.774   1.997  0.00  0.00    -0.360 N 
ATOM     23  N   LIG    1       -0.706  -7.160   2.027  0.00  0.00    -0.030 NA
ATOM     24  N   LIG    1       -0.990  -7.636   0.866  0.00  0.00    -0.220 NA
ATOM     25  C   LIG    1       -1.394  -6.657   0.058  0.00  0.00    +0.180 A 
ATOM     26  C   LIG    1       -1.368  -5.485   0.741  0.00  0.00    +0.250 A 
ENDBRANCH  16  26
ENDBRANCH  15  18
ENDBRANCH   1  15
TORSDOF 5
