REMARK  Name = ZINCrS00000oxaAR.1
REMARK                            x       y       z     vdW  Elec       q    Type
REMARK                         _______ _______ _______ _____ _____    ______ ____
ROOT
ATOM      1  C   LIG    1       -4.246   0.071   1.409  0.00  0.00    +0.190 C 
ATOM      2  C   LIG    1       -5.309   0.991   0.766  0.00  0.00    +0.070 C 
ATOM      3  C   LIG    1       -6.570   0.816   1.632  0.00  0.00    +0.230 C 
ATOM      4  N   LIG    1       -6.240  -0.172   2.683  0.00  0.00    -0.480 NA
ATOM      5  C   LIG    1       -4.767  -0.101   2.858  0.00  0.00    +0.230 C 
ENDROOT
BRANCH   4   6
ATOM      6  C   LIG    1       -6.896   0.125   3.868  0.00  0.00    +0.260 C 
ATOM      7  C   LIG    1       -6.686   1.331   4.518  0.00  0.00    -0.040 C 
ATOM      8  C   LIG    1       -7.358   1.599   5.703  0.00  0.00    +0.450 C 
ATOM      9  N   LIG    1       -8.197   0.740   6.234  0.00  0.00    -0.460 NA
ATOM     10  C   LIG    1       -8.448  -0.443   5.661  0.00  0.00    +0.160 C 
ATOM     11  C   LIG    1       -9.348  -1.352   6.242  0.00  0.00    +0.030 C 
ATOM     12  C   LIG    1       -9.586  -2.549   5.636  0.00  0.00    +0.050 C 
ATOM     13  C   LIG    1       -8.948  -2.890   4.445  0.00  0.00    +0.080 C 
ATOM     14  C   LIG    1       -8.069  -2.033   3.854  0.00  0.00    +0.150 C 
ATOM     15 CL   LIG    1      -10.699  -3.667   6.360  0.00  0.00    +0.010 Cl
ATOM     16  H   LIG    1       -8.645   0.968   7.063  0.00  0.00    +0.460 HD
ATOM     17  C   LIG    1       -7.807  -0.791   4.448  0.00  0.00    -0.070 C 
ENDBRANCH   4   6
BRANCH   1  19
ATOM     18  C   LIG    1       -1.946  -0.164   2.052  0.00  0.00    +0.320 C 
ATOM     19  N   LIG    1       -2.927   0.718   1.405  0.00  0.00    -0.380 N 
ATOM     20  H   LIG    1       -2.979   1.591   1.909  0.00  0.00    +0.420 HD
BRANCH  19  21
ATOM     21  C   LIG    1       -2.513   0.977   0.019  0.00  0.00    +0.340 C 
BRANCH  21  22
ATOM     22  C   LIG    1       -1.219   1.750   0.017  0.00  0.00    -0.150 A 
ATOM     23  C   LIG    1       -0.013   1.076   0.008  0.00  0.00    +0.080 A 
ATOM     24  C   LIG    1        1.176   1.783   0.000  0.00  0.00    +0.040 A 
ATOM     25  C   LIG    1        1.158   3.166   0.008  0.00  0.00    +0.110 A 
ATOM     26  C   LIG    1       -0.053   3.842   0.023  0.00  0.00    +0.080 A 
ATOM     27  F   LIG    1       -0.073   5.193   0.031  0.00  0.00    -0.110 F 
ATOM     28  F   LIG    1        2.318   3.857   0.001  0.00  0.00    -0.110 F 
ATOM     29  C   LIG    1       -1.240   3.132   0.031  0.00  0.00    +0.050 A 
ENDBRANCH  21  22
ENDBRANCH  19  21
ENDBRANCH   1  19
TORSDOF 4
