REMARK  Name = ZINCrS00000oxaAR.2
REMARK                            x       y       z     vdW  Elec       q    Type
REMARK                         _______ _______ _______ _____ _____    ______ ____
ROOT
ATOM      1  C   LIG    1       -2.006   1.326   0.920  0.00  0.00    +0.160 C 
ATOM      2  C   LIG    1       -0.516   1.638   1.232  0.00  0.00    +0.100 C 
ATOM      3  C   LIG    1        0.174   1.206  -0.086  0.00  0.00    +0.250 C 
ATOM      4  N   LIG    1       -0.770   1.597  -1.154  0.00  0.00    -0.450 NA
ATOM      5  C   LIG    1       -2.127   1.667  -0.580  0.00  0.00    +0.240 C 
ENDROOT
BRANCH   4   6
ATOM      6  C   LIG    1       -0.724   0.700  -2.211  0.00  0.00    +0.260 C 
ATOM      7  C   LIG    1        0.262  -0.271  -2.281  0.00  0.00    -0.050 C 
ATOM      8  C   LIG    1        0.282  -1.154  -3.352  0.00  0.00    +0.460 C 
ATOM      9  N   LIG    1       -0.612  -1.101  -4.311  0.00  0.00    -0.480 NA
ATOM     10  C   LIG    1       -1.593  -0.191  -4.308  0.00  0.00    +0.170 C 
ATOM     11  C   LIG    1       -2.543  -0.147  -5.341  0.00  0.00    +0.030 C 
ATOM     12  C   LIG    1       -3.531   0.791  -5.313  0.00  0.00    +0.040 C 
ATOM     13  C   LIG    1       -3.616   1.712  -4.270  0.00  0.00    +0.080 C 
ATOM     14  C   LIG    1       -2.712   1.699  -3.252  0.00  0.00    +0.090 C 
ATOM     15 CL   LIG    1       -4.702   0.839  -6.594  0.00  0.00    +0.010 Cl
ATOM     16  H   LIG    1       -0.562  -1.738  -5.041  0.00  0.00    +0.450 HD
ATOM     17  C   LIG    1       -1.686   0.744  -3.248  0.00  0.00    -0.110 C 
ENDBRANCH   4   6
BRANCH   1  19
ATOM     18  C   LIG    1       -2.758   1.833   3.141  0.00  0.00    +0.330 C 
ATOM     19  N   LIG    1       -2.894   2.180   1.720  0.00  0.00    -0.380 N 
ATOM     20  H   LIG    1       -2.642   3.147   1.585  0.00  0.00    +0.430 HD
BRANCH  19  21
ATOM     21  C   LIG    1       -4.285   1.972   1.297  0.00  0.00    +0.330 C 
BRANCH  21  22
ATOM     22  C   LIG    1       -5.183   2.935   2.030  0.00  0.00    -0.150 A 
ATOM     23  C   LIG    1       -5.447   4.180   1.491  0.00  0.00    +0.080 A 
ATOM     24  C   LIG    1       -6.270   5.065   2.161  0.00  0.00    +0.040 A 
ATOM     25  C   LIG    1       -6.831   4.705   3.374  0.00  0.00    +0.110 A 
ATOM     26  C   LIG    1       -6.565   3.456   3.916  0.00  0.00    +0.080 A 
ATOM     27  F   LIG    1       -7.111   3.103   5.100  0.00  0.00    -0.110 F 
ATOM     28  F   LIG    1       -7.636   5.570   4.030  0.00  0.00    -0.100 F 
ATOM     29  C   LIG    1       -5.745   2.571   3.240  0.00  0.00    +0.060 A 
ENDBRANCH  21  22
ENDBRANCH  19  21
ENDBRANCH   1  19
TORSDOF 4
