REMARK  Name = ZINCqH0000038yQr.0
REMARK                            x       y       z     vdW  Elec       q    Type
REMARK                         _______ _______ _______ _____ _____    ______ ____
ROOT
ATOM      1  N   LIG    1        2.447   3.952   1.394  0.00  0.00    -0.740 N 
ATOM      2  H   LIG    1        2.388   3.308   2.117  0.00  0.00    +0.400 HD
ATOM      3  C   LIG    1        2.348   5.270   1.657  0.00  0.00    +0.710 C 
ATOM      4  N   LIG    1        2.078   5.689   2.909  0.00  0.00    -0.630 N 
ATOM      5  C   LIG    1        1.986   4.728   4.016  0.00  0.00    +0.270 C 
ATOM      6  C   LIG    1        0.649   4.920   4.731  0.00  0.00    +0.010 C 
ATOM      7  C   LIG    1        0.505   6.383   5.155  0.00  0.00    +0.030 C 
ATOM      8  C   LIG    1        0.524   7.280   3.914  0.00  0.00    +0.040 C 
ATOM      9  C   LIG    1        1.865   7.115   3.191  0.00  0.00    +0.370 C 
ATOM     10  O   LIG    1        2.502   6.081   0.764  0.00  0.00    -0.570 OA
ENDROOT
BRANCH   9  11
ATOM     11  C   LIG    1        1.843   7.889   1.898  0.00  0.00    +0.190 A 
ATOM     12  N   LIG    1        0.964   7.770   0.944  0.00  0.00    -0.260 NA
ATOM     13  N   LIG    1        1.254   8.585  -0.008  0.00  0.00    -0.250 NA
ATOM     14  C   LIG    1        2.329   9.252   0.306  0.00  0.00    +0.150 A 
ATOM     15  O   LIG    1        2.723   8.831   1.520  0.00  0.00    -0.220 OA
BRANCH  14  16
ATOM     16  C   LIG    1        3.003  10.305  -0.535  0.00  0.00    +0.280 C 
ATOM     17  C   LIG    1        3.765   9.639  -1.696  0.00  0.00    +0.040 C 
ATOM     18  C   LIG    1        3.140  10.263  -2.968  0.00  0.00    +0.020 C 
ATOM     19  C   LIG    1        2.508  11.565  -2.413  0.00  0.00    +0.220 C 
ATOM     20  O   LIG    1        2.015  11.174  -1.114  0.00  0.00    -0.350 OA
ENDBRANCH  14  16
ENDBRANCH   9  11
BRANCH   1  21
ATOM     21  C   LIG    1        2.646   3.492   0.017  0.00  0.00    +0.380 C 
BRANCH  21  26
ATOM     22  C   LIG    1        0.957  -1.260  -0.295  0.00  0.00    +0.110 C 
ATOM     23  C   LIG    1        1.999  -0.182  -0.140  0.00  0.00    -0.110 A 
ATOM     24  C   LIG    1        3.295  -0.455   0.018  0.00  0.00    -0.040 A 
ATOM     25  S   LIG    1        4.200   1.046   0.163  0.00  0.00    +0.110 S 
ATOM     26  C   LIG    1        2.724   1.988  -0.004  0.00  0.00    -0.210 A 
ATOM     27  C   LIG    1        1.684   1.166  -0.152  0.00  0.00    +0.040 A 
ENDBRANCH  21  26
ENDBRANCH   1  21
TORSDOF 4
