REMARK  Name = ZINCqH00000334FS.0
REMARK                            x       y       z     vdW  Elec       q    Type
REMARK                         _______ _______ _______ _____ _____    ______ ____
ROOT
ATOM      1  C   LIG    1        4.732   1.118   0.247  0.00  0.00    +0.170 A 
ATOM      2  C   LIG    1        4.702  -0.267   0.137  0.00  0.00    -0.030 A 
ATOM      3  C   LIG    1        3.492  -0.928   0.047  0.00  0.00    +0.070 A 
ATOM      4  C   LIG    1        2.309  -0.215   0.065  0.00  0.00    +0.010 A 
ATOM      5  C   LIG    1        2.332   1.170   0.174  0.00  0.00    +0.170 A 
ATOM      6  C   LIG    1        3.545   1.837   0.260  0.00  0.00    -0.140 A 
ATOM      7  C   LIG    1        3.574   3.340   0.372  0.00  0.00    +0.100 C 
ENDROOT
BRANCH   5   8
ATOM      8  N   LIG    1        1.134   1.891   0.192  0.00  0.00    -0.660 N 
ATOM      9  H   LIG    1        1.099   2.764   0.612  0.00  0.00    +0.410 HD
ATOM     10  C   LIG    1        0.027   1.372  -0.376  0.00  0.00    +0.560 C 
ATOM     11  O   LIG    1        0.092   0.325  -0.990  0.00  0.00    -0.510 OA
BRANCH  10  12
ATOM     12  C   LIG    1       -1.266   2.079  -0.256  0.00  0.00    -0.110 A 
ATOM     13  C   LIG    1       -1.344   3.281   0.448  0.00  0.00    +0.010 A 
ATOM     14  C   LIG    1       -2.552   3.939   0.558  0.00  0.00    +0.050 A 
ATOM     15  C   LIG    1       -3.687   3.411  -0.029  0.00  0.00    -0.080 A 
ATOM     16  C   LIG    1       -3.619   2.215  -0.732  0.00  0.00    +0.120 A 
ATOM     17  C   LIG    1       -5.003   4.135   0.095  0.00  0.00    +0.100 C 
ATOM     18  C   LIG    1       -2.411   1.550  -0.853  0.00  0.00    +0.000 A 
BRANCH  16  19
ATOM     19  O   LIG    1       -4.739   1.701  -1.306  0.00  0.00    -0.310 OA
ATOM     20  C   LIG    1       -4.596   0.468  -2.014  0.00  0.00    +0.240 C 
ENDBRANCH  16  19
ENDBRANCH  10  12
ENDBRANCH   5   8
BRANCH   1  21
ATOM     21  N   LIG    1        5.955   1.785   0.338  0.00  0.00    -1.050 N 
ATOM     22  H   LIG    1        6.036   2.577   0.892  0.00  0.00    +0.430 HD
BRANCH  21  23
ATOM     23  S   LIG    1        7.269   1.224  -0.500  0.00  0.00    +2.600 S 
ATOM     24  O   LIG    1        7.411  -0.122  -0.069  0.00  0.00    -0.940 OA
ATOM     25  O   LIG    1        8.284   2.186  -0.245  0.00  0.00    -0.950 OA
BRANCH  23  26
ATOM     26  C   LIG    1        6.757   1.285  -2.239  0.00  0.00    -0.340 C 
BRANCH  26  28
ATOM     27  C   LIG    1        7.467   0.837  -4.592  0.00  0.00    +0.040 C 
ATOM     28  C   LIG    1        7.899   0.785  -3.125  0.00  0.00    +0.040 C 
ENDBRANCH  26  28
ENDBRANCH  23  26
ENDBRANCH  21  23
ENDBRANCH   1  21
TORSDOF 7
