REMARK  Name = ZINCrH000004m3KF.0
REMARK                            x       y       z     vdW  Elec       q    Type
REMARK                         _______ _______ _______ _____ _____    ______ ____
ROOT
ATOM      1  C   LIG    1       -2.384   1.878   0.024  0.00  0.00    +0.510 C 
ATOM      2  N   LIG    1       -1.174   2.471   0.021  0.00  0.00    -0.630 N 
ATOM      3  H   LIG    1       -1.108   3.439   0.026  0.00  0.00    +0.420 HD
ATOM      4  O   LIG    1       -2.465   0.667   0.019  0.00  0.00    -0.480 OA
ENDROOT
BRANCH   2   5
ATOM      5  C   LIG    1       -0.021   1.698   0.011  0.00  0.00    +0.050 A 
ATOM      6  C   LIG    1        1.250   2.199   0.002  0.00  0.00    -0.110 A 
ATOM      7  C   LIG    1        2.274   1.171  -0.013  0.00  0.00    -0.040 A 
ATOM      8  C   LIG    1        1.757  -0.064  -0.015  0.00  0.00    -0.250 A 
ATOM      9  C   LIG    1        2.582  -1.336  -0.028  0.00  0.00    +0.120 C 
ATOM     10  C   LIG    1        4.012  -0.990  -0.454  0.00  0.00    +0.020 C 
ATOM     11  C   LIG    1        4.514   0.186   0.389  0.00  0.00    +0.020 C 
ATOM     12  C   LIG    1        3.767   1.456  -0.026  0.00  0.00    +0.100 C 
ATOM     13  S   LIG    1        0.002  -0.004   0.002  0.00  0.00    +0.320 S 
BRANCH   6  14
ATOM     14  C   LIG    1        1.542   3.601   0.006  0.00  0.00    +0.270 C 
ATOM     15  N   LIG    1        1.774   4.713   0.009  0.00  0.00    -0.420 NA
ENDBRANCH   6  14
ENDBRANCH   2   5
BRANCH   1  16
ATOM     16  C   LIG    1       -3.635   2.717   0.035  0.00  0.00    +0.140 C 
BRANCH  16  19
ATOM     17  C   LIG    1       -6.502   0.571   1.241  0.00  0.00    +0.150 A 
ATOM     18  C   LIG    1       -5.390   1.399   1.236  0.00  0.00    -0.090 A 
ATOM     19  C   LIG    1       -4.844   1.817   0.037  0.00  0.00    -0.000 A 
ATOM     20  C   LIG    1       -5.406   1.416  -1.161  0.00  0.00    -0.090 A 
ATOM     21  C   LIG    1       -6.515   0.583  -1.164  0.00  0.00    +0.150 A 
ATOM     22  C   LIG    1       -7.067   0.161   0.040  0.00  0.00    +0.030 A 
BRANCH  17  24
ATOM     23  C   LIG    1       -6.407   0.621   3.617  0.00  0.00    +0.240 C 
ATOM     24  O   LIG    1       -7.039   0.160   2.421  0.00  0.00    -0.300 OA
ENDBRANCH  17  24
BRANCH  21  25
ATOM     25  O   LIG    1       -7.064   0.185  -2.342  0.00  0.00    -0.300 OA
ATOM     26  C   LIG    1       -6.444   0.658  -3.540  0.00  0.00    +0.240 C 
ENDBRANCH  21  25
BRANCH  22  27
ATOM     27  O   LIG    1       -8.159  -0.652   0.041  0.00  0.00    -0.310 OA
ATOM     28  C   LIG    1       -9.440  -0.018   0.051  0.00  0.00    +0.210 C 
ENDBRANCH  22  27
ENDBRANCH  16  19
ENDBRANCH   1  16
TORSDOF 7
