REMARK  Name = ZINCrD0000074thu.0
REMARK                            x       y       z     vdW  Elec       q    Type
REMARK                         _______ _______ _______ _____ _____    ______ ____
ROOT
ATOM      1  C   LIG    1       -7.649   3.017   0.105  0.00  0.00    +0.270 C 
ENDROOT
BRANCH   1   2
ATOM      2  C   LIG    1       -8.641   1.881   0.097  0.00  0.00    +0.520 C 
ATOM      3  N   LIG    1       -9.963   2.142   0.105  0.00  0.00    -0.680 N 
ATOM      4  H   LIG    1      -10.277   3.056   0.181  0.00  0.00    +0.420 HD
ATOM      5  O   LIG    1       -8.248   0.734   0.084  0.00  0.00    -0.490 OA
BRANCH   3   6
ATOM      6  C   LIG    1      -10.883   1.092   0.003  0.00  0.00    +0.200 A 
ATOM      7  C   LIG    1      -10.604  -0.137   0.586  0.00  0.00    +0.030 A 
ATOM      8  C   LIG    1      -11.518  -1.169   0.488  0.00  0.00    +0.070 A 
ATOM      9  C   LIG    1      -12.703  -0.983  -0.199  0.00  0.00    +0.010 A 
ATOM     10  C   LIG    1      -12.981   0.239  -0.786  0.00  0.00    +0.090 A 
ATOM     11  C   LIG    1      -12.075   1.276  -0.687  0.00  0.00    -0.210 A 
BRANCH  11  12
ATOM     12  C   LIG    1      -12.379   2.606  -1.327  0.00  0.00    +0.510 C 
ATOM     13  F   LIG    1      -11.392   2.905  -2.272  0.00  0.00    -0.170 F 
ATOM     14  F   LIG    1      -12.400   3.602  -0.344  0.00  0.00    -0.180 F 
ATOM     15  F   LIG    1      -13.626   2.546  -1.957  0.00  0.00    -0.170 F 
ENDBRANCH  11  12
ENDBRANCH   3   6
ENDBRANCH   1   2
BRANCH   1  16
ATOM     16  O   LIG    1       -6.300   2.481   0.094  0.00  0.00    -0.320 OA
BRANCH  16  17
ATOM     17  C   LIG    1       -5.292   3.367   0.099  0.00  0.00    +0.490 C 
ATOM     18  O   LIG    1       -5.530   4.552   0.112  0.00  0.00    -0.490 OA
BRANCH  17  19
ATOM     19  C   LIG    1       -3.865   2.885   0.088  0.00  0.00    +0.150 C 
BRANCH  19  20
ATOM     20  S   LIG    1       -2.747   4.309   0.098  0.00  0.00    +0.090 S 
BRANCH  20  26
ATOM     21  C   LIG    1        0.002  -0.008   0.042  0.00  0.00    +0.140 C 
ATOM     22  C   LIG    1       -0.018   1.499   0.059  0.00  0.00    +0.190 A 
ATOM     23  C   LIG    1        1.168   2.216   0.061  0.00  0.00    -0.090 A 
ATOM     24  C   LIG    1        1.105   3.601   0.076  0.00  0.00    +0.200 A 
ATOM     25  N   LIG    1       -0.077   4.193   0.087  0.00  0.00    -0.510 NA
ATOM     26  C   LIG    1       -1.193   3.478   0.084  0.00  0.00    +0.290 A 
ATOM     27  C   LIG    1        2.370   4.421   0.079  0.00  0.00    +0.150 C 
ATOM     28  N   LIG    1       -1.168   2.153   0.065  0.00  0.00    -0.540 NA
ENDBRANCH  20  26
ENDBRANCH  19  20
ENDBRANCH  17  19
ENDBRANCH  16  17
ENDBRANCH   1  16
TORSDOF 8
