REMARK  Name = ZINCtV00001bB3Et.0
REMARK                            x       y       z     vdW  Elec       q    Type
REMARK                         _______ _______ _______ _____ _____    ______ ____
ROOT
ATOM      1  N   LIG    1        6.918  -0.100  -0.081  0.00  0.00    -0.670 N 
ATOM      2  H   LIG    1        6.670  -1.034  -0.007  0.00  0.00    +0.410 HD
ATOM      3  C   LIG    1        5.965   0.853  -0.074  0.00  0.00    +0.550 C 
ATOM      4  O   LIG    1        6.280   2.030  -0.065  0.00  0.00    -0.520 OA
ENDROOT
BRANCH   1   9
ATOM      5  C   LIG    1       10.588  -0.226   0.177  0.00  0.00    +0.160 A 
ATOM      6  C   LIG    1       10.932   0.978  -0.424  0.00  0.00    +0.010 A 
ATOM      7  C   LIG    1        9.946   1.818  -0.907  0.00  0.00    +0.040 A 
ATOM      8  C   LIG    1        8.616   1.460  -0.799  0.00  0.00    +0.010 A 
ATOM      9  C   LIG    1        8.265   0.259  -0.194  0.00  0.00    +0.170 A 
ATOM     10  C   LIG    1        9.252  -0.586   0.292  0.00  0.00    -0.150 A 
ATOM     11  C   LIG    1        8.876  -1.891   0.943  0.00  0.00    +0.100 C 
BRANCH   5  13
ATOM     12  C   LIG    1       12.706  -0.557   1.208  0.00  0.00    +0.510 C 
ATOM     13  N   LIG    1       11.586  -1.076   0.665  0.00  0.00    -0.670 N 
ATOM     14  H   LIG    1       11.473  -2.038   0.613  0.00  0.00    +0.410 HD
ATOM     15  O   LIG    1       12.887   0.642   1.195  0.00  0.00    -0.520 OA
BRANCH  12  17
ATOM     16  C   LIG    1       14.896  -0.632   2.368  0.00  0.00    +0.040 C 
ATOM     17  C   LIG    1       13.732  -1.468   1.831  0.00  0.00    +0.060 C 
ENDBRANCH  12  17
ENDBRANCH   5  13
ENDBRANCH   1   9
BRANCH   3  18
ATOM     18  C   LIG    1        4.600   0.487  -0.078  0.00  0.00    -0.110 C 
ATOM     19  C   LIG    1        3.640   1.447  -0.071  0.00  0.00    +0.190 C 
BRANCH  19  20
ATOM     20  C   LIG    1        2.274   1.081  -0.075  0.00  0.00    -0.200 A 
ATOM     21  C   LIG    1        1.221   1.959  -0.069  0.00  0.00    +0.070 A 
ATOM     22  C   LIG    1       -0.013   1.369  -0.074  0.00  0.00    +0.020 A 
ATOM     23  C   LIG    1        0.005   0.004  -0.086  0.00  0.00    -0.140 A 
ATOM     24  S   LIG    1        1.667  -0.569  -0.089  0.00  0.00    +0.170 S 
BRANCH  23  25
ATOM     25  C   LIG    1       -1.192  -0.861  -0.094  0.00  0.00    -0.020 A 
ATOM     26  C   LIG    1       -2.468  -0.293  -0.084  0.00  0.00    +0.050 A 
ATOM     27  C   LIG    1       -3.582  -1.107  -0.098  0.00  0.00    +0.040 A 
ATOM     28  C   LIG    1       -3.437  -2.484  -0.109  0.00  0.00    -0.030 A 
ATOM     29  C   LIG    1       -2.174  -3.053  -0.112  0.00  0.00    +0.040 A 
ATOM     30 CL   LIG    1       -4.844  -3.501  -0.118  0.00  0.00    -0.060 Cl
ATOM     31  C   LIG    1       -1.053  -2.251  -0.105  0.00  0.00    +0.030 A 
ENDBRANCH  23  25
ENDBRANCH  19  20
ENDBRANCH   3  18
TORSDOF 6
