REMARK  Name = ZINCpk00001AZiYx.0
REMARK                            x       y       z     vdW  Elec       q    Type
REMARK                         _______ _______ _______ _____ _____    ______ ____
ROOT
ATOM      1  C   LIG    1        0.669  -1.252   5.080  0.00  0.00    +0.300 C 
ATOM      2  C   LIG    1        1.175  -1.032   6.347  0.00  0.00    -0.160 C 
ENDROOT
BRANCH   1   6
ATOM      3  N   LIG    1        0.129   1.039   2.372  0.00  0.00    -0.420 N 
ATOM      4  C   LIG    1        1.019   1.771   3.104  0.00  0.00    +0.020 A 
ATOM      5  C   LIG    1        1.367   1.077   4.200  0.00  0.00    +0.000 A 
ATOM      6  C   LIG    1        0.627  -0.192   4.139  0.00  0.00    -0.220 A 
ATOM      7  C   LIG    1        1.531   3.141   2.740  0.00  0.00    +0.140 C 
ATOM      8  C   LIG    1       -0.123  -0.136   2.976  0.00  0.00    +0.110 A 
ATOM      9  C   LIG    1       -1.057  -1.207   2.473  0.00  0.00    +0.160 C 
BRANCH   3  10
ATOM     10  C   LIG    1       -0.473   1.476   1.109  0.00  0.00    +0.320 C 
BRANCH  10  11
ATOM     11  C   LIG    1        0.408   1.027  -0.058  0.00  0.00    +0.170 C 
BRANCH  11  13
ATOM     12  C   LIG    1        0.570   1.081  -2.449  0.00  0.00    +0.220 C 
ATOM     13  O   LIG    1       -0.178   1.452  -1.289  0.00  0.00    -0.390 OA
ENDBRANCH  11  13
ENDBRANCH  10  11
ENDBRANCH   3  10
ENDBRANCH   1   6
BRANCH   2  14
ATOM     14  C   LIG    1        1.358  -2.159   7.269  0.00  0.00    +0.530 C 
ATOM     15  O   LIG    1        1.066  -3.286   6.919  0.00  0.00    -0.510 OA
BRANCH  14  16
ATOM     16  O   LIG    1        1.852  -1.944   8.506  0.00  0.00    -0.330 OA
BRANCH  16  17
ATOM     17  C   LIG    1        2.006  -3.105   9.365  0.00  0.00    +0.270 C 
BRANCH  17  18
ATOM     18  C   LIG    1        2.566  -2.674  10.696  0.00  0.00    +0.520 C 
ATOM     19  N   LIG    1        2.795  -3.588  11.659  0.00  0.00    -0.700 N 
ATOM     20  H   LIG    1        2.599  -4.524  11.495  0.00  0.00    +0.400 HD
ATOM     21  O   LIG    1        2.811  -1.503  10.901  0.00  0.00    -0.510 OA
BRANCH  19  22
ATOM     22  C   LIG    1        3.339  -3.169  12.953  0.00  0.00    +0.220 C 
ATOM     23  C   LIG    1        4.452  -4.024  13.561  0.00  0.00    +0.010 C 
ATOM     24  C   LIG    1        3.046  -4.058  14.163  0.00  0.00    +0.020 C 
ENDBRANCH  19  22
ENDBRANCH  17  18
ENDBRANCH  16  17
ENDBRANCH  14  16
ENDBRANCH   2  14
BRANCH   2  25
ATOM     25  C   LIG    1        1.520   0.295   6.759  0.00  0.00    +0.270 C 
ATOM     26  N   LIG    1        1.794   1.348   7.087  0.00  0.00    -0.420 NA
ENDBRANCH   2  25
TORSDOF 10
