REMARK  Name = ZINCrg00000fRebY.0
REMARK                            x       y       z     vdW  Elec       q    Type
REMARK                         _______ _______ _______ _____ _____    ______ ____
ROOT
ATOM      1  C   LIG    1       -1.262   0.505   3.403  0.00  0.00    +0.580 C 
ATOM      2  N   LIG    1       -1.107   0.397   2.068  0.00  0.00    -0.730 N 
ATOM      3  H   LIG    1       -1.265  -0.453   1.629  0.00  0.00    +0.400 HD
ATOM      4  O   LIG    1       -1.063   1.570   3.954  0.00  0.00    -0.520 OA
ENDROOT
BRANCH   1  10
ATOM      5  N   LIG    1       -2.808  -3.850   6.500  0.00  0.00    -0.380 N 
ATOM      6  N   LIG    1       -2.830  -3.260   7.767  0.00  0.00    -0.230 NA
ATOM      7  C   LIG    1       -2.494  -2.004   7.682  0.00  0.00    +0.300 A 
ATOM      8  C   LIG    1       -2.227  -1.714   6.277  0.00  0.00    -0.240 A 
ATOM      9  C   LIG    1       -1.836  -0.570   5.578  0.00  0.00    +0.240 A 
ATOM     10  C   LIG    1       -1.673  -0.671   4.196  0.00  0.00    -0.240 A 
ATOM     11  C   LIG    1       -1.910  -1.902   3.568  0.00  0.00    +0.380 A 
ATOM     12  N   LIG    1       -2.272  -2.960   4.255  0.00  0.00    -0.500 NA
ATOM     13  C   LIG    1       -2.441  -2.917   5.572  0.00  0.00    +0.330 A 
BRANCH   5  15
ATOM     14  C   LIG    1       -2.168  -6.162   6.979  0.00  0.00    +0.050 C 
ATOM     15  C   LIG    1       -3.129  -5.251   6.213  0.00  0.00    +0.270 C 
ATOM     16  C   LIG    1       -4.566  -5.545   6.649  0.00  0.00    +0.050 C 
ENDBRANCH   5  15
ENDBRANCH   1  10
BRANCH   2  17
ATOM     17  C   LIG    1       -0.699   1.564   1.282  0.00  0.00    +0.280 C 
ATOM     18  C   LIG    1       -1.941   2.428   0.988  0.00  0.00    -0.290 C 
ATOM     19  S   LIG    1       -2.451   1.858  -0.683  0.00  0.00    +2.380 S 
ATOM     20  C   LIG    1       -0.731   1.583  -1.262  0.00  0.00    -0.290 C 
ATOM     21  O   LIG    1       -3.036   2.935  -1.402  0.00  0.00    -0.930 OA
ATOM     22  O   LIG    1       -3.129   0.613  -0.582  0.00  0.00    -0.920 OA
ATOM     23  C   LIG    1       -0.013   1.086   0.008  0.00  0.00    +0.160 C 
BRANCH  23  24
ATOM     24  N   LIG    1        1.371   1.580  -0.003  0.00  0.00    -0.500 NA
ATOM     25  C   LIG    1        2.095   1.162   1.225  0.00  0.00    +0.170 C 
ATOM     26  C   LIG    1        3.584   1.288   0.818  0.00  0.00    +0.030 C 
ATOM     27  C   LIG    1        3.581   0.817  -0.655  0.00  0.00    +0.020 C 
ATOM     28  C   LIG    1        2.130   1.006  -1.134  0.00  0.00    +0.170 C 
ENDBRANCH  23  24
ENDBRANCH   2  17
TORSDOF 4
