REMARK  Name = ZINCah0000006lba.0
REMARK                            x       y       z     vdW  Elec       q    Type
REMARK                         _______ _______ _______ _____ _____    ______ ____
ROOT
ATOM      1  C   LIG    1       -1.635   2.219   2.545  0.00  0.00    +0.060 C 
ATOM      2  C   LIG    1       -1.627   2.935   1.193  0.00  0.00    +0.120 C 
ATOM      3  O   LIG    1       -2.968   3.369   0.778  0.00  0.00    -0.350 OA
ATOM      4  C   LIG    1       -3.183   2.599  -0.444  0.00  0.00    +0.200 C 
ATOM      5  C   LIG    1       -2.679   1.180  -0.083  0.00  0.00    +0.030 C 
ATOM      6  C   LIG    1       -1.872   2.609  -1.282  0.00  0.00    +0.060 C 
ATOM      7  C   LIG    1       -0.646   4.109   1.192  0.00  0.00    +0.060 C 
ATOM      8  C   LIG    1       -1.329   1.939   0.019  0.00  0.00    -0.210 C 
ENDROOT
BRANCH   8   9
ATOM      9  C   LIG    1       -0.014   1.203   0.009  0.00  0.00    +0.490 C 
ATOM     10  O   LIG    1        0.002  -0.004   0.002  0.00  0.00    -0.450 OA
ENDBRANCH   8   9
TORSDOF 1
