REMARK  Name = ZINCtV00001bB3wG.0
REMARK                            x       y       z     vdW  Elec       q    Type
REMARK                         _______ _______ _______ _____ _____    ______ ____
ROOT
ATOM      1  C   LIG    1       -0.164   5.001   2.378  0.00  0.00    +0.320 C 
ATOM      2  N   LIG    1       -1.442   5.691   2.183  0.00  0.00    -0.520 N 
ATOM      3  C   LIG    1       -1.786   6.884   2.816  0.00  0.00    +0.140 A 
ATOM      4  C   LIG    1       -1.077   7.671   3.722  0.00  0.00    -0.010 A 
ATOM      5  C   LIG    1       -1.639   8.826   4.225  0.00  0.00    +0.050 A 
ATOM      6  C   LIG    1       -2.908   9.212   3.836  0.00  0.00    -0.010 A 
ATOM      7  C   LIG    1       -3.619   8.436   2.937  0.00  0.00    +0.070 A 
ATOM      8  C   LIG    1       -3.061   7.283   2.433  0.00  0.00    -0.130 A 
ATOM      9  C   LIG    1       -3.563   6.241   1.460  0.00  0.00    -0.000 C 
ATOM     10  C   LIG    1       -4.822   5.563   2.002  0.00  0.00    +0.080 C 
ATOM     11  C   LIG    1       -3.839   6.873   0.094  0.00  0.00    +0.070 C 
ATOM     12  C   LIG    1       -2.425   5.247   1.364  0.00  0.00    +0.260 C 
ATOM     13  C   LIG    1       -2.397   4.102   0.593  0.00  0.00    -0.290 C 
ENDROOT
BRANCH  13  14
ATOM     14  C   LIG    1       -3.475   3.839  -0.372  0.00  0.00    +0.520 C 
ATOM     15  O   LIG    1       -4.566   3.463   0.021  0.00  0.00    -0.440 OA
BRANCH  14  16
ATOM     16  C   LIG    1       -3.238   4.029  -1.806  0.00  0.00    -0.270 A 
ATOM     17  C   LIG    1       -4.180   3.904  -2.789  0.00  0.00    +0.090 A 
ATOM     18  C   LIG    1       -3.684   4.138  -4.050  0.00  0.00    -0.010 A 
ATOM     19  C   LIG    1       -2.382   4.445  -4.100  0.00  0.00    -0.070 A 
ATOM     20  S   LIG    1       -1.699   4.464  -2.537  0.00  0.00    +0.230 S 
ENDBRANCH  14  16
ENDBRANCH  13  14
BRANCH  13  21
ATOM     21  C   LIG    1       -1.294   3.150   0.735  0.00  0.00    +0.330 C 
ATOM     22  N   LIG    1       -1.221   2.111  -0.055  0.00  0.00    -0.500 NA
BRANCH  22  23
ATOM     23  C   LIG    1       -0.136   1.279   0.008  0.00  0.00    +0.110 A 
ATOM     24  C   LIG    1        1.154   1.811   0.065  0.00  0.00    -0.020 A 
ATOM     25  C   LIG    1        2.243   0.967   0.122  0.00  0.00    +0.040 A 
ATOM     26  C   LIG    1        2.059  -0.406   0.124  0.00  0.00    -0.050 A 
ATOM     27  C   LIG    1        0.783  -0.940   0.067  0.00  0.00    +0.050 A 
ATOM     28 CL   LIG    1        3.435  -1.462   0.196  0.00  0.00    -0.070 Cl
ATOM     29  C   LIG    1       -0.314  -0.106   0.009  0.00  0.00    +0.040 A 
ENDBRANCH  22  23
ENDBRANCH  13  21
TORSDOF 4
