REMARK  Name = ZINCtV000002N8DJ.0
REMARK                            x       y       z     vdW  Elec       q    Type
REMARK                         _______ _______ _______ _____ _____    ______ ____
ROOT
ATOM      1  O   LIG    1        1.248  -2.742  -2.950  0.00  0.00    -0.580 OA
ATOM      2  C   LIG    1        0.280  -2.906  -2.233  0.00  0.00    +0.730 C 
ATOM      3  N   LIG    1       -0.165  -1.896  -1.460  0.00  0.00    -0.640 N 
ATOM      4  C   LIG    1       -1.319  -1.957  -0.550  0.00  0.00    +0.250 C 
ATOM      5  C   LIG    1       -1.432  -0.581   0.139  0.00  0.00    +0.090 C 
ATOM      6  C   LIG    1        0.002  -0.004   0.002  0.00  0.00    +0.000 C 
ATOM      7  C   LIG    1        0.424  -0.546  -1.387  0.00  0.00    +0.300 C 
ATOM      8  N   LIG    1       -0.348  -4.098  -2.211  0.00  0.00    -0.740 N 
ATOM      9  H   LIG    1       -1.120  -4.229  -1.639  0.00  0.00    +0.400 HD
ENDROOT
BRANCH   6  10
ATOM     10  S   LIG    1       -0.022   1.810   0.012  0.00  0.00    -0.070 S 
BRANCH  10  11
ATOM     11  C   LIG    1        1.689   2.229  -0.002  0.00  0.00    -0.080 A 
ATOM     12  C   LIG    1        2.651   1.227  -0.011  0.00  0.00    +0.000 A 
ATOM     13  C   LIG    1        3.992   1.560  -0.027  0.00  0.00    +0.070 A 
ATOM     14  C   LIG    1        4.377   2.889  -0.023  0.00  0.00    -0.100 A 
ATOM     15  C   LIG    1        3.420   3.889  -0.009  0.00  0.00    +0.070 A 
ATOM     16 BR   LIG    1        6.213   3.339  -0.038  0.00  0.00    -0.040 Br
ATOM     17  C   LIG    1        2.079   3.563   0.001  0.00  0.00    +0.050 A 
ENDBRANCH  10  11
ENDBRANCH   6  10
BRANCH   8  18
ATOM     18  C   LIG    1        0.136  -5.196  -3.051  0.00  0.00    +0.410 C 
BRANCH  18  19
ATOM     19  C   LIG    1       -0.733  -6.410  -2.842  0.00  0.00    -0.030 A 
ATOM     20  C   LIG    1       -1.846  -6.708  -3.540  0.00  0.00    -0.010 A 
ATOM     21  C   LIG    1       -2.344  -7.922  -3.025  0.00  0.00    -0.030 A 
ATOM     22  C   LIG    1       -1.503  -8.296  -2.024  0.00  0.00    +0.040 A 
ATOM     23  O   LIG    1       -0.530  -7.370  -1.925  0.00  0.00    -0.160 OA
BRANCH  22  24
ATOM     24  C   LIG    1       -1.632  -9.510  -1.191  0.00  0.00    -0.020 A 
ATOM     25  C   LIG    1       -2.696 -10.390  -1.396  0.00  0.00    +0.060 A 
ATOM     26  C   LIG    1       -2.809 -11.524  -0.618  0.00  0.00    +0.030 A 
ATOM     27  C   LIG    1       -1.876 -11.784   0.371  0.00  0.00    -0.030 A 
ATOM     28  C   LIG    1       -0.821 -10.912   0.582  0.00  0.00    +0.030 A 
ATOM     29 CL   LIG    1       -2.029 -13.209   1.351  0.00  0.00    -0.060 Cl
ATOM     30  C   LIG    1       -0.694  -9.778  -0.192  0.00  0.00    +0.050 A 
ENDBRANCH  22  24
ENDBRANCH  18  19
ENDBRANCH   8  18
TORSDOF 5
