REMARK  Name = ZINCpe00000VVGTx.0
REMARK                            x       y       z     vdW  Elec       q    Type
REMARK                         _______ _______ _______ _____ _____    ______ ____
ROOT
ATOM      1  C   LIG    1       -0.704   1.044  -3.603  0.00  0.00    +0.580 C 
ATOM      2  N   LIG    1       -0.038   1.189  -2.440  0.00  0.00    -0.710 N 
ATOM      3  H   LIG    1        0.914   1.012  -2.401  0.00  0.00    +0.420 HD
ATOM      4  O   LIG    1       -1.913   1.174  -3.633  0.00  0.00    -0.530 OA
ENDROOT
BRANCH   1  12
ATOM      5  O   LIG    1        2.024   0.488  -3.737  0.00  0.00    -0.510 OA
ATOM      6  C   LIG    1        1.425   0.459  -4.798  0.00  0.00    +0.540 A 
ATOM      7  N   LIG    1        2.082   0.166  -5.937  0.00  0.00    -0.580 N 
ATOM      8  H   LIG    1        3.033  -0.022  -5.904  0.00  0.00    +0.440 HD
ATOM      9  C   LIG    1        1.437   0.135  -7.127  0.00  0.00    +0.470 A 
ATOM     10  C   LIG    1        0.106   0.391  -7.214  0.00  0.00    -0.160 A 
ATOM     11  C   LIG    1       -0.625   0.694  -6.066  0.00  0.00    +0.270 A 
ATOM     12  C   LIG    1        0.032   0.728  -4.837  0.00  0.00    -0.250 A 
BRANCH  10  13
ATOM     13  N   LIG    1       -0.570   0.349  -8.530  0.00  0.00    +0.040 N 
ATOM     14  O   LIG    1       -1.763   0.578  -8.609  0.00  0.00    -0.140 OA
ATOM     15  O   LIG    1        0.068   0.084  -9.534  0.00  0.00    -0.160 OA
ENDBRANCH  10  13
ENDBRANCH   1  12
BRANCH   2  16
ATOM     16  C   LIG    1       -0.755   1.613  -1.235  0.00  0.00    +0.240 C 
ATOM     17  C   LIG    1       -0.004   1.122   0.006  0.00  0.00    +0.020 C 
ATOM     18  C   LIG    1       -0.724   1.620   1.261  0.00  0.00    +0.050 C 
ATOM     19  C   LIG    1       -0.811   3.148   1.221  0.00  0.00    +0.190 C 
ATOM     20  N   LIG    1       -1.539   3.568   0.017  0.00  0.00    -0.460 N 
ATOM     21  C   LIG    1       -0.839   3.141  -1.202  0.00  0.00    +0.190 C 
BRANCH  20  22
ATOM     22  C   LIG    1       -1.749   4.942   0.015  0.00  0.00    +0.260 A 
ATOM     23  C   LIG    1       -2.405   5.552   1.084  0.00  0.00    +0.020 A 
ATOM     24  C   LIG    1       -2.585   6.925   1.036  0.00  0.00    +0.050 A 
ATOM     25  C   LIG    1       -2.111   7.607  -0.075  0.00  0.00    +0.180 A 
ATOM     26  N   LIG    1       -1.506   6.949  -1.044  0.00  0.00    -0.220 NA
ATOM     27  N   LIG    1       -1.331   5.678  -1.005  0.00  0.00    -0.280 NA
ENDBRANCH  20  22
ENDBRANCH   2  16
TORSDOF 4
