REMARK  Name = ZINCqH0000003vqX.0
REMARK                            x       y       z     vdW  Elec       q    Type
REMARK                         _______ _______ _______ _____ _____    ______ ____
ROOT
ATOM      1  C   LIG    1       -3.967  -0.810  -0.245  0.00  0.00    -0.260 A 
ATOM      2  C   LIG    1       -2.678  -0.446  -0.209  0.00  0.00    +0.040 A 
ATOM      3  C   LIG    1       -2.442   0.930  -0.137  0.00  0.00    -0.250 A 
ATOM      4  C   LIG    1       -1.213   1.646  -0.076  0.00  0.00    +0.510 A 
ATOM      5  N   LIG    1       -1.244   2.968  -0.005  0.00  0.00    -0.580 NA
ATOM      6  C   LIG    1       -2.388   3.627   0.016  0.00  0.00    +0.410 A 
ATOM      7  N   LIG    1       -3.549   3.016  -0.033  0.00  0.00    -0.520 NA
ATOM      8  C   LIG    1       -3.625   1.682  -0.106  0.00  0.00    +0.130 A 
ATOM      9  C   LIG    1       -1.557  -1.453  -0.248  0.00  0.00    +0.140 C 
ATOM     10  S   LIG    1       -5.010   0.601  -0.183  0.00  0.00    +0.250 S 
ENDROOT
BRANCH   1  11
ATOM     11  C   LIG    1       -4.441  -2.195  -0.326  0.00  0.00    +0.550 C 
ATOM     12  O   LIG    1       -3.641  -3.110  -0.364  0.00  0.00    -0.490 OA
BRANCH  11  13
ATOM     13  O   LIG    1       -5.764  -2.454  -0.357  0.00  0.00    -0.350 OA
BRANCH  13  15
ATOM     14  C   LIG    1       -7.688  -3.943  -0.462  0.00  0.00    +0.070 C 
ATOM     15  C   LIG    1       -6.161  -3.849  -0.437  0.00  0.00    +0.200 C 
ENDBRANCH  13  15
ENDBRANCH  11  13
ENDBRANCH   1  11
BRANCH   4  16
ATOM     16  N   LIG    1       -0.008   0.973  -0.097  0.00  0.00    -0.670 N 
ATOM     17  H   LIG    1        0.009   0.014  -0.244  0.00  0.00    +0.420 HD
BRANCH  16  18
ATOM     18  C   LIG    1        1.244   1.707   0.099  0.00  0.00    +0.220 C 
ATOM     19  C   LIG    1        2.413   1.370  -0.830  0.00  0.00    +0.020 C 
ATOM     20  C   LIG    1        2.445   0.925   0.635  0.00  0.00    +0.020 C 
ENDBRANCH  16  18
ENDBRANCH   4  16
BRANCH   6  21
ATOM     21  C   LIG    1       -2.360   5.132   0.098  0.00  0.00    +0.300 C 
BRANCH  21  22
ATOM     22  N   LIG    1       -2.333   5.695  -1.258  0.00  0.00    -0.530 NA
ATOM     23  C   LIG    1       -1.080   5.354  -1.945  0.00  0.00    +0.170 C 
ATOM     24  C   LIG    1       -1.147   5.830  -3.398  0.00  0.00    +0.020 C 
ATOM     25  C   LIG    1       -1.369   7.345  -3.423  0.00  0.00    +0.000 C 
ATOM     26  C   LIG    1       -2.654   7.678  -2.660  0.00  0.00    +0.020 C 
ATOM     27  C   LIG    1       -2.543   7.148  -1.229  0.00  0.00    +0.180 C 
ENDBRANCH  21  22
ENDBRANCH   6  21
TORSDOF 7
