REMARK  Name = ZINCrH000004mfjn.0
REMARK                            x       y       z     vdW  Elec       q    Type
REMARK                         _______ _______ _______ _____ _____    ______ ____
ROOT
ATOM      1  N   LIG    1        4.057   0.109  -1.702  0.00  0.00    -0.720 N 
ATOM      2  H   LIG    1        4.608  -0.212  -0.972  0.00  0.00    +0.400 HD
ATOM      3  C   LIG    1        2.914   0.775  -1.442  0.00  0.00    +0.510 C 
ATOM      4  O   LIG    1        2.224   1.176  -2.355  0.00  0.00    -0.530 OA
ENDROOT
BRANCH   1   5
ATOM      5  C   LIG    1        4.466  -0.130  -3.088  0.00  0.00    +0.330 C 
BRANCH   5  11
ATOM      6  C   LIG    1        5.773  -2.260  -2.903  0.00  0.00    +0.150 A 
ATOM      7  C   LIG    1        6.970  -2.960  -2.918  0.00  0.00    -0.120 A 
ATOM      8  C   LIG    1        8.161  -2.287  -3.134  0.00  0.00    +0.150 A 
ATOM      9  C   LIG    1        8.154  -0.910  -3.336  0.00  0.00    +0.060 A 
ATOM     10  C   LIG    1        6.955  -0.216  -3.326  0.00  0.00    +0.040 A 
ATOM     11  C   LIG    1        5.768  -0.888  -3.104  0.00  0.00    -0.140 A 
BRANCH   6  13
ATOM     12  C   LIG    1        4.682  -4.333  -2.490  0.00  0.00    +0.240 C 
ATOM     13  O   LIG    1        4.603  -2.920  -2.690  0.00  0.00    -0.310 OA
ENDBRANCH   6  13
BRANCH   9  14
ATOM     14  O   LIG    1        9.323  -0.247  -3.549  0.00  0.00    -0.310 OA
ATOM     15  C   LIG    1        9.241   1.165  -3.748  0.00  0.00    +0.240 C 
ENDBRANCH   9  14
BRANCH   8  16
ATOM     16  O   LIG    1        9.337  -2.971  -3.149  0.00  0.00    -0.300 OA
ATOM     17  C   LIG    1        9.269  -4.382  -2.935  0.00  0.00    +0.240 C 
ENDBRANCH   8  16
ENDBRANCH   5  11
ENDBRANCH   1   5
BRANCH   3  18
ATOM     18  C   LIG    1        2.493   1.020  -0.016  0.00  0.00    +0.100 C 
BRANCH  18  19
ATOM     19  C   LIG    1        1.191   1.779   0.000  0.00  0.00    -0.060 A 
ATOM     20  C   LIG    1        1.208   3.139   0.007  0.00  0.00    +0.030 A 
ATOM     21  C   LIG    1       -0.005   3.850   0.023  0.00  0.00    -0.050 A 
ATOM     22  C   LIG    1       -0.027   5.255   0.030  0.00  0.00    +0.020 A 
ATOM     23  C   LIG    1       -1.221   5.909   0.044  0.00  0.00    +0.000 A 
ATOM     24  C   LIG    1       -2.424   5.206   0.052  0.00  0.00    +0.000 A 
ATOM     25  C   LIG    1       -2.441   3.845   0.046  0.00  0.00    +0.020 A 
ATOM     26  C   LIG    1       -1.229   3.135   0.031  0.00  0.00    -0.050 A 
ATOM     27  C   LIG    1       -1.206   1.730   0.017  0.00  0.00    +0.030 A 
ATOM     28  C   LIG    1       -0.013   1.076   0.008  0.00  0.00    +0.020 A 
ENDBRANCH  18  19
ENDBRANCH   3  18
TORSDOF 7
