REMARK  Name = ZINCrg000000rubO.0
REMARK                            x       y       z     vdW  Elec       q    Type
REMARK                         _______ _______ _______ _____ _____    ______ ____
ROOT
ATOM      1  N   LIG    1        0.096  -4.176  -0.041  0.00  0.00    -0.670 N 
ATOM      2  H   LIG    1        0.761  -4.643  -0.570  0.00  0.00    +0.420 HD
ATOM      3  C   LIG    1       -0.806  -4.874   0.677  0.00  0.00    +0.500 C 
ATOM      4  O   LIG    1       -1.697  -4.294   1.261  0.00  0.00    -0.500 OA
ENDROOT
BRANCH   1  11
ATOM      5  C   LIG    1       -2.375   1.812   0.159  0.00  0.00    +0.060 C 
ATOM      6  C   LIG    1       -1.011   1.963   0.837  0.00  0.00    +0.230 C 
ATOM      7  O   LIG    1       -0.005   1.357   0.021  0.00  0.00    -0.300 OA
ATOM      8  C   LIG    1        0.024  -0.004  -0.004  0.00  0.00    +0.070 A 
ATOM      9  C   LIG    1        0.409  -0.679  -1.148  0.00  0.00    +0.060 A 
ATOM     10  C   LIG    1        0.433  -2.062  -1.159  0.00  0.00    +0.010 A 
ATOM     11  C   LIG    1        0.071  -2.775  -0.025  0.00  0.00    +0.160 A 
ATOM     12  C   LIG    1       -0.317  -2.101   1.126  0.00  0.00    +0.020 A 
ATOM     13  C   LIG    1       -0.341  -0.718   1.138  0.00  0.00    +0.110 A 
ATOM     14  N   LIG    1       -0.728  -0.018   2.290  0.00  0.00    -0.660 N 
ATOM     15  H   LIG    1       -0.768  -0.467   3.148  0.00  0.00    +0.420 HD
ATOM     16  C   LIG    1       -1.044   1.291   2.186  0.00  0.00    +0.500 C 
ATOM     17  O   LIG    1       -1.352   1.924   3.174  0.00  0.00    -0.510 OA
ENDBRANCH   1  11
BRANCH   3  18
ATOM     18  C   LIG    1       -0.707  -6.376   0.755  0.00  0.00    +0.370 C 
BRANCH  18  19
ATOM     19  N   LIG    1       -1.793  -6.894   1.590  0.00  0.00    -0.560 N 
ATOM     20  C   LIG    1       -1.704  -7.077   2.912  0.00  0.00    +0.710 C 
ATOM     21  N   LIG    1       -2.842  -7.561   3.442  0.00  0.00    -0.710 N 
ATOM     22  H   LIG    1       -3.005  -7.767   4.376  0.00  0.00    +0.440 HD
ATOM     23  C   LIG    1       -3.791  -7.723   2.326  0.00  0.00    +0.160 C 
ATOM     24  C   LIG    1       -5.027  -6.847   2.539  0.00  0.00    +0.090 C 
ATOM     25  O   LIG    1       -0.708  -6.830   3.563  0.00  0.00    -0.540 OA
ATOM     26  C   LIG    1       -3.005  -7.252   1.119  0.00  0.00    +0.540 C 
ATOM     27  O   LIG    1       -3.386  -7.207  -0.031  0.00  0.00    -0.450 OA
BRANCH  23  28
ATOM     28  C   LIG    1       -4.194  -9.191   2.167  0.00  0.00    -0.050 C 
ATOM     29  C   LIG    1       -5.661  -9.490   1.854  0.00  0.00    +0.050 C 
ATOM     30  C   LIG    1       -5.097  -9.796   3.244  0.00  0.00    +0.040 C 
ENDBRANCH  23  28
ENDBRANCH  18  19
ENDBRANCH   3  18
TORSDOF 4
