REMARK  Name = ZINCqH0000035DKe.0
REMARK                            x       y       z     vdW  Elec       q    Type
REMARK                         _______ _______ _______ _____ _____    ______ ____
ROOT
ATOM      1  C   LIG    1        2.785  -0.150  -0.019  0.00  0.00    +0.560 C 
ATOM      2  N   LIG    1        2.626   1.187  -0.074  0.00  0.00    -0.650 N 
ATOM      3  H   LIG    1        3.400   1.765  -0.157  0.00  0.00    +0.430 HD
ATOM      4  O   LIG    1        1.812  -0.879  -0.019  0.00  0.00    -0.510 OA
ENDROOT
BRANCH   1   7
ATOM      5  C   LIG    1        5.580  -2.654   0.151  0.00  0.00    +0.120 A 
ATOM      6  C   LIG    1        4.308  -2.115   0.102  0.00  0.00    +0.030 A 
ATOM      7  C   LIG    1        4.141  -0.729   0.039  0.00  0.00    -0.090 A 
ATOM      8  C   LIG    1        5.260   0.107   0.038  0.00  0.00    +0.050 A 
ATOM      9  C   LIG    1        6.527  -0.436   0.093  0.00  0.00    -0.030 A 
ATOM     10 CL   LIG    1        7.916   0.604   0.092  0.00  0.00    -0.030 Cl
ATOM     11  C   LIG    1        6.692  -1.814   0.149  0.00  0.00    +0.110 A 
BRANCH   5  13
ATOM     12  C   LIG    1        4.561  -4.802   0.204  0.00  0.00    +0.250 C 
ATOM     13  O   LIG    1        5.745  -4.002   0.206  0.00  0.00    -0.300 OA
ENDBRANCH   5  13
BRANCH  11  14
ATOM     14  O   LIG    1        7.942  -2.345   0.203  0.00  0.00    -0.310 OA
BRANCH  14  15
ATOM     15  C   LIG    1        8.504  -2.551   1.500  0.00  0.00    +0.190 C 
BRANCH  15  16
ATOM     16  C   LIG    1        9.904  -3.151   1.360  0.00  0.00    -0.010 C 
ATOM     17  C   LIG    1        9.802  -4.545   0.737  0.00  0.00    +0.020 C 
ATOM     18  C   LIG    1       10.555  -3.256   2.740  0.00  0.00    +0.040 C 
ENDBRANCH  15  16
ENDBRANCH  14  15
ENDBRANCH  11  14
ENDBRANCH   1   7
BRANCH   2  19
ATOM     19  C   LIG    1        1.349   1.739  -0.012  0.00  0.00    +0.210 A 
ATOM     20  C   LIG    1        0.319   1.045   0.608  0.00  0.00    +0.010 A 
ATOM     21  C   LIG    1       -0.948   1.591   0.663  0.00  0.00    +0.070 A 
ATOM     22  C   LIG    1       -1.199   2.837   0.113  0.00  0.00    -0.020 A 
ATOM     23  C   LIG    1       -0.188   3.541  -0.507  0.00  0.00    +0.070 A 
ATOM     24  C   LIG    1        1.097   2.999  -0.575  0.00  0.00    -0.180 A 
BRANCH  24  25
ATOM     25  C   LIG    1        2.183   3.747  -1.236  0.00  0.00    +0.570 C 
ATOM     26  O   LIG    1        3.276   3.233  -1.379  0.00  0.00    -0.550 OA
ATOM     27  N   LIG    1        1.965   5.000  -1.681  0.00  0.00    -0.840 N 
ATOM     28  H   LIG    1        2.679   5.492  -2.116  0.00  0.00    +0.410 HD
ATOM     29  H   LIG    1        1.093   5.410  -1.567  0.00  0.00    +0.400 HD
ENDBRANCH  24  25
ENDBRANCH   2  19
TORSDOF 7
