REMARK  Name = ZINCvU0000000A3k.0
REMARK                            x       y       z     vdW  Elec       q    Type
REMARK                         _______ _______ _______ _____ _____    ______ ____
ROOT
ATOM      1  C   LIG    1        4.186  -4.335  -1.487  0.00  0.00    +0.100 C 
ENDROOT
BRANCH   1   5
ATOM      2  C   LIG    1        7.843  -6.074  -2.854  0.00  0.00    +0.130 A 
ATOM      3  C   LIG    1        7.458  -6.218  -1.529  0.00  0.00    -0.020 A 
ATOM      4  C   LIG    1        6.275  -5.654  -1.090  0.00  0.00    +0.070 A 
ATOM      5  C   LIG    1        5.476  -4.948  -1.969  0.00  0.00    -0.110 A 
ATOM      6  C   LIG    1        5.855  -4.808  -3.292  0.00  0.00    +0.060 A 
ATOM      7  C   LIG    1        7.039  -5.364  -3.735  0.00  0.00    -0.080 A 
BRANCH   2   8
ATOM      8  O   LIG    1        9.005  -6.628  -3.289  0.00  0.00    -0.310 OA
BRANCH   8   9
ATOM      9  C   LIG    1        9.338  -6.440  -4.666  0.00  0.00    +0.300 C 
BRANCH   9  16
ATOM     10  C   LIG    1       12.317  -5.168  -4.471  0.00  0.00    +0.160 C 
ATOM     11  C   LIG    1       11.952  -6.572  -4.880  0.00  0.00    +0.040 A 
ATOM     12  N   LIG    1       12.772  -7.522  -5.226  0.00  0.00    -0.360 NA
ATOM     13  O   LIG    1       12.182  -8.539  -5.507  0.00  0.00    +0.100 OA
ATOM     14  C   LIG    1       10.856  -8.392  -5.375  0.00  0.00    +0.000 A 
ATOM     15  C   LIG    1        9.802  -9.437  -5.636  0.00  0.00    +0.190 C 
ATOM     16  C   LIG    1       10.651  -7.119  -4.963  0.00  0.00    -0.220 A 
ENDBRANCH   9  16
ENDBRANCH   8   9
ENDBRANCH   2   8
ENDBRANCH   1   5
BRANCH   1  17
ATOM     17  C   LIG    1        4.449  -2.934  -0.996  0.00  0.00    +0.510 C 
ATOM     18  N   LIG    1        3.435  -2.188  -0.515  0.00  0.00    -0.730 N 
ATOM     19  H   LIG    1        2.537  -2.552  -0.485  0.00  0.00    +0.400 HD
ATOM     20  O   LIG    1        5.572  -2.479  -1.033  0.00  0.00    -0.530 OA
BRANCH  18  21
ATOM     21  C   LIG    1        3.690  -0.827  -0.037  0.00  0.00    +0.280 C 
ATOM     22  C   LIG    1        4.108  -0.873   1.434  0.00  0.00    +0.040 C 
BRANCH  21  23
ATOM     23  C   LIG    1        2.437  -0.002  -0.178  0.00  0.00    -0.080 A 
ATOM     24  C   LIG    1        1.216  -0.603  -0.157  0.00  0.00    +0.010 A 
ATOM     25  C   LIG    1        0.046   0.143  -0.286  0.00  0.00    +0.020 A 
ATOM     26  C   LIG    1        0.090   1.495  -0.436  0.00  0.00    +0.030 A 
ATOM     27  C   LIG    1        1.333   2.151  -0.463  0.00  0.00    -0.050 A 
ATOM     28  C   LIG    1        1.418   3.546  -0.616  0.00  0.00    +0.020 A 
ATOM     29  C   LIG    1        2.639   4.147  -0.636  0.00  0.00    +0.010 A 
ATOM     30  C   LIG    1        3.809   3.401  -0.508  0.00  0.00    +0.020 A 
ATOM     31  C   LIG    1        3.765   2.049  -0.358  0.00  0.00    +0.020 A 
ATOM     32  C   LIG    1        2.523   1.393  -0.331  0.00  0.00    -0.040 A 
ENDBRANCH  21  23
ENDBRANCH  18  21
ENDBRANCH   1  17
TORSDOF 7
