REMARK  Name = ZINCvU0000000JnE.0
REMARK                            x       y       z     vdW  Elec       q    Type
REMARK                         _______ _______ _______ _____ _____    ______ ____
ROOT
ATOM      1  C   LIG    1        5.387   4.426  -1.470  0.00  0.00    +0.290 A 
ATOM      2  N   LIG    1        6.274   5.378  -1.474  0.00  0.00    -0.480 NA
ATOM      3  C   LIG    1        5.650   6.583  -1.462  0.00  0.00    +0.050 A 
ATOM      4  C   LIG    1        6.105   7.904  -1.459  0.00  0.00    +0.070 A 
ATOM      5  C   LIG    1        5.207   8.934  -1.445  0.00  0.00    +0.000 A 
ATOM      6  C   LIG    1        3.843   8.683  -1.433  0.00  0.00    +0.030 A 
ATOM      7  C   LIG    1        3.370   7.387  -1.435  0.00  0.00    +0.010 A 
ATOM      8  C   LIG    1        4.268   6.329  -1.455  0.00  0.00    +0.050 A 
ATOM      9  N   LIG    1        4.134   4.955  -1.455  0.00  0.00    -0.480 N 
ENDROOT
BRANCH   1  12
ATOM     10  N   LIG    1        7.548   1.548  -0.871  0.00  0.00    -0.570 N 
ATOM     11  C   LIG    1        6.662   2.584  -0.327  0.00  0.00    +0.300 C 
ATOM     12  C   LIG    1        5.702   2.952  -1.480  0.00  0.00    +0.090 C 
ATOM     13  C   LIG    1        6.543   2.575  -2.722  0.00  0.00    +0.090 C 
ATOM     14  C   LIG    1        7.505   1.524  -2.214  0.00  0.00    +0.530 C 
ATOM     15  O   LIG    1        8.144   0.770  -2.916  0.00  0.00    -0.510 OA
BRANCH  10  20
ATOM     16  C   LIG    1       10.742  -1.915   2.290  0.00  0.00    +0.090 C 
ATOM     17  C   LIG    1        9.893  -0.995   1.451  0.00  0.00    -0.070 A 
ATOM     18  C   LIG    1       10.404   0.216   1.024  0.00  0.00    +0.010 A 
ATOM     19  C   LIG    1        9.629   1.062   0.254  0.00  0.00    +0.030 A 
ATOM     20  C   LIG    1        8.335   0.694  -0.091  0.00  0.00    +0.130 A 
ATOM     21  C   LIG    1        7.823  -0.521   0.345  0.00  0.00    -0.070 A 
ATOM     22  C   LIG    1        6.417  -0.922  -0.022  0.00  0.00    +0.090 C 
ATOM     23  C   LIG    1        8.605  -1.365   1.109  0.00  0.00    +0.010 A 
ENDBRANCH  10  20
ENDBRANCH   1  12
BRANCH   9  24
ATOM     24  C   LIG    1        2.875   4.205  -1.446  0.00  0.00    +0.310 C 
BRANCH  24  25
ATOM     25  C   LIG    1        2.451   3.937  -0.001  0.00  0.00    +0.070 C 
BRANCH  25  26
ATOM     26  C   LIG    1        1.156   3.165   0.008  0.00  0.00    -0.090 A 
ATOM     27  C   LIG    1        1.175   1.783   0.000  0.00  0.00    +0.010 A 
ATOM     28  C   LIG    1       -0.013   1.076   0.008  0.00  0.00    +0.000 A 
ATOM     29  C   LIG    1       -1.219   1.751   0.017  0.00  0.00    +0.000 A 
ATOM     30  C   LIG    1       -1.238   3.133   0.030  0.00  0.00    +0.000 A 
ATOM     31  C   LIG    1       -0.050   3.840   0.022  0.00  0.00    +0.010 A 
ENDBRANCH  25  26
ENDBRANCH  24  25
ENDBRANCH   9  24
TORSDOF 5
