REMARK  Name = ZINCpk00000e94MA.0
REMARK                            x       y       z     vdW  Elec       q    Type
REMARK                         _______ _______ _______ _____ _____    ______ ____
ROOT
ATOM      1  N   LIG    1       -1.992  -4.420  -0.004  0.00  0.00    -0.690 N 
ATOM      2  H   LIG    1       -1.100  -4.801  -0.014  0.00  0.00    +0.410 HD
ATOM      3  C   LIG    1       -2.154  -3.082   0.005  0.00  0.00    +0.510 C 
ATOM      4  O   LIG    1       -3.270  -2.606   0.017  0.00  0.00    -0.510 OA
ENDROOT
BRANCH   3   5
ATOM      5  C   LIG    1       -0.960  -2.185  -0.001  0.00  0.00    +0.510 C 
ATOM      6  N   LIG    1       -1.121  -0.847   0.007  0.00  0.00    -0.610 N 
ATOM      7  H   LIG    1       -2.014  -0.467   0.018  0.00  0.00    +0.430 HD
ATOM      8  O   LIG    1        0.157  -2.662  -0.014  0.00  0.00    -0.510 OA
BRANCH   6   9
ATOM      9  C   LIG    1        0.002  -0.004   0.002  0.00  0.00    +0.010 A 
ATOM     10  C   LIG    1        1.301  -0.401  -0.013  0.00  0.00    +0.270 A 
ATOM     11  N   LIG    1        2.070   0.712  -0.014  0.00  0.00    -0.360 N 
ATOM     12  N   LIG    1        1.220   1.825   0.000  0.00  0.00    -0.240 NA
ATOM     13  C   LIG    1        3.534   0.746  -0.028  0.00  0.00    +0.380 C 
ATOM     14  C   LIG    1       -0.017   1.399   0.010  0.00  0.00    -0.020 A 
BRANCH  14  15
ATOM     15  C   LIG    1       -1.250   2.266   0.021  0.00  0.00    +0.500 C 
ATOM     16  F   LIG    1       -2.291   1.603  -0.637  0.00  0.00    -0.190 F 
ATOM     17  F   LIG    1       -0.977   3.472  -0.634  0.00  0.00    -0.180 F 
ENDBRANCH  14  15
ENDBRANCH   6   9
ENDBRANCH   3   5
BRANCH   1  18
ATOM     18  C   LIG    1       -3.164  -5.299   0.002  0.00  0.00    +0.360 C 
BRANCH  18  21
ATOM     19  N   LIG    1       -2.097  -8.716  -0.697  0.00  0.00    -0.360 N 
ATOM     20  C   LIG    1       -2.489  -7.492  -1.110  0.00  0.00    +0.260 A 
ATOM     21  C   LIG    1       -2.713  -6.737  -0.010  0.00  0.00    -0.270 A 
ATOM     22  C   LIG    1       -2.457  -7.529   1.115  0.00  0.00    +0.250 A 
ATOM     23  N   LIG    1       -2.088  -8.715   0.704  0.00  0.00    -0.290 NA
BRANCH  19  24
ATOM     24  C   LIG    1       -1.749  -9.847  -1.560  0.00  0.00    +0.320 C 
BRANCH  24  26
ATOM     25  C   LIG    1       -0.035 -11.607  -2.015  0.00  0.00    +0.030 C 
ATOM     26  C   LIG    1       -0.350 -10.351  -1.201  0.00  0.00    -0.020 C 
ATOM     27  C   LIG    1        0.681  -9.266  -1.520  0.00  0.00    +0.020 C 
ENDBRANCH  24  26
ENDBRANCH  19  24
ENDBRANCH  18  21
ENDBRANCH   1  18
TORSDOF 7
