REMARK  Name = ZINCpk00000xI4He.0
REMARK                            x       y       z     vdW  Elec       q    Type
REMARK                         _______ _______ _______ _____ _____    ______ ____
ROOT
ATOM      1  C   LIG    1        0.032  -0.402   2.548  0.00  0.00    +0.600 C 
ATOM      2  N   LIG    1       -0.048  -1.313   3.538  0.00  0.00    -0.620 N 
ATOM      3  C   LIG    1       -0.040  -2.755   3.243  0.00  0.00    +0.240 C 
ATOM      4  C   LIG    1        1.020  -3.421   4.135  0.00  0.00    +0.220 C 
ATOM      5  O   LIG    1        0.786  -3.053   5.496  0.00  0.00    -0.370 OA
ATOM      6  C   LIG    1        0.909  -1.653   5.753  0.00  0.00    +0.220 C 
ATOM      7  C   LIG    1       -0.152  -0.896   4.945  0.00  0.00    +0.300 C 
ATOM      8  O   LIG    1        0.117   0.781   2.816  0.00  0.00    -0.530 OA
ENDROOT
BRANCH   1  14
ATOM      9  C   LIG    1        0.781  -0.295   0.085  0.00  0.00    +0.140 A 
ATOM     10  N   LIG    1        0.485  -0.946  -1.006  0.00  0.00    -0.290 NA
ATOM     11  N   LIG    1       -0.462  -1.931  -0.703  0.00  0.00    -0.460 N 
ATOM     12  H   LIG    1       -0.850  -2.557  -1.334  0.00  0.00    +0.450 HD
ATOM     13  C   LIG    1       -0.746  -1.859   0.607  0.00  0.00    +0.290 A 
ATOM     14  C   LIG    1        0.017  -0.840   1.141  0.00  0.00    -0.280 A 
BRANCH   9  15
ATOM     15  C   LIG    1        1.762   0.844   0.197  0.00  0.00    +0.130 C 
BRANCH  15  17
ATOM     16  C   LIG    1        4.147   1.447   0.631  0.00  0.00    +0.030 C 
ATOM     17  C   LIG    1        3.152   0.291   0.516  0.00  0.00    +0.010 C 
ENDBRANCH  15  17
ENDBRANCH   9  15
ENDBRANCH   1  14
BRANCH   6  18
ATOM     18  C   LIG    1        0.703  -1.391   7.223  0.00  0.00    +0.220 A 
ATOM     19  C   LIG    1        0.548  -2.446   8.108  0.00  0.00    -0.120 A 
ATOM     20  C   LIG    1        0.362  -2.162   9.452  0.00  0.00    +0.360 A 
ATOM     21  N   LIG    1        0.337  -0.899   9.847  0.00  0.00    -0.570 NA
ATOM     22  C   LIG    1        0.488   0.086   8.975  0.00  0.00    +0.570 A 
ATOM     23  N   LIG    1        0.673  -0.151   7.685  0.00  0.00    -0.560 NA
BRANCH  22  24
ATOM     24  N   LIG    1        0.456   1.396   9.423  0.00  0.00    -0.590 N 
ATOM     25  C   LIG    1        0.621   2.499   8.473  0.00  0.00    +0.300 C 
ATOM     26  C   LIG    1        0.257   1.678  10.847  0.00  0.00    +0.300 C 
ENDBRANCH  22  24
ENDBRANCH   6  18
TORSDOF 5
