REMARK  Name = ZINCrH000004rkKs.0
REMARK                            x       y       z     vdW  Elec       q    Type
REMARK                         _______ _______ _______ _____ _____    ______ ____
ROOT
ATOM      1  N   LIG    1        2.896   9.397  -1.256  0.00  0.00    -0.560 N 
ATOM      2  C   LIG    1        3.144   8.090  -1.450  0.00  0.00    +0.710 C 
ATOM      3  N   LIG    1        3.344   7.431  -0.303  0.00  0.00    -0.560 N 
ATOM      4  C   LIG    1        3.254   8.251   0.763  0.00  0.00    +0.540 C 
ATOM      5  O   LIG    1        3.389   7.952   1.930  0.00  0.00    -0.450 OA
ATOM      6  O   LIG    1        3.180   7.564  -2.546  0.00  0.00    -0.520 OA
ATOM      7  C   LIG    1        2.948   9.624   0.199  0.00  0.00    +0.230 C 
ATOM      8  C   LIG    1        4.063  10.611   0.550  0.00  0.00    +0.090 C 
ENDROOT
BRANCH   1  13
ATOM      9  C   LIG    1        1.866  13.284  -5.258  0.00  0.00    +0.100 C 
ATOM     10  C   LIG    1        2.140  12.252  -4.195  0.00  0.00    -0.110 A 
ATOM     11  C   LIG    1        2.375  10.937  -4.554  0.00  0.00    +0.040 A 
ATOM     12  C   LIG    1        2.626   9.989  -3.582  0.00  0.00    +0.000 A 
ATOM     13  C   LIG    1        2.642  10.356  -2.243  0.00  0.00    +0.180 A 
ATOM     14  C   LIG    1        2.401  11.676  -1.885  0.00  0.00    -0.020 A 
ATOM     15  C   LIG    1        2.156  12.621  -2.862  0.00  0.00    +0.040 A 
ENDBRANCH   1  13
BRANCH   3  16
ATOM     16  C   LIG    1        3.631   5.997  -0.217  0.00  0.00    +0.370 C 
BRANCH  16  17
ATOM     17  C   LIG    1        2.338   5.232  -0.094  0.00  0.00    +0.500 C 
ATOM     18  N   LIG    1        2.357   3.888   0.000  0.00  0.00    -0.660 N 
ATOM     19  H   LIG    1        3.203   3.418   0.070  0.00  0.00    +0.420 HD
ATOM     20  O   LIG    1        1.281   5.827  -0.081  0.00  0.00    -0.500 OA
BRANCH  18  21
ATOM     21  C   LIG    1        1.156   3.170  -0.003  0.00  0.00    +0.160 A 
ATOM     22  C   LIG    1        0.024   3.711  -0.597  0.00  0.00    +0.030 A 
ATOM     23  C   LIG    1       -1.161   2.998  -0.598  0.00  0.00    -0.020 A 
ATOM     24  C   LIG    1       -1.217   1.745  -0.014  0.00  0.00    +0.020 A 
ATOM     25  C   LIG    1       -0.092   1.207   0.584  0.00  0.00    +0.050 A 
ATOM     26 CL   LIG    1       -2.578   3.673  -1.341  0.00  0.00    -0.060 Cl
ATOM     27  C   LIG    1        1.095   1.914   0.588  0.00  0.00    -0.110 A 
ATOM     28  C   LIG    1        2.321   1.324   1.234  0.00  0.00    +0.100 C 
ENDBRANCH  18  21
ENDBRANCH  16  17
ENDBRANCH   3  16
TORSDOF 4
