REMARK  Name = ZINCrD0000074M6n.0
REMARK                            x       y       z     vdW  Elec       q    Type
REMARK                         _______ _______ _______ _____ _____    ______ ____
ROOT
ATOM      1  C   LIG    1       -2.450   4.184  -0.315  0.00  0.00    +0.100 C 
ATOM      2  C   LIG    1       -1.161   3.446  -0.060  0.00  0.00    -0.080 A 
ATOM      3  C   LIG    1        0.008   4.151   0.156  0.00  0.00    -0.010 A 
ATOM      4  C   LIG    1        1.193   3.480   0.389  0.00  0.00    +0.040 A 
ATOM      5  C   LIG    1        1.218   2.089   0.408  0.00  0.00    +0.070 A 
ATOM      6  C   LIG    1        0.037   1.384   0.193  0.00  0.00    +0.120 A 
ATOM      7  N   LIG    1        0.037  -0.021   0.214  0.00  0.00    -0.540 N 
ATOM      8  C   LIG    1        1.341  -0.705   0.211  0.00  0.00    +0.270 C 
ATOM      9  C   LIG    1        2.266   0.078   1.154  0.00  0.00    +0.240 C 
ATOM     10  C   LIG    1       -1.117  -0.719   0.236  0.00  0.00    +0.610 C 
ATOM     11  O   LIG    1       -2.177  -0.136   0.356  0.00  0.00    -0.500 OA
ATOM     12  N   LIG    1        2.433   1.441   0.639  0.00  0.00    -0.470 N 
ATOM     13  C   LIG    1       -1.149   2.063  -0.037  0.00  0.00    +0.030 A 
ENDROOT
BRANCH  10  14
ATOM     14  C   LIG    1       -1.092  -2.190   0.113  0.00  0.00    +0.000 A 
ATOM     15  N   LIG    1       -0.033  -2.946  -0.126  0.00  0.00    -0.260 NA
ATOM     16  N   LIG    1       -0.374  -4.189  -0.170  0.00  0.00    -0.360 N 
ATOM     17  H   LIG    1        0.234  -4.928  -0.330  0.00  0.00    +0.450 HD
ATOM     18  C   LIG    1       -1.692  -4.311   0.040  0.00  0.00    -0.020 A 
ATOM     19  C   LIG    1       -2.557  -5.544   0.080  0.00  0.00    +0.240 C 
ATOM     20  C   LIG    1       -2.205  -6.461  -1.093  0.00  0.00    +0.070 C 
ATOM     21  O   LIG    1       -3.925  -5.127  -0.023  0.00  0.00    -0.360 OA
ATOM     22  C   LIG    1       -4.305  -4.100   0.897  0.00  0.00    +0.150 C 
ATOM     23  C   LIG    1       -5.825  -3.933   0.876  0.00  0.00    +0.070 C 
ATOM     24  C   LIG    1       -3.639  -2.774   0.496  0.00  0.00    +0.110 C 
ATOM     25  C   LIG    1       -2.185  -3.059   0.232  0.00  0.00    -0.130 A 
ENDBRANCH  10  14
BRANCH  12  26
ATOM     26  C   LIG    1        3.272   1.449  -0.566  0.00  0.00    +0.100 C 
ATOM     27  C   LIG    1        4.659   2.088  -0.456  0.00  0.00    +0.040 C 
ATOM     28  C   LIG    1        3.545   2.802  -1.227  0.00  0.00    +0.030 C 
ENDBRANCH  12  26
TORSDOF 2
