REMARK  Name = ZINCrD00000laZcs.0
REMARK                            x       y       z     vdW  Elec       q    Type
REMARK                         _______ _______ _______ _____ _____    ______ ____
ROOT
ATOM      1  C   LIG    1        2.099   1.917   3.530  0.00  0.00    +0.570 C 
ATOM      2  N   LIG    1        1.385   1.594   2.434  0.00  0.00    -0.670 N 
ATOM      3  H   LIG    1        1.831   1.220   1.658  0.00  0.00    +0.410 HD
ATOM      4  O   LIG    1        1.532   2.309   4.532  0.00  0.00    -0.520 OA
ENDROOT
BRANCH   2   5
ATOM      5  C   LIG    1        0.002   1.798   2.415  0.00  0.00    +0.130 A 
ATOM      6  C   LIG    1       -0.743   1.626   3.575  0.00  0.00    +0.140 A 
ATOM      7  C   LIG    1       -2.109   1.828   3.553  0.00  0.00    -0.670 A 
ATOM      8  C   LIG    1       -2.735   2.202   2.378  0.00  0.00    +0.110 A 
ATOM      9  C   LIG    1       -1.996   2.379   1.223  0.00  0.00    +0.020 A 
ATOM     10  C   LIG    1       -0.630   2.173   1.236  0.00  0.00    -0.060 A 
ATOM     11  C   LIG    1        0.174   2.360  -0.024  0.00  0.00    +0.100 C 
BRANCH   7  12
ATOM     12  S   LIG    1       -3.054   1.610   5.023  0.00  0.00    +2.690 S 
ATOM     13  O   LIG    1       -2.305   0.736   5.856  0.00  0.00    -0.950 OA
ATOM     14  O   LIG    1       -4.386   1.337   4.608  0.00  0.00    -0.950 OA
BRANCH  12  15
ATOM     15  N   LIG    1       -3.098   3.073   5.799  0.00  0.00    -1.000 NA
ATOM     16  C   LIG    1       -2.061   3.414   6.776  0.00  0.00    +0.300 C 
ATOM     17  C   LIG    1       -4.173   4.024   5.509  0.00  0.00    +0.290 C 
ENDBRANCH  12  15
ENDBRANCH   7  12
ENDBRANCH   2   5
BRANCH   1  21
ATOM     18  C   LIG    1        6.331   1.569   3.488  0.00  0.00    +0.250 A 
ATOM     19  C   LIG    1        5.683   2.018   4.635  0.00  0.00    -0.080 A 
ATOM     20  C   LIG    1        4.311   2.132   4.652  0.00  0.00    +0.140 A 
ATOM     21  C   LIG    1        3.569   1.796   3.516  0.00  0.00    -0.210 A 
ATOM     22  C   LIG    1        4.223   1.340   2.367  0.00  0.00    +0.090 A 
ATOM     23  C   LIG    1        5.595   1.234   2.354  0.00  0.00    -0.080 A 
BRANCH  18  24
ATOM     24  N   LIG    1        7.717   1.455   3.474  0.00  0.00    -0.620 N 
BRANCH  24  26
ATOM     25  C   LIG    1        8.746   2.179   1.377  0.00  0.00    +0.020 C 
ATOM     26  C   LIG    1        8.401   0.983   2.267  0.00  0.00    +0.270 C 
ENDBRANCH  24  26
BRANCH  24  27
ATOM     27  C   LIG    1        8.493   1.806   4.666  0.00  0.00    +0.270 C 
ATOM     28  C   LIG    1        8.656   0.569   5.551  0.00  0.00    +0.020 C 
ENDBRANCH  24  27
ENDBRANCH  18  24
ENDBRANCH   1  21
TORSDOF 7
