REMARK  Name = ZINCrH000004v0ZM.0
REMARK                            x       y       z     vdW  Elec       q    Type
REMARK                         _______ _______ _______ _____ _____    ______ ____
ROOT
ATOM      1  C   LIG    1        1.966  -2.603   1.014  0.00  0.00    +0.140 A 
ATOM      2  C   LIG    1        1.961  -3.989   1.040  0.00  0.00    +0.110 A 
ATOM      3  C   LIG    1        0.777  -4.673   1.243  0.00  0.00    -0.180 A 
ATOM      4  C   LIG    1       -0.404  -3.979   1.427  0.00  0.00    +0.080 A 
ATOM      5  C   LIG    1       -0.408  -2.596   1.408  0.00  0.00    +0.000 A 
ATOM      6  C   LIG    1        0.775  -1.902   1.205  0.00  0.00    +0.110 A 
ENDROOT
BRANCH   6   7
ATOM      7  N   LIG    1        0.773  -0.503   1.185  0.00  0.00    -0.490 N 
ATOM      8  C   LIG    1        1.526   0.041   2.325  0.00  0.00    +0.160 C 
ATOM      9  C   LIG    1        1.549   1.569   2.232  0.00  0.00    +0.230 C 
ATOM     10  O   LIG    1        0.207   2.059   2.187  0.00  0.00    -0.380 OA
ATOM     11  C   LIG    1       -0.556   1.550   1.090  0.00  0.00    +0.230 C 
ATOM     12  C   LIG    1       -0.600   0.022   1.171  0.00  0.00    +0.170 C 
ENDBRANCH   6   7
BRANCH   1  15
ATOM     13  O   LIG    1        4.368  -3.621   1.541  0.00  0.00    -0.500 OA
ATOM     14  C   LIG    1        4.340  -2.478   1.127  0.00  0.00    +0.580 C 
ATOM     15  N   LIG    1        3.163  -1.907   0.801  0.00  0.00    -0.650 N 
ATOM     16  H   LIG    1        3.146  -1.016   0.419  0.00  0.00    +0.420 HD
BRANCH  14  17
ATOM     17  C   LIG    1        5.592  -1.716   0.982  0.00  0.00    -0.160 A 
ATOM     18  C   LIG    1        5.643  -0.438   0.521  0.00  0.00    +0.000 A 
ATOM     19  S   LIG    1        7.250   0.131   0.489  0.00  0.00    +0.360 S 
ATOM     20  C   LIG    1        7.879  -1.389   1.100  0.00  0.00    -0.200 A 
ATOM     21  C   LIG    1        6.892  -2.253   1.309  0.00  0.00    +0.210 A 
BRANCH  20  22
ATOM     22  N   LIG    1        9.311  -1.669   1.349  0.00  0.00    +0.060 N 
ATOM     23  O   LIG    1       10.147  -0.812   1.127  0.00  0.00    -0.150 OA
ATOM     24  O   LIG    1        9.654  -2.758   1.776  0.00  0.00    -0.130 OA
ENDBRANCH  20  22
ENDBRANCH  14  17
ENDBRANCH   1  15
BRANCH   3  25
ATOM     25  C   LIG    1        0.774  -6.180   1.266  0.00  0.00    +0.510 C 
ATOM     26  F   LIG    1        1.609  -6.633   2.293  0.00  0.00    -0.170 F 
ATOM     27  F   LIG    1        1.239  -6.665   0.039  0.00  0.00    -0.180 F 
ATOM     28  F   LIG    1       -0.528  -6.640   1.486  0.00  0.00    -0.180 F 
ENDBRANCH   3  25
TORSDOF 5
