REMARK  Name = ZINCpk000000mw6H.0
REMARK                            x       y       z     vdW  Elec       q    Type
REMARK                         _______ _______ _______ _____ _____    ______ ____
ROOT
ATOM      1  C   LIG    1        1.715   7.691  -2.615  0.00  0.00    +0.120 C 
ENDROOT
BRANCH   1   7
ATOM      2  N   LIG    1        1.398   3.466   0.007  0.00  0.00    -0.540 NA
ATOM      3  C   LIG    1        0.814   3.992  -1.234  0.00  0.00    +0.160 C 
ATOM      4  C   LIG    1        0.645   5.510  -1.113  0.00  0.00    +0.280 C 
ATOM      5  N   LIG    1        1.941   6.096  -0.738  0.00  0.00    -0.620 N 
ATOM      6  C   LIG    1        2.653   5.529   0.417  0.00  0.00    +0.300 C 
ATOM      7  C   LIG    1        2.462   7.125  -1.434  0.00  0.00    +0.520 C 
ATOM      8  O   LIG    1        3.532   7.596  -1.111  0.00  0.00    -0.520 OA
ATOM      9  C   LIG    1        2.743   4.010   0.236  0.00  0.00    +0.170 C 
BRANCH   2  10
ATOM     10  C   LIG    1        1.417   1.997  -0.001  0.00  0.00    +0.180 C 
BRANCH  10  11
ATOM     11  C   LIG    1       -0.018   1.468   0.010  0.00  0.00    +0.180 C 
BRANCH  11  13
ATOM     12  C   LIG    1        0.018  -1.178  -0.004  0.00  0.00    +0.020 C 
ATOM     13  C   LIG    1        0.002  -0.004   0.002  0.00  0.00    -0.190 C 
ENDBRANCH  11  13
ENDBRANCH  10  11
ENDBRANCH   2  10
ENDBRANCH   1   7
BRANCH   1  14
ATOM     14  C   LIG    1        2.507   8.825  -3.214  0.00  0.00    +0.010 A 
ATOM     15  C   LIG    1        2.306  10.117  -2.767  0.00  0.00    -0.090 A 
ATOM     16  C   LIG    1        3.037  11.162  -3.312  0.00  0.00    +0.150 A 
ATOM     17  C   LIG    1        3.964  10.910  -4.316  0.00  0.00    +0.030 A 
ATOM     18  C   LIG    1        4.159   9.610  -4.766  0.00  0.00    +0.150 A 
ATOM     19  C   LIG    1        3.428   8.570  -4.212  0.00  0.00    -0.090 A 
BRANCH  18  20
ATOM     20  O   LIG    1        5.064   9.358  -5.749  0.00  0.00    -0.300 OA
ATOM     21  C   LIG    1        5.212   7.998  -6.162  0.00  0.00    +0.240 C 
ENDBRANCH  18  20
BRANCH  17  22
ATOM     22  O   LIG    1        4.678  11.934  -4.857  0.00  0.00    -0.310 OA
ATOM     23  C   LIG    1        4.113  12.591  -5.994  0.00  0.00    +0.210 C 
ENDBRANCH  17  22
BRANCH  16  24
ATOM     24  O   LIG    1        2.843  12.433  -2.868  0.00  0.00    -0.300 OA
ATOM     25  C   LIG    1        1.874  12.618  -1.833  0.00  0.00    +0.240 C 
ENDBRANCH  16  24
ENDBRANCH   1  14
TORSDOF 8
