REMARK  Name = ZINCrD00000hQ7tG.0
REMARK                            x       y       z     vdW  Elec       q    Type
REMARK                         _______ _______ _______ _____ _____    ______ ____
ROOT
ATOM      1  O   LIG    1        5.839   7.600  -0.929  0.00  0.00    -0.530 OA
ATOM      2  C   LIG    1        5.082   7.859  -0.018  0.00  0.00    +0.540 C 
ATOM      3  N   LIG    1        3.990   7.097   0.189  0.00  0.00    -0.620 N 
ATOM      4  C   LIG    1        2.991   7.298   1.254  0.00  0.00    +0.260 C 
ATOM      5  C   LIG    1        2.347   5.904   1.461  0.00  0.00    +0.020 C 
ATOM      6  C   LIG    1        2.302   5.362   0.008  0.00  0.00    +0.250 C 
ATOM      7  C   LIG    1        3.598   5.927  -0.611  0.00  0.00    +0.250 C 
ENDROOT
BRANCH   2   8
ATOM      8  C   LIG    1        5.363   9.033   0.885  0.00  0.00    +0.000 C 
ATOM      9  C   LIG    1        4.200  10.025   0.808  0.00  0.00    +0.020 C 
ATOM     10  C   LIG    1        4.485  11.217   1.724  0.00  0.00    +0.010 C 
ATOM     11  C   LIG    1        5.774  11.908   1.276  0.00  0.00    +0.000 C 
ATOM     12  C   LIG    1        6.937  10.916   1.352  0.00  0.00    -0.010 C 
ATOM     13  C   LIG    1        8.227  11.607   0.904  0.00  0.00    +0.010 C 
ATOM     14  C   LIG    1        9.390  10.615   0.981  0.00  0.00    +0.000 C 
ATOM     15  C   LIG    1        9.105   9.423   0.065  0.00  0.00    +0.000 C 
ATOM     16  C   LIG    1        7.815   8.733   0.513  0.00  0.00    +0.010 C 
ATOM     17  C   LIG    1        6.652   9.724   0.436  0.00  0.00    +0.020 C 
ENDBRANCH   2   8
BRANCH   6  18
ATOM     18  N   LIG    1        2.321   3.897   0.000  0.00  0.00    -0.690 N 
ATOM     19  H   LIG    1        3.167   3.423  -0.010  0.00  0.00    +0.420 HD
BRANCH  18  20
ATOM     20  C   LIG    1        1.124   3.187   0.008  0.00  0.00    +0.420 A 
ATOM     21  N   LIG    1       -0.016   3.836   0.022  0.00  0.00    -0.350 NA
ATOM     22  N   LIG    1       -1.230   3.142   0.030  0.00  0.00    -0.250 N 
ATOM     23  C   LIG    1       -2.530   3.549   0.045  0.00  0.00    +0.170 A 
ATOM     24  C   LIG    1       -3.299   2.435   0.046  0.00  0.00    +0.200 A 
ATOM     25  N   LIG    1       -2.501   1.367   0.033  0.00  0.00    -0.460 NA
ATOM     26  C   LIG    1       -1.238   1.772   0.018  0.00  0.00    +0.140 A 
ATOM     27  C   LIG    1       -0.013   1.076   0.008  0.00  0.00    +0.180 A 
ATOM     28  C   LIG    1        1.151   1.779   0.001  0.00  0.00    -0.050 A 
ENDBRANCH  18  20
ENDBRANCH   6  18
TORSDOF 3
