REMARK  Name = ZINCpk000000oOYa.0
REMARK                            x       y       z     vdW  Elec       q    Type
REMARK                         _______ _______ _______ _____ _____    ______ ____
ROOT
ATOM      1  N   LIG    1       -4.779   4.005   0.198  0.00  0.00    -0.460 N 
ATOM      2  C   LIG    1       -5.698   3.356  -0.761  0.00  0.00    +0.210 C 
ATOM      3  C   LIG    1       -6.430   4.526  -1.463  0.00  0.00    +0.040 C 
ATOM      4  C   LIG    1       -5.297   5.580  -1.579  0.00  0.00    +0.040 C 
ATOM      5  C   LIG    1       -4.495   5.372  -0.277  0.00  0.00    +0.260 C 
ENDROOT
BRANCH   1   9
ATOM      6  C   LIG    1       -1.348   1.820   0.519  0.00  0.00    +0.000 A 
ATOM      7  C   LIG    1       -1.731   2.584   1.628  0.00  0.00    +0.100 A 
ATOM      8  C   LIG    1       -2.889   3.334   1.531  0.00  0.00    +0.050 A 
ATOM      9  C   LIG    1       -3.611   3.275   0.338  0.00  0.00    +0.270 A 
ATOM     10  N   LIG    1       -3.175   2.518  -0.663  0.00  0.00    -0.240 NA
ATOM     11  N   LIG    1       -2.098   1.825  -0.577  0.00  0.00    -0.180 NA
BRANCH   6  14
ATOM     12  N   LIG    1        0.301   0.343  -0.527  0.00  0.00    -0.710 N 
ATOM     13  H   LIG    1       -0.239   0.352  -1.333  0.00  0.00    +0.410 HD
ATOM     14  C   LIG    1       -0.116   1.004   0.571  0.00  0.00    +0.580 C 
ATOM     15  O   LIG    1        0.519   0.926   1.605  0.00  0.00    -0.530 OA
BRANCH  12  17
ATOM     16  C   LIG    1        1.806  -1.044  -1.867  0.00  0.00    +0.030 C 
ATOM     17  C   LIG    1        1.570  -0.388  -0.504  0.00  0.00    +0.250 C 
ENDBRANCH  12  17
ENDBRANCH   6  14
ENDBRANCH   1   9
BRANCH   5  18
ATOM     18  C   LIG    1       -3.021   5.524  -0.549  0.00  0.00    -0.030 A 
ATOM     19  C   LIG    1       -2.250   6.359   0.247  0.00  0.00    +0.090 A 
ATOM     20  C   LIG    1       -0.899   6.469  -0.039  0.00  0.00    -0.030 A 
ATOM     21  C   LIG    1       -0.397   5.731  -1.111  0.00  0.00    +0.340 A 
ATOM     22  N   LIG    1       -1.212   4.959  -1.815  0.00  0.00    -0.290 NA
ATOM     23  N   LIG    1       -2.462   4.859  -1.541  0.00  0.00    -0.170 NA
BRANCH  21  24
ATOM     24  N   LIG    1        0.952   5.806  -1.440  0.00  0.00    -0.610 N 
ATOM     25  C   LIG    1        1.442   5.179  -2.670  0.00  0.00    +0.300 C 
ATOM     26  C   LIG    1        1.883   6.511  -0.556  0.00  0.00    +0.290 C 
ENDBRANCH  21  24
ENDBRANCH   5  18
TORSDOF 5
