REMARK  Name = ZINCrg00000fRd8w.0
REMARK                            x       y       z     vdW  Elec       q    Type
REMARK                         _______ _______ _______ _____ _____    ______ ____
ROOT
ATOM      1  N   LIG    1        1.005   3.595   0.125  0.00  0.00    -1.100 NA
ATOM      2  H   LIG    1        0.224   4.009  -0.275  0.00  0.00    +0.430 HD
ENDROOT
BRANCH   1   3
ATOM      3  S   LIG    1        2.078   4.513   0.990  0.00  0.00    +2.700 S 
ATOM      4  O   LIG    1        2.306   3.821   2.210  0.00  0.00    -0.950 OA
ATOM      5  O   LIG    1        1.600   5.850   0.932  0.00  0.00    -0.940 OA
BRANCH   3   6
ATOM      6  C   LIG    1        3.606   4.493   0.113  0.00  0.00    -0.680 A 
ATOM      7  C   LIG    1        3.866   5.457  -0.843  0.00  0.00    +0.140 A 
ATOM      8  C   LIG    1        5.063   5.444  -1.534  0.00  0.00    +0.020 A 
ATOM      9  C   LIG    1        6.007   4.464  -1.269  0.00  0.00    +0.110 A 
ATOM     10  O   LIG    1        7.180   4.462  -1.960  0.00  0.00    -0.300 OA
ATOM     11  C   LIG    1        8.251   3.689  -1.407  0.00  0.00    +0.230 C 
ATOM     12  C   LIG    1        7.694   2.319  -0.997  0.00  0.00    +0.230 C 
ATOM     13  O   LIG    1        6.662   2.527  -0.027  0.00  0.00    -0.300 OA
ATOM     14  C   LIG    1        5.747   3.496  -0.306  0.00  0.00    +0.030 A 
ATOM     15  C   LIG    1        4.545   3.517   0.386  0.00  0.00    +0.130 A 
ENDBRANCH   3   6
ENDBRANCH   1   3
BRANCH   1  16
ATOM     16  C   LIG    1        1.234   2.157  -0.035  0.00  0.00    +0.240 C 
BRANCH  16  17
ATOM     17  C   LIG    1       -0.088   1.434  -0.038  0.00  0.00    +0.530 C 
ATOM     18  N   LIG    1       -0.206   0.241   0.578  0.00  0.00    -0.610 N 
ATOM     19  C   LIG    1        0.968  -0.430   1.159  0.00  0.00    +0.250 C 
ATOM     20  C   LIG    1        1.002  -1.874   0.648  0.00  0.00    +0.220 C 
ATOM     21  O   LIG    1       -0.266  -2.489   0.890  0.00  0.00    -0.370 OA
ATOM     22  C   LIG    1       -1.357  -1.873   0.201  0.00  0.00    +0.130 C 
ATOM     23  C   LIG    1       -2.644  -2.649   0.484  0.00  0.00    +0.070 C 
ATOM     24  C   LIG    1       -1.512  -0.426   0.694  0.00  0.00    +0.260 C 
ATOM     25  O   LIG    1       -1.046   1.924  -0.599  0.00  0.00    -0.520 OA
ENDBRANCH  16  17
BRANCH  16  27
ATOM     26  C   LIG    1        2.185   0.398  -1.534  0.00  0.00    +0.030 C 
ATOM     27  C   LIG    1        1.958   1.901  -1.359  0.00  0.00    -0.020 C 
ATOM     28  C   LIG    1        1.106   2.426  -2.516  0.00  0.00    +0.040 C 
ENDBRANCH  16  27
ENDBRANCH   1  16
TORSDOF 5
