REMARK  Name = ZINCpe00000MJJe0.0
REMARK                            x       y       z     vdW  Elec       q    Type
REMARK                         _______ _______ _______ _____ _____    ______ ____
ROOT
ATOM      1  C   LIG    1       -2.566   1.426   0.021  0.00  0.00    +0.600 C 
ATOM      2  N   LIG    1       -2.838   0.106   0.015  0.00  0.00    -0.710 N 
ATOM      3  H   LIG    1       -2.113  -0.539   0.009  0.00  0.00    +0.400 HD
ATOM      4  O   LIG    1       -3.475   2.233   0.028  0.00  0.00    -0.550 OA
ENDROOT
BRANCH   1   7
ATOM      5  C   LIG    1       -1.618   4.427   0.039  0.00  0.00    +0.170 C 
ATOM      6  C   LIG    1       -0.739   3.203   0.025  0.00  0.00    +0.160 A 
ATOM      7  C   LIG    1       -1.167   1.890   0.017  0.00  0.00    -0.300 A 
ATOM      8  C   LIG    1       -0.013   1.076   0.008  0.00  0.00    +0.270 A 
ATOM      9  N   LIG    1        1.032   1.857   0.002  0.00  0.00    -0.290 NA
ATOM     10  N   LIG    1        0.603   3.188   0.013  0.00  0.00    -0.350 N 
BRANCH  10  11
ATOM     11  C   LIG    1        1.472   4.368   0.010  0.00  0.00    +0.270 C 
ATOM     12  C   LIG    1        2.348   4.357  -1.246  0.00  0.00    +0.010 C 
ATOM     13  C   LIG    1        3.308   5.548  -1.200  0.00  0.00    +0.220 C 
ATOM     14  O   LIG    1        4.094   5.481  -0.008  0.00  0.00    -0.380 OA
ATOM     15  C   LIG    1        3.330   5.537   1.198  0.00  0.00    +0.220 C 
ATOM     16  C   LIG    1        2.372   4.344   1.250  0.00  0.00    +0.010 C 
ENDBRANCH  10  11
ENDBRANCH   1   7
BRANCH   2  17
ATOM     17  C   LIG    1       -4.228  -0.356   0.018  0.00  0.00    +0.250 C 
ATOM     18  C   LIG    1       -4.707  -0.878  -1.346  0.00  0.00    +0.010 C 
ATOM     19  C   LIG    1       -5.438  -1.990  -0.576  0.00  0.00    +0.180 C 
ATOM     20  C   LIG    1       -4.399  -1.793   0.540  0.00  0.00    +0.270 C 
BRANCH  20  21
ATOM     21  N   LIG    1       -4.965  -1.864   1.889  0.00  0.00    -0.360 N 
ATOM     22  C   LIG    1       -6.278  -1.837   2.201  0.00  0.00    +0.220 A 
ATOM     23  C   LIG    1       -6.383  -1.928   3.547  0.00  0.00    -0.120 A 
ATOM     24  C   LIG    1       -5.091  -2.005   4.076  0.00  0.00    +0.230 A 
ATOM     25  N   LIG    1       -4.240  -1.966   3.083  0.00  0.00    -0.290 NA
ENDBRANCH  20  21
BRANCH  19  26
ATOM     26  O   LIG    1       -5.364  -3.269  -1.209  0.00  0.00    -0.550 OA
ATOM     27  H   LIG    1       -5.986  -3.382  -1.942  0.00  0.00    +0.390 HD
ENDBRANCH  19  26
ENDBRANCH   2  17
TORSDOF 5
