REMARK  Name = ZINCvU0000000ALl.0
REMARK                            x       y       z     vdW  Elec       q    Type
REMARK                         _______ _______ _______ _____ _____    ______ ____
ROOT
ATOM      1  C   LIG    1        3.755   1.324   0.077  0.00  0.00    +0.180 A 
ATOM      2  C   LIG    1        2.490   0.869   0.335  0.00  0.00    -0.070 A 
ATOM      3  O   LIG    1        2.494  -0.483   0.363  0.00  0.00    -0.180 OA
ATOM      4  C   LIG    1        3.731  -0.968   0.136  0.00  0.00    +0.090 A 
ATOM      5  C   LIG    1        4.246  -2.257   0.065  0.00  0.00    +0.020 A 
ATOM      6  C   LIG    1        5.588  -2.446  -0.188  0.00  0.00    +0.080 A 
ATOM      7  C   LIG    1        6.434  -1.363  -0.373  0.00  0.00    -0.010 A 
ATOM      8  C   LIG    1        5.949  -0.086  -0.307  0.00  0.00    +0.110 A 
ATOM      9  C   LIG    1        4.594   0.126  -0.052  0.00  0.00    -0.140 A 
ENDROOT
BRANCH   1  11
ATOM     10  C   LIG    1        5.374   3.021   0.417  0.00  0.00    +0.610 C 
ATOM     11  N   LIG    1        4.161   2.647  -0.037  0.00  0.00    -0.630 N 
ATOM     12  H   LIG    1        3.572   3.302  -0.443  0.00  0.00    +0.420 HD
ATOM     13  O   LIG    1        6.152   2.183   0.832  0.00  0.00    -0.480 OA
BRANCH  10  16
ATOM     14  C   LIG    1        8.098   4.239   1.407  0.00  0.00    +0.200 C 
ATOM     15  C   LIG    1        6.940   5.016   0.834  0.00  0.00    +0.120 A 
ATOM     16  C   LIG    1        5.756   4.441   0.409  0.00  0.00    -0.310 A 
ATOM     17  S   LIG    1        4.809   5.836  -0.139  0.00  0.00    +0.440 S 
ATOM     18  N   LIG    1        5.912   6.898   0.190  0.00  0.00    -0.240 NA
ATOM     19  N   LIG    1        6.936   6.319   0.676  0.00  0.00    -0.250 NA
ENDBRANCH  10  16
ENDBRANCH   1  11
BRANCH   2  20
ATOM     20  C   LIG    1        1.316   1.713   0.542  0.00  0.00    +0.610 C 
ATOM     21  N   LIG    1        0.137   1.157   0.884  0.00  0.00    -0.660 N 
ATOM     22  H   LIG    1        0.049   0.191   0.918  0.00  0.00    +0.420 HD
ATOM     23  O   LIG    1        1.403   2.920   0.405  0.00  0.00    -0.500 OA
BRANCH  21  24
ATOM     24  C   LIG    1       -0.960   1.970   1.183  0.00  0.00    +0.150 A 
ATOM     25  C   LIG    1       -0.760   3.247   1.691  0.00  0.00    +0.060 A 
ATOM     26  C   LIG    1       -1.846   4.051   1.981  0.00  0.00    +0.040 A 
ATOM     27  C   LIG    1       -3.130   3.581   1.776  0.00  0.00    +0.060 A 
ATOM     28  C   LIG    1       -3.332   2.307   1.274  0.00  0.00    -0.160 A 
ATOM     29  C   LIG    1       -2.251   1.501   0.978  0.00  0.00    +0.040 A 
BRANCH  28  30
ATOM     30  C   LIG    1       -4.733   1.799   1.052  0.00  0.00    +0.510 C 
ATOM     31  F   LIG    1       -4.737   0.890  -0.011  0.00  0.00    -0.180 F 
ATOM     32  F   LIG    1       -5.577   2.874   0.750  0.00  0.00    -0.170 F 
ATOM     33  F   LIG    1       -5.187   1.162   2.212  0.00  0.00    -0.170 F 
ENDBRANCH  28  30
ENDBRANCH  21  24
ENDBRANCH   2  20
TORSDOF 5
