REMARK  Name = ZINCvU0000000F0n.0
REMARK                            x       y       z     vdW  Elec       q    Type
REMARK                         _______ _______ _______ _____ _____    ______ ____
ROOT
ATOM      1  C   LIG    1       -3.389  -1.493   0.359  0.00  0.00    +0.560 C 
ATOM      2  N   LIG    1       -4.060  -0.327   0.444  0.00  0.00    -0.630 N 
ATOM      3  H   LIG    1       -5.030  -0.326   0.469  0.00  0.00    +0.420 HD
ATOM      4  O   LIG    1       -2.174  -1.494   0.328  0.00  0.00    -0.450 OA
ENDROOT
BRANCH   2   5
ATOM      5  C   LIG    1       -3.365   0.870   0.496  0.00  0.00    +0.340 A 
ATOM      6  N   LIG    1       -2.082   0.976   0.469  0.00  0.00    -0.460 NA
ATOM      7  C   LIG    1       -1.550   2.214   0.527  0.00  0.00    +0.110 A 
ATOM      8  C   LIG    1       -0.190   2.591   0.514  0.00  0.00    +0.110 A 
ATOM      9  C   LIG    1        0.167   3.903   0.580  0.00  0.00    +0.030 A 
ATOM     10  C   LIG    1       -0.802   4.900   0.663  0.00  0.00    -0.090 A 
ATOM     11  C   LIG    1       -2.143   4.557   0.678  0.00  0.00    +0.110 A 
ATOM     12  C   LIG    1       -2.519   3.218   0.611  0.00  0.00    -0.170 A 
ATOM     13  S   LIG    1       -4.109   2.458   0.608  0.00  0.00    +0.090 S 
BRANCH  10  14
ATOM     14  S   LIG    1       -0.323   6.593   0.748  0.00  0.00    -0.080 S 
BRANCH  14  15
ATOM     15  C   LIG    1        1.489   6.508   0.696  0.00  0.00    +0.430 C 
ATOM     16  F   LIG    1        1.893   5.894  -0.494  0.00  0.00    -0.180 F 
ATOM     17  F   LIG    1        1.952   5.762   1.786  0.00  0.00    -0.180 F 
ENDBRANCH  14  15
ENDBRANCH  10  14
ENDBRANCH   2   5
BRANCH   1  20
ATOM     18  C   LIG    1       -4.137  -5.167   0.164  0.00  0.00    -0.680 A 
ATOM     19  C   LIG    1       -3.439  -3.979   0.215  0.00  0.00    +0.220 A 
ATOM     20  C   LIG    1       -4.131  -2.770   0.303  0.00  0.00    -0.150 A 
ATOM     21  C   LIG    1       -5.527  -2.772   0.344  0.00  0.00    +0.130 A 
ATOM     22  C   LIG    1       -6.214  -3.966   0.287  0.00  0.00    +0.030 A 
ATOM     23  C   LIG    1       -5.522  -5.163   0.200  0.00  0.00    +0.080 A 
ATOM     24 CL   LIG    1       -6.393  -6.663   0.136  0.00  0.00    -0.020 Cl
BRANCH  18  25
ATOM     25  S   LIG    1       -3.265  -6.695   0.053  0.00  0.00    +2.680 S 
ATOM     26  O   LIG    1       -1.884  -6.366   0.001  0.00  0.00    -0.940 OA
ATOM     27  O   LIG    1       -3.920  -7.459  -0.950  0.00  0.00    -0.930 OA
BRANCH  25  28
ATOM     28  N   LIG    1       -3.501  -7.498   1.482  0.00  0.00    -0.990 NA
BRANCH  28  30
ATOM     29  C   LIG    1       -3.914  -9.886   1.813  0.00  0.00    +0.020 C 
ATOM     30  C   LIG    1       -4.552  -8.514   1.586  0.00  0.00    +0.280 C 
ENDBRANCH  28  30
BRANCH  28  31
ATOM     31  C   LIG    1       -2.659  -7.194   2.641  0.00  0.00    +0.290 C 
ATOM     32  C   LIG    1       -3.363  -6.164   3.526  0.00  0.00    +0.000 C 
ENDBRANCH  28  31
ENDBRANCH  25  28
ENDBRANCH  18  25
ENDBRANCH   1  20
TORSDOF 8
