REMARK  Name = ZINCqH0000002RuB.0
REMARK                            x       y       z     vdW  Elec       q    Type
REMARK                         _______ _______ _______ _____ _____    ______ ____
ROOT
ATOM      1  C   LIG    1       -2.168   4.848   0.037  0.00  0.00    +0.530 C 
ATOM      2  N   LIG    1       -1.978   6.182   0.045  0.00  0.00    -0.660 N 
ATOM      3  H   LIG    1       -1.080   6.544   0.117  0.00  0.00    +0.420 HD
ATOM      4  O   LIG    1       -3.294   4.396   0.031  0.00  0.00    -0.500 OA
ENDROOT
BRANCH   2   5
ATOM      5  C   LIG    1       -3.076   7.048  -0.051  0.00  0.00    +0.120 A 
ATOM      6  C   LIG    1       -2.955   8.249  -0.737  0.00  0.00    +0.040 A 
ATOM      7  C   LIG    1       -4.040   9.098  -0.836  0.00  0.00    -0.030 A 
ATOM      8  C   LIG    1       -5.245   8.757  -0.240  0.00  0.00    +0.090 A 
ATOM      9  C   LIG    1       -5.364   7.560   0.450  0.00  0.00    +0.050 A 
ATOM     10  C   LIG    1       -4.283   6.707   0.545  0.00  0.00    +0.070 A 
BRANCH   8  11
ATOM     11  O   LIG    1       -6.311   9.597  -0.333  0.00  0.00    -0.310 OA
BRANCH  11  12
ATOM     12  C   LIG    1       -6.117  10.813  -1.059  0.00  0.00    +0.600 C 
ATOM     13  F   LIG    1       -5.101  11.560  -0.454  0.00  0.00    -0.160 F 
ATOM     14  F   LIG    1       -7.305  11.552  -1.055  0.00  0.00    -0.130 F 
ATOM     15  F   LIG    1       -5.756  10.517  -2.377  0.00  0.00    -0.160 F 
ENDBRANCH  11  12
ENDBRANCH   8  11
ENDBRANCH   2   5
BRANCH   1  16
ATOM     16  C   LIG    1       -0.983   3.918   0.035  0.00  0.00    +0.130 C 
BRANCH  16  17
ATOM     17  S   LIG    1       -1.562   2.203   0.023  0.00  0.00    +0.090 S 
BRANCH  17  23
ATOM     18  C   LIG    1        2.292   1.456   0.018  0.00  0.00    +0.200 A 
ATOM     19  C   LIG    1        2.372   0.093   0.011  0.00  0.00    -0.130 A 
ATOM     20  C   LIG    1        1.184  -0.658   0.009  0.00  0.00    +0.530 A 
ATOM     21  N   LIG    1        0.003  -0.004   0.015  0.00  0.00    -0.620 N 
ATOM     22  H   LIG    1       -0.830  -0.502   0.014  0.00  0.00    +0.420 HD
ATOM     23  C   LIG    1       -0.016   1.358   0.023  0.00  0.00    +0.350 A 
ATOM     24  O   LIG    1        1.219  -1.877   0.002  0.00  0.00    -0.530 OA
ATOM     25  N   LIG    1        1.104   2.055   0.024  0.00  0.00    -0.540 NA
BRANCH  18  26
ATOM     26  C   LIG    1        3.552   2.283   0.020  0.00  0.00    +0.110 C 
BRANCH  26  28
ATOM     27  C   LIG    1        5.184   3.517  -1.414  0.00  0.00    +0.030 C 
ATOM     28  C   LIG    1        3.905   2.677  -1.416  0.00  0.00    +0.020 C 
ENDBRANCH  26  28
ENDBRANCH  18  26
ENDBRANCH  17  23
ENDBRANCH  16  17
ENDBRANCH   1  16
TORSDOF 8
