REMARK  Name = ZINCrH000004vCGA.0
REMARK                            x       y       z     vdW  Elec       q    Type
REMARK                         _______ _______ _______ _____ _____    ______ ____
ROOT
ATOM      1  O   LIG    1       -7.293  -7.324  -2.896  0.00  0.00    -0.530 OA
ATOM      2  C   LIG    1       -6.216  -6.780  -2.752  0.00  0.00    +0.560 C 
ATOM      3  N   LIG    1       -5.943  -5.639  -3.414  0.00  0.00    -0.610 N 
ATOM      4  C   LIG    1       -6.976  -4.980  -4.226  0.00  0.00    +0.290 C 
ATOM      5  C   LIG    1       -6.439  -4.799  -5.651  0.00  0.00    +0.270 C 
ATOM      6  N   LIG    1       -5.103  -4.190  -5.575  0.00  0.00    -0.610 N 
ATOM      7  C   LIG    1       -4.068  -4.852  -4.768  0.00  0.00    +0.290 C 
ATOM      8  C   LIG    1       -4.831  -3.049  -6.238  0.00  0.00    +0.560 C 
ATOM      9  O   LIG    1       -3.706  -2.588  -6.218  0.00  0.00    -0.530 OA
ATOM     10  C   LIG    1       -4.608  -5.030  -3.338  0.00  0.00    +0.280 C 
ENDROOT
BRANCH   8  11
ATOM     11  C   LIG    1       -5.900  -2.357  -6.989  0.00  0.00    -0.120 A 
ATOM     12  C   LIG    1       -5.989  -0.964  -6.958  0.00  0.00    +0.080 A 
ATOM     13  C   LIG    1       -6.990  -0.325  -7.661  0.00  0.00    +0.030 A 
ATOM     14  C   LIG    1       -7.903  -1.061  -8.395  0.00  0.00    -0.050 A 
ATOM     15  C   LIG    1       -7.824  -2.442  -8.425  0.00  0.00    +0.060 A 
ATOM     16  C   LIG    1       -6.825  -3.094  -7.731  0.00  0.00    +0.040 A 
BRANCH  14  17
ATOM     17  C   LIG    1       -8.993  -0.356  -9.160  0.00  0.00    +0.150 C 
ATOM     18  S   LIG    1      -10.632  -0.896  -8.570  0.00  0.00    -0.230 S 
ATOM     19  C   LIG    1      -11.359  -1.622 -10.074  0.00  0.00    +0.130 C 
ATOM     20  C   LIG    1      -10.735  -0.882 -11.279  0.00  0.00    +0.140 C 
ATOM     21  S   LIG    1       -8.941  -0.832 -10.924  0.00  0.00    -0.230 S 
ENDBRANCH  14  17
ENDBRANCH   8  11
BRANCH   2  22
ATOM     22  C   LIG    1       -5.204  -7.370  -1.849  0.00  0.00    -0.130 A 
ATOM     23  C   LIG    1       -4.349  -6.544  -1.118  0.00  0.00    +0.040 A 
ATOM     24  C   LIG    1       -3.411  -7.101  -0.274  0.00  0.00    +0.000 A 
ATOM     25  C   LIG    1       -3.309  -8.476  -0.159  0.00  0.00    +0.040 A 
ATOM     26  C   LIG    1       -4.149  -9.301  -0.886  0.00  0.00    +0.010 A 
ATOM     27  C   LIG    1       -5.096  -8.757  -1.729  0.00  0.00    +0.070 A 
ENDBRANCH   2  22
TORSDOF 3
