REMARK  Name = ZINCpe000000W0dE.0
REMARK                            x       y       z     vdW  Elec       q    Type
REMARK                         _______ _______ _______ _____ _____    ______ ____
ROOT
ATOM      1  C   LIG    1        3.570   7.127   1.016  0.00  0.00    +0.500 C 
ATOM      2  N   LIG    1        4.520   8.050   1.263  0.00  0.00    -0.720 N 
ATOM      3  H   LIG    1        5.305   7.812   1.782  0.00  0.00    +0.400 HD
ATOM      4  O   LIG    1        2.590   7.425   0.367  0.00  0.00    -0.520 OA
ENDROOT
BRANCH   2   5
ATOM      5  C   LIG    1        4.369   9.414   0.748  0.00  0.00    +0.300 C 
ATOM      6  C   LIG    1        4.888   9.477  -0.689  0.00  0.00    +0.040 C 
BRANCH   5   7
ATOM      7  C   LIG    1        5.156  10.367   1.610  0.00  0.00    -0.130 A 
ATOM      8  C   LIG    1        6.238   9.908   2.336  0.00  0.00    +0.050 A 
ATOM      9  C   LIG    1        6.964  10.783   3.123  0.00  0.00    -0.020 A 
ATOM     10  C   LIG    1        6.604  12.116   3.193  0.00  0.00    +0.050 A 
ATOM     11  C   LIG    1        5.519  12.578   2.473  0.00  0.00    -0.070 A 
ATOM     12  C   LIG    1        4.793  11.704   1.678  0.00  0.00    +0.140 A 
BRANCH  12  13
ATOM     13  O   LIG    1        3.725  12.156   0.969  0.00  0.00    -0.310 OA
ATOM     14  C   LIG    1        3.409  13.544   1.087  0.00  0.00    +0.250 C 
ENDBRANCH  12  13
ENDBRANCH   5   7
ENDBRANCH   2   5
BRANCH   1  15
ATOM     15  C   LIG    1        3.726   5.725   1.545  0.00  0.00    +0.360 C 
BRANCH  15  20
ATOM     16  C   LIG    1        1.139   3.547   0.010  0.00  0.00    +0.130 C 
ATOM     17  N   LIG    1        0.540   4.004   1.276  0.00  0.00    -0.710 N 
ATOM     18  H   LIG    1       -0.338   3.776   1.618  0.00  0.00    +0.440 HD
ATOM     19  C   LIG    1        1.451   4.800   1.867  0.00  0.00    +0.710 C 
ATOM     20  N   LIG    1        2.570   4.920   1.144  0.00  0.00    -0.560 N 
ATOM     21  O   LIG    1        1.275   5.348   2.937  0.00  0.00    -0.540 OA
ATOM     22  C   LIG    1        0.304   4.016  -1.183  0.00  0.00    +0.100 C 
ATOM     23  C   LIG    1        2.502   4.209   0.001  0.00  0.00    +0.540 C 
ATOM     24  O   LIG    1        3.354   4.119  -0.857  0.00  0.00    -0.450 OA
BRANCH  16  25
ATOM     25  C   LIG    1        1.280   2.024   0.001  0.00  0.00    +0.210 C 
BRANCH  25  27
ATOM     26  C   LIG    1        0.002  -0.004   0.002  0.00  0.00    +0.210 C 
ATOM     27  O   LIG    1       -0.017   1.425   0.010  0.00  0.00    -0.380 OA
ENDBRANCH  25  27
ENDBRANCH  16  25
ENDBRANCH  15  20
ENDBRANCH   1  15
TORSDOF 7
