REMARK  Name = ZINCqH00000065X2.0
REMARK                            x       y       z     vdW  Elec       q    Type
REMARK                         _______ _______ _______ _____ _____    ______ ____
ROOT
ATOM      1  C   LIG    1       -4.394  -4.214  -1.422  0.00  0.00    +0.080 C 
ATOM      2  C   LIG    1       -2.995  -4.825  -1.531  0.00  0.00    +0.070 C 
ATOM      3  C   LIG    1       -2.146  -4.362  -0.343  0.00  0.00    +0.340 C 
ATOM      4  N   LIG    1       -2.161  -2.894  -0.295  0.00  0.00    -0.620 N 
ATOM      5  C   LIG    1       -3.456  -2.201  -0.273  0.00  0.00    +0.300 C 
ATOM      6  C   LIG    1       -1.008  -2.196  -0.266  0.00  0.00    +0.720 C 
ATOM      7  N   LIG    1       -1.034  -0.858  -0.110  0.00  0.00    -0.650 N 
ATOM      8  H   LIG    1       -1.876  -0.406   0.061  0.00  0.00    +0.410 HD
ATOM      9  O   LIG    1        0.056  -2.774  -0.380  0.00  0.00    -0.560 OA
ATOM     10  C   LIG    1       -4.291  -2.688  -1.467  0.00  0.00    +0.030 C 
ENDROOT
BRANCH   7  11
ATOM     11  C   LIG    1        0.156  -0.117  -0.194  0.00  0.00    +0.300 A 
ATOM     12  C   LIG    1        1.358  -0.707  -0.317  0.00  0.00    -0.040 A 
ATOM     13  S   LIG    1        2.585   0.556  -0.390  0.00  0.00    +0.130 S 
ATOM     14  C   LIG    1        1.328   1.782  -0.243  0.00  0.00    +0.120 A 
ATOM     15  N   LIG    1        0.167   1.196  -0.157  0.00  0.00    -0.450 NA
BRANCH  14  16
ATOM     16  C   LIG    1        1.554   3.242  -0.222  0.00  0.00    +0.190 A 
ATOM     17  C   LIG    1        2.853   3.743  -0.317  0.00  0.00    -0.010 A 
ATOM     18  C   LIG    1        3.048   5.113  -0.300  0.00  0.00    +0.070 A 
ATOM     19  C   LIG    1        1.939   5.939  -0.179  0.00  0.00    -0.020 A 
ATOM     20  C   LIG    1        0.679   5.375  -0.084  0.00  0.00    +0.270 A 
ATOM     21  N   LIG    1        0.520   4.068  -0.107  0.00  0.00    -0.450 NA
ENDBRANCH  14  16
ENDBRANCH   7  11
BRANCH   1  22
ATOM     22  C   LIG    1       -5.256  -4.702  -2.588  0.00  0.00    +0.430 C 
ATOM     23  F   LIG    1       -4.603  -4.432  -3.795  0.00  0.00    -0.180 F 
ATOM     24  F   LIG    1       -6.488  -4.039  -2.566  0.00  0.00    -0.180 F 
ATOM     25  F   LIG    1       -5.466  -6.080  -2.469  0.00  0.00    -0.170 F 
ENDBRANCH   1  22
BRANCH   1  27
ATOM     26  C   LIG    1       -6.259  -4.003   0.069  0.00  0.00    +0.220 C 
ATOM     27  O   LIG    1       -4.993  -4.614  -0.187  0.00  0.00    -0.350 OA
ENDBRANCH   1  27
TORSDOF 4
