REMARK  Name = ZINC9l0000002r5c.0
REMARK                            x       y       z     vdW  Elec       q    Type
REMARK                         _______ _______ _______ _____ _____    ______ ____
ROOT
ATOM      1  C   LIG    1       -0.013   1.086   0.008  0.00  0.00    +0.020 C 
ATOM      2  C   LIG    1       -0.729   1.579   1.267  0.00  0.00    +0.030 C 
ENDROOT
BRANCH   2   3
ATOM      3  C   LIG    1       -0.750   3.109   1.275  0.00  0.00    -0.040 C 
ATOM      4  C   LIG    1       -2.099   3.796   1.495  0.00  0.00    -0.010 C 
ATOM      5  C   LIG    1       -1.449   3.812   0.110  0.00  0.00    -0.010 C 
ENDBRANCH   2   3
BRANCH   2   6
ATOM      6  C   LIG    1        0.011   1.072   2.506  0.00  0.00    -0.080 C 
BRANCH   6   7
ATOM      7  C   LIG    1       -0.074  -0.431   2.563  0.00  0.00    +0.490 C 
ATOM      8  O   LIG    1        0.454  -1.038   3.479  0.00  0.00    -0.710 OA
ATOM      9  O   LIG    1       -0.671  -1.041   1.692  0.00  0.00    -0.690 OA
ENDBRANCH   6   7
ENDBRANCH   2   6
TORSDOF 3
