REMARK  Name = ZINCrD000000AnbR.0
REMARK                            x       y       z     vdW  Elec       q    Type
REMARK                         _______ _______ _______ _____ _____    ______ ____
ROOT
ATOM      1  C   LIG    1       -1.293  -0.775   0.010  0.00  0.00    +0.370 C 
ENDROOT
BRANCH   1   2
ATOM      2  N   LIG    1       -1.005  -2.212  -0.000  0.00  0.00    -0.900 N 
ATOM      3  C   LIG    1       -0.733  -3.029   1.108  0.00  0.00    +0.150 A 
ATOM      4  C   LIG    1       -0.675  -2.661   2.451  0.00  0.00    +0.020 A 
ATOM      5  C   LIG    1       -0.391  -3.600   3.434  0.00  0.00    +0.040 A 
ATOM      6  C   LIG    1       -0.156  -4.912   3.147  0.00  0.00    +0.020 A 
ATOM      7  C   LIG    1       -0.203  -5.331   1.806  0.00  0.00    -0.030 A 
ATOM      8  C   LIG    1        0.024  -6.658   1.405  0.00  0.00    +0.090 A 
ATOM      9  C   LIG    1       -0.039  -6.985   0.082  0.00  0.00    +0.000 A 
ATOM     10  C   LIG    1       -0.328  -6.023  -0.893  0.00  0.00    +0.190 A 
ATOM     11  C   LIG    1       -0.549  -4.745  -0.531  0.00  0.00    -0.640 A 
ATOM     12  C   LIG    1       -0.493  -4.370   0.815  0.00  0.00    -0.070 A 
ATOM     13  S   LIG    1       -0.942  -3.220  -1.337  0.00  0.00    +2.670 S 
ATOM     14  O   LIG    1        0.190  -2.840  -2.108  0.00  0.00    -0.920 OA
ATOM     15  O   LIG    1       -2.260  -3.332  -1.855  0.00  0.00    -0.930 OA
ENDBRANCH   1   2
BRANCH   1  17
ATOM     16  O   LIG    1        1.060  -0.596  -0.011  0.00  0.00    -0.500 OA
ATOM     17  C   LIG    1        0.002  -0.004   0.002  0.00  0.00    +0.480 C 
ATOM     18  N   LIG    1       -0.016   1.344   0.009  0.00  0.00    -0.730 N 
ATOM     19  H   LIG    1       -0.863   1.817   0.016  0.00  0.00    +0.400 HD
BRANCH  18  20
ATOM     20  C   LIG    1        1.242   2.093   0.001  0.00  0.00    +0.260 C 
BRANCH  20  21
ATOM     21  C   LIG    1        0.943   3.594   0.012  0.00  0.00    +0.070 C 
BRANCH  21  22
ATOM     22  C   LIG    1        2.237   4.365   0.004  0.00  0.00    -0.080 A 
ATOM     23  C   LIG    1        2.839   4.717   1.198  0.00  0.00    +0.030 A 
ATOM     24  C   LIG    1        4.029   5.420   1.191  0.00  0.00    +0.020 A 
ATOM     25  C   LIG    1        4.612   5.781  -0.011  0.00  0.00    -0.040 A 
ATOM     26  C   LIG    1        4.006   5.433  -1.205  0.00  0.00    +0.030 A 
ATOM     27 CL   LIG    1        6.103   6.671  -0.020  0.00  0.00    -0.070 Cl
ATOM     28  C   LIG    1        2.819   4.725  -1.197  0.00  0.00    +0.030 A 
ENDBRANCH  21  22
ENDBRANCH  20  21
ENDBRANCH  18  20
ENDBRANCH   1  17
TORSDOF 5
