REMARK  Name = ZINCc70000001nXx.0
REMARK                            x       y       z     vdW  Elec       q    Type
REMARK                         _______ _______ _______ _____ _____    ______ ____
ROOT
ATOM      1  O   LIG    1        3.966   2.365   0.324  0.00  0.00    -0.510 OA
ATOM      2  C   LIG    1        3.620   1.294   0.774  0.00  0.00    +0.510 C 
ATOM      3  N   LIG    1        2.336   0.899   0.663  0.00  0.00    -0.730 N 
ATOM      4  H   LIG    1        2.060   0.042   1.023  0.00  0.00    +0.400 HD
ENDROOT
BRANCH   2   5
ATOM      5  C   LIG    1        4.626   0.404   1.457  0.00  0.00    +0.180 C 
ATOM      6  C   LIG    1        4.390   0.467   2.983  0.00  0.00    +0.150 C 
ATOM      7  S   LIG    1        6.114   0.362   3.623  0.00  0.00    -0.330 S 
ATOM      8  C   LIG    1        6.838   1.253   2.184  0.00  0.00    +0.350 C 
ATOM      9  N   LIG    1        5.967   0.825   1.067  0.00  0.00    -0.680 NA
ATOM     10  H   LIG    1        6.419   0.118   0.506  0.00  0.00    +0.370 HD
ENDBRANCH   2   5
BRANCH   3  11
ATOM     11  C   LIG    1        1.359   1.764  -0.001  0.00  0.00    +0.290 C 
BRANCH  11  12
ATOM     12  C   LIG    1       -0.013   1.086   0.008  0.00  0.00    -0.060 C 
ATOM     13  C   LIG    1       -1.136   1.773   0.788  0.00  0.00    +0.020 C 
ATOM     14  C   LIG    1       -1.150   1.781  -0.743  0.00  0.00    +0.030 C 
ENDBRANCH  11  12
ENDBRANCH   3  11
TORSDOF 3
