REMARK  Name = ZINCrH000004nQgn.0
REMARK                            x       y       z     vdW  Elec       q    Type
REMARK                         _______ _______ _______ _____ _____    ______ ____
ROOT
ATOM      1  C   LIG    1       -2.489   1.465   0.020  0.00  0.00    +0.270 C 
ENDROOT
BRANCH   1   2
ATOM      2  N   LIG    1       -1.117   1.980   0.018  0.00  0.00    -0.560 N 
ATOM      3  C   LIG    1       -0.014   1.210   0.009  0.00  0.00    +0.580 C 
ATOM      4  C   LIG    1        1.174   2.089   0.002  0.00  0.00    -0.140 A 
ATOM      5  C   LIG    1        2.541   1.868  -0.012  0.00  0.00    +0.100 A 
ATOM      6  C   LIG    1        3.413   2.946  -0.015  0.00  0.00    +0.040 A 
ATOM      7  C   LIG    1        2.926   4.240  -0.004  0.00  0.00    +0.050 A 
ATOM      8  C   LIG    1        1.560   4.477   0.011  0.00  0.00    +0.100 A 
ATOM      9  C   LIG    1        0.678   3.409   0.013  0.00  0.00    -0.130 A 
ATOM     10  O   LIG    1        0.002  -0.004   0.002  0.00  0.00    -0.460 OA
ATOM     11  C   LIG    1       -0.795   3.287   0.026  0.00  0.00    +0.580 C 
ATOM     12  O   LIG    1       -1.583   4.211   0.038  0.00  0.00    -0.440 OA
ENDBRANCH   1   2
BRANCH   1  13
ATOM     13  C   LIG    1       -3.214   1.960  -1.205  0.00  0.00    +0.510 C 
ATOM     14  N   LIG    1       -4.498   1.610  -1.415  0.00  0.00    -0.720 N 
ATOM     15  H   LIG    1       -4.956   1.039  -0.778  0.00  0.00    +0.400 HD
ATOM     16  O   LIG    1       -2.641   2.673  -2.001  0.00  0.00    -0.510 OA
BRANCH  14  17
ATOM     17  C   LIG    1       -5.203   2.091  -2.606  0.00  0.00    +0.230 C 
ATOM     18  C   LIG    1       -4.910   1.159  -3.783  0.00  0.00    +0.030 C 
BRANCH  17  19
ATOM     19  C   LIG    1       -6.709   2.111  -2.334  0.00  0.00    +0.020 C 
BRANCH  19  20
ATOM     20  C   LIG    1       -7.016   3.135  -1.240  0.00  0.00    +0.010 C 
BRANCH  20  21
ATOM     21  C   LIG    1       -8.521   3.155  -0.968  0.00  0.00    +0.010 C 
BRANCH  21  22
ATOM     22  C   LIG    1       -8.828   4.180   0.126  0.00  0.00    -0.030 C 
ATOM     23  C   LIG    1      -10.314   4.112   0.486  0.00  0.00    +0.000 C 
ATOM     24  C   LIG    1       -8.490   5.584  -0.380  0.00  0.00    +0.010 C 
ENDBRANCH  21  22
ENDBRANCH  20  21
ENDBRANCH  19  20
ENDBRANCH  17  19
ENDBRANCH  14  17
ENDBRANCH   1  13
BRANCH   1  25
ATOM     25  C   LIG    1       -3.215   1.953   1.275  0.00  0.00    +0.080 C 
BRANCH  25  26
ATOM     26  C   LIG    1       -2.553   1.349   2.515  0.00  0.00    +0.080 C 
BRANCH  26  28
ATOM     27  C   LIG    1       -2.500   1.119   5.345  0.00  0.00    +0.140 C 
ATOM     28  S   LIG    1       -3.414   1.928   4.003  0.00  0.00    -0.250 S 
ENDBRANCH  26  28
ENDBRANCH  25  26
ENDBRANCH   1  25
TORSDOF 10
