REMARK  Name = ZINCrH000004mRzP.0
REMARK                            x       y       z     vdW  Elec       q    Type
REMARK                         _______ _______ _______ _____ _____    ______ ____
ROOT
ATOM      1  N   LIG    1        0.378  -2.575  -0.294  0.00  0.00    -0.660 N 
ATOM      2  H   LIG    1        0.112  -2.018   0.454  0.00  0.00    +0.410 HD
ATOM      3  C   LIG    1        0.194  -3.909  -0.240  0.00  0.00    +0.600 C 
ATOM      4  O   LIG    1        0.602  -4.617  -1.142  0.00  0.00    -0.500 OA
ENDROOT
BRANCH   1  10
ATOM      5  C   LIG    1        0.535  -0.733  -1.856  0.00  0.00    +0.090 A 
ATOM      6  C   LIG    1        1.100  -0.162  -2.984  0.00  0.00    -0.030 A 
ATOM      7  C   LIG    1        2.086  -0.834  -3.682  0.00  0.00    +0.050 A 
ATOM      8  C   LIG    1        2.503  -2.090  -3.262  0.00  0.00    +0.120 A 
ATOM      9  C   LIG    1        1.936  -2.669  -2.135  0.00  0.00    +0.040 A 
ATOM     10  C   LIG    1        0.952  -1.993  -1.431  0.00  0.00    +0.130 A 
BRANCH   8  11
ATOM     11  N   LIG    1        3.498  -2.772  -3.975  0.00  0.00    -0.670 N 
ATOM     12  H   LIG    1        3.460  -3.738  -4.056  0.00  0.00    +0.410 HD
ATOM     13  C   LIG    1        4.506  -2.086  -4.548  0.00  0.00    +0.510 C 
ATOM     14  O   LIG    1        4.510  -0.873  -4.518  0.00  0.00    -0.530 OA
ATOM     15  C   LIG    1        5.630  -2.825  -5.227  0.00  0.00    +0.110 C 
ENDBRANCH   8  11
BRANCH   5  17
ATOM     16  C   LIG    1       -0.809   1.220  -1.659  0.00  0.00    +0.250 C 
ATOM     17  O   LIG    1       -0.430  -0.067  -1.166  0.00  0.00    -0.320 OA
ENDBRANCH   5  17
ENDBRANCH   1  10
BRANCH   3  18
ATOM     18  C   LIG    1       -0.498  -4.508   0.906  0.00  0.00    -0.310 A 
ATOM     19  C   LIG    1       -0.756  -5.841   1.087  0.00  0.00    +0.170 A 
ATOM     20  N   LIG    1       -1.385  -6.115   2.198  0.00  0.00    -0.440 NA
ATOM     21  C   LIG    1       -1.691  -5.114   2.974  0.00  0.00    +0.100 A 
ATOM     22  C   LIG    1       -0.347  -6.898   0.093  0.00  0.00    +0.180 C 
ATOM     23  S   LIG    1       -1.151  -3.642   2.294  0.00  0.00    +0.200 S 
BRANCH  21  24
ATOM     24  C   LIG    1       -2.405  -5.235   4.263  0.00  0.00    +0.180 A 
ATOM     25  C   LIG    1       -2.675  -4.092   5.015  0.00  0.00    -0.010 A 
ATOM     26  C   LIG    1       -3.350  -4.221   6.217  0.00  0.00    +0.080 A 
ATOM     27  C   LIG    1       -3.723  -5.490   6.634  0.00  0.00    -0.010 A 
ATOM     28  C   LIG    1       -3.418  -6.583   5.840  0.00  0.00    +0.280 A 
ATOM     29  N   LIG    1       -2.781  -6.433   4.699  0.00  0.00    -0.440 NA
ENDBRANCH  21  24
ENDBRANCH   3  18
TORSDOF 5
