REMARK  Name = ZINCqH0000001Khj.1
REMARK                            x       y       z     vdW  Elec       q    Type
REMARK                         _______ _______ _______ _____ _____    ______ ____
ROOT
ATOM      1  C   LIG    1        1.735   4.600   2.172  0.00  0.00    +0.580 C 
ATOM      2  N   LIG    1        2.150   3.955   1.063  0.00  0.00    -0.590 N 
ATOM      3  C   LIG    1        3.582   3.739   0.808  0.00  0.00    +0.280 C 
ATOM      4  C   LIG    1        3.990   4.506  -0.456  0.00  0.00    +0.130 C 
ATOM      5  C   LIG    1        2.955   4.267  -1.526  0.00  0.00    +0.020 A 
ATOM      6  C   LIG    1        1.710   3.801  -1.292  0.00  0.00    -0.030 A 
ATOM      7  N   LIG    1        1.076   3.724  -2.493  0.00  0.00    -0.550 N 
ATOM      8  H   LIG    1        0.166   3.426  -2.647  0.00  0.00    +0.420 HD
ATOM      9  C   LIG    1        1.956   4.143  -3.432  0.00  0.00    +0.400 A 
ATOM     10  N   LIG    1        3.077   4.465  -2.843  0.00  0.00    -0.480 NA
ATOM     11  C   LIG    1        1.180   3.448   0.075  0.00  0.00    +0.380 C 
ATOM     12  O   LIG    1        0.548   4.681   2.419  0.00  0.00    -0.520 OA
ENDROOT
BRANCH   1  16
ATOM     13  C   LIG    1        4.504   6.298   4.838  0.00  0.00    +0.160 A 
ATOM     14  C   LIG    1        4.708   6.479   3.482  0.00  0.00    -0.020 A 
ATOM     15  C   LIG    1        3.812   5.930   2.583  0.00  0.00    +0.100 A 
ATOM     16  C   LIG    1        2.724   5.207   3.087  0.00  0.00    -0.190 A 
ATOM     17  C   LIG    1        2.587   5.074   4.470  0.00  0.00    +0.330 A 
ATOM     18  N   LIG    1        3.470   5.611   5.285  0.00  0.00    -0.480 NA
BRANCH  13  20
ATOM     19  C   LIG    1        6.657   5.938   6.015  0.00  0.00    +0.050 C 
ATOM     20  C   LIG    1        5.479   6.894   5.821  0.00  0.00    +0.040 C 
ATOM     21  C   LIG    1        5.990   8.232   5.283  0.00  0.00    +0.040 C 
ENDBRANCH  13  20
ENDBRANCH   1  16
BRANCH  11  22
ATOM     22  C   LIG    1        1.050   1.953   0.204  0.00  0.00    -0.100 A 
ATOM     23  C   LIG    1       -0.154   1.395   0.593  0.00  0.00    +0.030 A 
ATOM     24  C   LIG    1       -0.274   0.023   0.711  0.00  0.00    +0.010 A 
ATOM     25  C   LIG    1        0.810  -0.792   0.441  0.00  0.00    +0.010 A 
ATOM     26  C   LIG    1        2.014  -0.234   0.052  0.00  0.00    +0.000 A 
ATOM     27  C   LIG    1        2.134   1.138  -0.066  0.00  0.00    +0.020 A 
ENDBRANCH  11  22
TORSDOF 3
