REMARK  Name = ZINCqH0000001Khj.0
REMARK                            x       y       z     vdW  Elec       q    Type
REMARK                         _______ _______ _______ _____ _____    ______ ____
ROOT
ATOM      1  C   LIG    1        1.653  -2.463   0.004  0.00  0.00    +0.580 C 
ATOM      2  N   LIG    1        0.387  -2.895  -0.160  0.00  0.00    -0.600 N 
ATOM      3  C   LIG    1       -0.712  -1.943  -0.379  0.00  0.00    +0.310 C 
ATOM      4  C   LIG    1       -1.687  -2.021   0.803  0.00  0.00    +0.120 C 
ATOM      5  C   LIG    1       -1.946  -3.469   1.124  0.00  0.00    -0.010 A 
ATOM      6  C   LIG    1       -1.171  -4.499   0.722  0.00  0.00    -0.010 A 
ATOM      7  N   LIG    1       -1.703  -5.628   1.194  0.00  0.00    -0.470 NA
ATOM      8  C   LIG    1       -2.783  -5.341   1.873  0.00  0.00    +0.400 A 
ATOM      9  N   LIG    1       -2.968  -4.001   1.851  0.00  0.00    -0.560 N 
ATOM     10  H   LIG    1       -3.691  -3.511   2.273  0.00  0.00    +0.420 HD
ATOM     11  C   LIG    1        0.071  -4.335  -0.129  0.00  0.00    +0.390 C 
ATOM     12  O   LIG    1        1.885  -1.271   0.070  0.00  0.00    -0.520 OA
ENDROOT
BRANCH   1  16
ATOM     13  C   LIG    1        4.833  -5.189   0.343  0.00  0.00    +0.160 A 
ATOM     14  C   LIG    1        3.845  -5.452  -0.588  0.00  0.00    -0.030 A 
ATOM     15  C   LIG    1        2.787  -4.570  -0.721  0.00  0.00    +0.110 A 
ATOM     16  C   LIG    1        2.760  -3.438   0.102  0.00  0.00    -0.200 A 
ATOM     17  C   LIG    1        3.796  -3.245   1.017  0.00  0.00    +0.330 A 
ATOM     18  N   LIG    1        4.782  -4.113   1.106  0.00  0.00    -0.480 NA
BRANCH  13  20
ATOM     19  C   LIG    1        5.592  -7.280   1.439  0.00  0.00    +0.050 C 
ATOM     20  C   LIG    1        5.987  -6.147   0.490  0.00  0.00    +0.040 C 
ATOM     21  C   LIG    1        6.344  -6.729  -0.879  0.00  0.00    +0.040 C 
ENDBRANCH  13  20
ENDBRANCH   1  16
BRANCH  11  22
ATOM     22  C   LIG    1       -0.190  -4.832  -1.527  0.00  0.00    -0.100 A 
ATOM     23  C   LIG    1       -0.283  -3.935  -2.574  0.00  0.00    +0.010 A 
ATOM     24  C   LIG    1       -0.518  -4.392  -3.857  0.00  0.00    +0.000 A 
ATOM     25  C   LIG    1       -0.670  -5.745  -4.092  0.00  0.00    +0.010 A 
ATOM     26  C   LIG    1       -0.581  -6.643  -3.045  0.00  0.00    +0.000 A 
ATOM     27  C   LIG    1       -0.342  -6.186  -1.762  0.00  0.00    +0.040 A 
ENDBRANCH  11  22
TORSDOF 3
