REMARK  Name = ZINCb80000002ENZ.0
REMARK                            x       y       z     vdW  Elec       q    Type
REMARK                         _______ _______ _______ _____ _____    ______ ____
ROOT
ATOM      1  CA  LIG    1       -0.699   1.479   1.216  0.00  0.00    +0.090 C 
ENDROOT
BRANCH   1   2
ATOM      2  N   LIG    1       -0.012   1.005   0.008  0.00  0.00    -0.610 N 
ATOM      3  H1  LIG    1       -0.500   1.339  -0.810  0.00  0.00    +0.430 HD
ATOM      4  H2  LIG    1        0.935   1.354   0.000  0.00  0.00    +0.410 HD
ATOM      5  H3  LIG    1        0.002  -0.004   0.002  0.00  0.00    +0.430 HD
ENDBRANCH   1   2
BRANCH   1   6
ATOM      6  C   LIG    1       -2.113   0.957   1.227  0.00  0.00    +0.490 C 
ATOM      7  OXT LIG    1       -2.569   0.412   0.236  0.00  0.00    -0.670 OA
ATOM      8  O   LIG    1       -2.800   1.079   2.226  0.00  0.00    -0.630 OA
ENDBRANCH   1   6
BRANCH   1   9
ATOM      9  C   LIG    1       -0.720   3.008   1.225  0.00  0.00    +0.190 C 
BRANCH   9  10
ATOM     10  C   LIG    1        0.690   3.529   1.338  0.00  0.00    -0.030 A 
ATOM     11  C   LIG    1        1.512   3.803   0.309  0.00  0.00    -0.070 A 
ATOM     12  C   LIG    1        2.725   4.267   0.867  0.00  0.00    -0.060 A 
ATOM     13  C   LIG    1        2.575   4.241   2.204  0.00  0.00    +0.190 A 
ATOM     14  O   LIG    1        1.340   3.793   2.483  0.00  0.00    -0.170 OA
ENDBRANCH   9  10
ENDBRANCH   1   9
TORSDOF 4
