REMARK  Name = ZINCqH0000037AWv.0
REMARK                            x       y       z     vdW  Elec       q    Type
REMARK                         _______ _______ _______ _____ _____    ______ ____
ROOT
ATOM      1  C   LIG    1       -7.924  -1.159  -0.760  0.00  0.00    +0.610 C 
ATOM      2  N   LIG    1       -6.968  -0.364  -0.240  0.00  0.00    -0.720 N 
ATOM      3  H   LIG    1       -6.646   0.400  -0.743  0.00  0.00    +0.410 HD
ATOM      4  O   LIG    1       -8.328  -2.117  -0.128  0.00  0.00    -0.500 OA
ENDROOT
BRANCH   1   7
ATOM      5  C   LIG    1      -10.129  -2.828  -2.181  0.00  0.00    +0.140 C 
ATOM      6  C   LIG    1       -9.442  -1.596  -2.710  0.00  0.00    -0.070 A 
ATOM      7  C   LIG    1       -8.479  -0.867  -2.089  0.00  0.00    -0.040 A 
ATOM      8  O   LIG    1       -8.113   0.168  -2.874  0.00  0.00    -0.180 OA
ATOM      9  C   LIG    1       -8.802   0.159  -4.032  0.00  0.00    +0.070 A 
ATOM     10  C   LIG    1       -8.794   0.986  -5.148  0.00  0.00    +0.070 A 
ATOM     11  C   LIG    1       -9.637   0.725  -6.207  0.00  0.00    +0.040 A 
ATOM     12  C   LIG    1      -10.502  -0.362  -6.173  0.00  0.00    +0.080 A 
ATOM     13  C   LIG    1      -10.527  -1.197  -5.077  0.00  0.00    +0.060 A 
ATOM     14  F   LIG    1      -11.322  -0.602  -7.220  0.00  0.00    -0.130 F 
ATOM     15  C   LIG    1       -9.678  -0.942  -3.997  0.00  0.00    -0.120 A 
ENDBRANCH   1   7
BRANCH   2  16
ATOM     16  C   LIG    1       -6.414  -0.654   1.085  0.00  0.00    +0.290 C 
ATOM     17  C   LIG    1       -7.309  -0.032   2.159  0.00  0.00    +0.040 C 
BRANCH  16  18
ATOM     18  C   LIG    1       -5.027  -0.074   1.188  0.00  0.00    -0.040 A 
ATOM     19  C   LIG    1       -4.027  -0.783   1.826  0.00  0.00    +0.010 A 
ATOM     20  C   LIG    1       -2.755  -0.251   1.921  0.00  0.00    +0.130 A 
ATOM     21  C   LIG    1       -2.483   0.992   1.379  0.00  0.00    -0.660 A 
ATOM     22  C   LIG    1       -3.485   1.704   0.746  0.00  0.00    +0.130 A 
ATOM     23  C   LIG    1       -4.756   1.169   0.646  0.00  0.00    -0.010 A 
BRANCH  21  24
ATOM     24  S   LIG    1       -0.862   1.671   1.500  0.00  0.00    +2.500 S 
ATOM     25  O   LIG    1       -1.065   3.076   1.440  0.00  0.00    -0.940 OA
ATOM     26  O   LIG    1       -0.312   1.059   2.659  0.00  0.00    -0.930 OA
ATOM     27  C   LIG    1       -0.013   1.086   0.008  0.00  0.00    -0.260 C 
ENDBRANCH  21  24
ENDBRANCH  16  18
ENDBRANCH   2  16
TORSDOF 4
