REMARK  Name = ZINCpk00000y6yrq.0
REMARK                            x       y       z     vdW  Elec       q    Type
REMARK                         _______ _______ _______ _____ _____    ______ ____
ROOT
ATOM      1  C   LIG    1       -1.638   2.929  -0.650  0.00  0.00    +0.380 C 
ATOM      2  C   LIG    1       -1.090   1.592  -1.193  0.00  0.00    +0.090 C 
ATOM      3  C   LIG    1       -0.092   1.152  -0.090  0.00  0.00    +0.060 C 
ATOM      4  C   LIG    1       -0.806   1.648   1.192  0.00  0.00    +0.260 C 
ATOM      5  N   LIG    1       -1.431   2.927   0.805  0.00  0.00    -0.630 N 
ATOM      6  C   LIG    1       -1.757   3.928   1.647  0.00  0.00    +0.720 C 
ATOM      7  N   LIG    1       -1.514   3.804   2.967  0.00  0.00    -0.680 N 
ATOM      8  H   LIG    1       -1.178   2.967   3.322  0.00  0.00    +0.420 HD
ATOM      9  O   LIG    1       -2.269   4.942   1.215  0.00  0.00    -0.550 OA
ENDROOT
BRANCH   7  10
ATOM     10  C   LIG    1       -1.749   4.885   3.825  0.00  0.00    +0.220 A 
ATOM     11  C   LIG    1       -1.550   6.184   3.378  0.00  0.00    +0.040 A 
ATOM     12  C   LIG    1       -1.786   7.248   4.226  0.00  0.00    +0.130 A 
ATOM     13  C   LIG    1       -2.211   7.020   5.522  0.00  0.00    -0.060 A 
ATOM     14  C   LIG    1       -2.406   5.727   5.972  0.00  0.00    +0.130 A 
ATOM     15  C   LIG    1       -2.176   4.659   5.127  0.00  0.00    +0.000 A 
BRANCH  13  16
ATOM     16  N   LIG    1       -2.458   8.163   6.430  0.00  0.00    +0.030 N 
ATOM     17  O   LIG    1       -2.288   9.302   6.036  0.00  0.00    -0.160 OA
ATOM     18  O   LIG    1       -2.832   7.963   7.572  0.00  0.00    -0.160 OA
ENDBRANCH  13  16
ENDBRANCH   7  10
BRANCH   1  22
ATOM     19  C   LIG    1       -0.336   5.750  -2.456  0.00  0.00    +0.140 A 
ATOM     20  N   LIG    1        0.652   5.433  -1.661  0.00  0.00    -0.350 NA
ATOM     21  O   LIG    1        0.346   4.481  -0.975  0.00  0.00    +0.100 OA
ATOM     22  C   LIG    1       -0.893   4.080  -1.276  0.00  0.00    +0.180 A 
ATOM     23  N   LIG    1       -1.340   4.878  -2.212  0.00  0.00    -0.420 NA
BRANCH  19  27
ATOM     24  N   LIG    1        0.728   7.655  -3.579  0.00  0.00    -0.830 N 
ATOM     25  H   LIG    1        0.717   8.380  -4.223  0.00  0.00    +0.420 HD
ATOM     26  H   LIG    1        1.515   7.503  -3.034  0.00  0.00    +0.410 HD
ATOM     27  C   LIG    1       -0.352   6.860  -3.442  0.00  0.00    +0.620 C 
ATOM     28  O   LIG    1       -1.338   7.051  -4.125  0.00  0.00    -0.490 OA
ENDBRANCH  19  27
ENDBRANCH   1  22
TORSDOF 4
