REMARK  Name = ZINCvU0000000GfT.0
REMARK                            x       y       z     vdW  Elec       q    Type
REMARK                         _______ _______ _______ _____ _____    ______ ____
ROOT
ATOM      1  C   LIG    1       -2.513   0.974  -0.011  0.00  0.00    +0.160 C 
ENDROOT
BRANCH   1   2
ATOM      2  C   LIG    1       -1.221   1.750  -0.004  0.00  0.00    -0.060 A 
ATOM      3  C   LIG    1       -0.013   1.076  -0.004  0.00  0.00    +0.040 A 
ATOM      4  C   LIG    1        1.173   1.780  -0.004  0.00  0.00    +0.090 A 
ATOM      5  C   LIG    1        1.153   3.176   0.001  0.00  0.00    -0.120 A 
ATOM      6  C   LIG    1       -0.070   3.850   0.007  0.00  0.00    +0.050 A 
ATOM      7  C   LIG    1       -1.249   3.134   0.006  0.00  0.00    +0.040 A 
BRANCH   5   8
ATOM      8  C   LIG    1        2.420   3.937   0.001  0.00  0.00    +0.560 C 
ATOM      9  N   LIG    1        2.396   5.285   0.006  0.00  0.00    -0.670 N 
ATOM     10  H   LIG    1        1.550   5.755  -0.058  0.00  0.00    +0.410 HD
ATOM     11  O   LIG    1        3.483   3.348  -0.004  0.00  0.00    -0.510 OA
BRANCH   9  12
ATOM     12  C   LIG    1        3.591   6.005   0.104  0.00  0.00    +0.140 A 
ATOM     13  C   LIG    1        3.626   7.205   0.801  0.00  0.00    -0.010 A 
ATOM     14  C   LIG    1        4.809   7.911   0.900  0.00  0.00    +0.030 A 
ATOM     15  C   LIG    1        5.956   7.429   0.296  0.00  0.00    -0.010 A 
ATOM     16  C   LIG    1        5.924   6.236  -0.403  0.00  0.00    +0.030 A 
ATOM     17  C   LIG    1        4.745   5.523  -0.501  0.00  0.00    +0.020 A 
ENDBRANCH   9  12
ENDBRANCH   5   8
ENDBRANCH   1   2
BRANCH   1  18
ATOM     18  S   LIG    1       -3.035   0.656   1.693  0.00  0.00    +0.090 S 
BRANCH  18  22
ATOM     19  C   LIG    1       -6.358  -1.339   1.660  0.00  0.00    +0.160 A 
ATOM     20  N   LIG    1       -6.123  -1.196   0.389  0.00  0.00    -0.240 NA
ATOM     21  N   LIG    1       -5.029  -0.538   0.224  0.00  0.00    -0.290 NA
ATOM     22  C   LIG    1       -4.524  -0.237   1.396  0.00  0.00    +0.140 A 
ATOM     23  O   LIG    1       -5.351  -0.743   2.330  0.00  0.00    -0.200 OA
BRANCH  19  24
ATOM     24  C   LIG    1       -7.537  -2.049   2.273  0.00  0.00    +0.380 C 
BRANCH  24  25
ATOM     25  O   LIG    1       -7.216  -3.429   2.464  0.00  0.00    -0.310 OA
BRANCH  25  31
ATOM     26  C   LIG    1       -8.651  -7.829   4.014  0.00  0.00    +0.100 C 
ATOM     27  C   LIG    1       -8.915  -6.363   3.782  0.00  0.00    -0.040 A 
ATOM     28  C   LIG    1      -10.139  -5.819   4.126  0.00  0.00    -0.020 A 
ATOM     29  C   LIG    1      -10.384  -4.475   3.914  0.00  0.00    +0.060 A 
ATOM     30  C   LIG    1       -9.405  -3.671   3.363  0.00  0.00    -0.080 A 
ATOM     31  C   LIG    1       -8.179  -4.216   3.011  0.00  0.00    +0.130 A 
ATOM     32  C   LIG    1       -7.935  -5.565   3.225  0.00  0.00    -0.020 A 
ENDBRANCH  25  31
ENDBRANCH  24  25
ENDBRANCH  19  24
ENDBRANCH  18  22
ENDBRANCH   1  18
TORSDOF 8
