REMARK  Name = ZINCrg00000zVPMb.0
REMARK                            x       y       z     vdW  Elec       q    Type
REMARK                         _______ _______ _______ _____ _____    ______ ____
ROOT
ATOM      1  N   LIG    1        3.608  -0.489  -0.035  0.00  0.00    -0.470 N 
ATOM      2  C   LIG    1        4.387   0.630  -0.036  0.00  0.00    +0.500 A 
ATOM      3  N   LIG    1        3.638   1.694  -0.024  0.00  0.00    -0.450 NA
ATOM      4  C   LIG    1        2.334   1.327  -0.013  0.00  0.00    -0.040 A 
ATOM      5  C   LIG    1        1.112   2.020   0.002  0.00  0.00    +0.390 A 
ATOM      6  N   LIG    1       -0.016   1.316   0.009  0.00  0.00    -0.560 NA
ATOM      7  C   LIG    1        0.002  -0.004   0.002  0.00  0.00    +0.550 A 
ATOM      8  N   LIG    1        1.122  -0.696  -0.012  0.00  0.00    -0.520 NA
ATOM      9  C   LIG    1        2.299  -0.078  -0.020  0.00  0.00    +0.280 A 
ENDROOT
BRANCH   5  10
ATOM     10  N   LIG    1        1.083   3.404   0.011  0.00  0.00    -0.410 N 
ATOM     11  C   LIG    1        1.239   3.928   1.383  0.00  0.00    +0.220 C 
ATOM     12  C   LIG    1        0.144   4.928   1.054  0.00  0.00    -0.110 C 
ATOM     13  C   LIG    1       -0.841   5.278   2.171  0.00  0.00    +0.280 C 
ATOM     14  N   LIG    1       -0.473   6.638   2.594  0.00  0.00    -0.730 N 
ATOM     15  H   LIG    1       -0.768   7.053   3.420  0.00  0.00    +0.410 HD
ATOM     16  C   LIG    1        0.323   7.235   1.687  0.00  0.00    +0.520 C 
ATOM     17  O   LIG    1        0.766   8.359   1.785  0.00  0.00    -0.530 OA
ATOM     18  C   LIG    1        0.586   6.296   0.525  0.00  0.00    +0.090 C 
ATOM     19  C   LIG    1       -0.308   3.904   0.027  0.00  0.00    +0.240 C 
ENDBRANCH   5  10
BRANCH   1  20
ATOM     20  C   LIG    1        4.082  -1.875  -0.047  0.00  0.00    +0.300 C 
BRANCH  20  26
ATOM     21  C   LIG    1        5.136  -5.802  -2.951  0.00  0.00    +0.020 C 
ATOM     22  C   LIG    1        4.641  -4.355  -2.939  0.00  0.00    -0.010 C 
ATOM     23  C   LIG    1        5.586  -3.486  -3.771  0.00  0.00    +0.010 C 
ATOM     24  C   LIG    1        5.091  -2.038  -3.759  0.00  0.00    +0.020 C 
ATOM     25  C   LIG    1        5.059  -1.522  -2.319  0.00  0.00    -0.010 C 
ATOM     26  C   LIG    1        4.114  -2.391  -1.486  0.00  0.00    +0.120 C 
ATOM     27  C   LIG    1        4.609  -3.838  -1.499  0.00  0.00    +0.050 C 
BRANCH  26  28
ATOM     28  O   LIG    1        2.799  -2.332  -2.043  0.00  0.00    -0.540 OA
ATOM     29  H   LIG    1        2.422  -1.442  -2.067  0.00  0.00    +0.370 HD
ENDBRANCH  26  28
ENDBRANCH  20  26
ENDBRANCH   1  20
TORSDOF 4
