REMARK  Name = ZINCpk000005VZmr.0
REMARK                            x       y       z     vdW  Elec       q    Type
REMARK                         _______ _______ _______ _____ _____    ______ ____
ROOT
ATOM      1  O   LIG    1        3.343   2.200   2.314  0.00  0.00    -0.510 OA
ATOM      2  C   LIG    1        4.053   2.539   1.391  0.00  0.00    +0.550 C 
ATOM      3  N   LIG    1        5.182   3.234   1.630  0.00  0.00    -0.650 N 
ATOM      4  C   LIG    1        6.269   3.800   0.817  0.00  0.00    +0.270 C 
ATOM      5  C   LIG    1        7.188   3.650   2.034  0.00  0.00    -0.010 C 
ATOM      6  C   LIG    1        5.874   3.755   2.819  0.00  0.00    +0.300 C 
ENDROOT
BRANCH   5   7
ATOM      7  C   LIG    1        8.145   4.824   2.250  0.00  0.00    +0.350 C 
BRANCH   7   8
ATOM      8  N   LIG    1        9.406   4.562   1.553  0.00  0.00    -0.290 N 
ATOM      9  C   LIG    1        9.987   5.369   0.635  0.00  0.00    +0.180 A 
ATOM     10  C   LIG    1       11.128   4.747   0.255  0.00  0.00    -0.030 A 
ATOM     11  N   LIG    1       11.184   3.602   0.943  0.00  0.00    -0.260 NA
ATOM     12  N   LIG    1       10.149   3.522   1.704  0.00  0.00    -0.080 NA
BRANCH  10  13
ATOM     13  C   LIG    1       12.134   5.245  -0.751  0.00  0.00    +0.310 C 
BRANCH  13  14
ATOM     14  O   LIG    1       11.710   6.510  -1.263  0.00  0.00    -0.570 OA
ATOM     15  H   LIG    1       12.311   6.891  -1.917  0.00  0.00    +0.390 HD
ENDBRANCH  13  14
ENDBRANCH  10  13
ENDBRANCH   7   8
ENDBRANCH   5   7
BRANCH   2  16
ATOM     16  C   LIG    1        3.672   2.182  -0.022  0.00  0.00    +0.100 C 
BRANCH  16  17
ATOM     17  C   LIG    1        2.377   1.411  -0.015  0.00  0.00    -0.020 A 
ATOM     18  C   LIG    1        2.396   0.029  -0.021  0.00  0.00    +0.020 A 
ATOM     19  C   LIG    1        1.208  -0.679  -0.013  0.00  0.00    +0.060 A 
ATOM     20  C   LIG    1        0.002  -0.004   0.002  0.00  0.00    +0.020 A 
ATOM     21  C   LIG    1       -0.017   1.378   0.010  0.00  0.00    +0.070 A 
ATOM     22  C   LIG    1        1.171   2.086   0.002  0.00  0.00    -0.170 A 
BRANCH  22  23
ATOM     23  C   LIG    1        1.150   3.592   0.010  0.00  0.00    +0.500 C 
ATOM     24  F   LIG    1        1.792   4.074  -1.135  0.00  0.00    -0.180 F 
ATOM     25  F   LIG    1        1.814   4.062   1.149  0.00  0.00    -0.170 F 
ATOM     26  F   LIG    1       -0.175   4.041   0.025  0.00  0.00    -0.170 F 
ENDBRANCH  22  23
ENDBRANCH  16  17
ENDBRANCH   2  16
TORSDOF 7
