REMARK  Name = ZINCkj00000kIZhD.0
REMARK                            x       y       z     vdW  Elec       q    Type
REMARK                         _______ _______ _______ _____ _____    ______ ____
ROOT
ATOM      1  N   LIG    1        1.339   1.683   2.560  0.00  0.00    -0.510 NA
ATOM      2  C   LIG    1        1.250   3.142   2.717  0.00  0.00    +0.190 C 
ATOM      3  C   LIG    1        2.659   3.726   2.839  0.00  0.00    +0.210 C 
ATOM      4  N   LIG    1        3.438   3.375   1.644  0.00  0.00    -0.490 N 
ATOM      5  C   LIG    1        3.527   1.917   1.486  0.00  0.00    +0.200 C 
ATOM      6  C   LIG    1        2.118   1.332   1.364  0.00  0.00    +0.190 C 
ENDROOT
BRANCH   1   7
ATOM      7  C   LIG    1        0.002   1.076   2.515  0.00  0.00    +0.100 C 
ATOM      8  C   LIG    1        0.132  -0.450   2.540  0.00  0.00    +0.050 C 
ATOM      9  C   LIG    1       -1.269  -1.071   2.572  0.00  0.00    +0.210 C 
ATOM     10  O   LIG    1       -1.980  -0.583   3.712  0.00  0.00    -0.350 OA
ATOM     11  C   LIG    1       -2.171   0.833   3.717  0.00  0.00    +0.190 C 
ATOM     12  C   LIG    1       -0.808   1.530   3.732  0.00  0.00    +0.050 C 
BRANCH   7  13
ATOM     13  C   LIG    1       -0.713   1.508   1.233  0.00  0.00    +0.230 C 
BRANCH  13  14
ATOM     14  N   LIG    1       -2.159   1.297   1.385  0.00  0.00    -0.650 N 
ATOM     15  H   LIG    1       -2.595   1.293   0.475  0.00  0.00    +0.420 HD
ATOM     16  H   LIG    1       -2.324   0.412   1.841  0.00  0.00    +0.440 HD
ATOM     17  H   LIG    1       -2.551   2.041   1.943  0.00  0.00    +0.440 HD
ENDBRANCH  13  14
ENDBRANCH   7  13
ENDBRANCH   1   7
BRANCH   4  18
ATOM     18  C   LIG    1        4.709   3.953   1.687  0.00  0.00    +0.100 A 
ATOM     19  C   LIG    1        5.840   3.153   1.590  0.00  0.00    -0.040 A 
ATOM     20  C   LIG    1        7.096   3.728   1.628  0.00  0.00    +0.040 A 
ATOM     21  C   LIG    1        7.227   5.097   1.772  0.00  0.00    -0.010 A 
ATOM     22  C   LIG    1        6.102   5.895   1.874  0.00  0.00    +0.040 A 
ATOM     23  C   LIG    1        4.844   5.327   1.831  0.00  0.00    -0.020 A 
ENDBRANCH   4  18
TORSDOF 4
