REMARK  Name = ZINCqH0000004Lqy.0
REMARK                            x       y       z     vdW  Elec       q    Type
REMARK                         _______ _______ _______ _____ _____    ______ ____
ROOT
ATOM      1  C   LIG    1        7.030   2.931   3.081  0.00  0.00    +0.230 A 
ATOM      2  N   LIG    1        6.143   1.972   2.992  0.00  0.00    -0.450 NA
ATOM      3  C   LIG    1        5.206   2.375   2.114  0.00  0.00    +0.160 A 
ATOM      4  N   LIG    1        5.544   3.570   1.680  0.00  0.00    -0.260 NA
ATOM      5  N   LIG    1        6.640   3.925   2.257  0.00  0.00    -0.260 N 
ENDROOT
BRANCH   5   6
ATOM      6  C   LIG    1        7.315   5.137   2.058  0.00  0.00    +0.130 A 
ATOM      7  C   LIG    1        7.736   5.886   3.149  0.00  0.00    +0.040 A 
ATOM      8  C   LIG    1        8.407   7.077   2.949  0.00  0.00    +0.050 A 
ATOM      9  C   LIG    1        8.650   7.529   1.666  0.00  0.00    +0.060 A 
ATOM     10  C   LIG    1        8.228   6.789   0.577  0.00  0.00    +0.050 A 
ATOM     11  C   LIG    1        7.561   5.593   0.769  0.00  0.00    -0.020 A 
ATOM     12 CL   LIG    1        7.031   4.664  -0.598  0.00  0.00    -0.040 Cl
ENDBRANCH   5   6
BRANCH   3  13
ATOM     13  C   LIG    1        4.011   1.607   1.704  0.00  0.00    +0.610 C 
ATOM     14  N   LIG    1        3.215   2.072   0.722  0.00  0.00    -0.580 N 
ATOM     15  C   LIG    1        3.477   3.385   0.126  0.00  0.00    +0.320 C 
ATOM     16  O   LIG    1        3.747   0.555   2.253  0.00  0.00    -0.510 OA
BRANCH  14  17
ATOM     17  C   LIG    1        2.087   1.266   0.249  0.00  0.00    +0.310 C 
ATOM     18  C   LIG    1        2.262   0.968  -1.241  0.00  0.00    +0.050 C 
BRANCH  17  19
ATOM     19  C   LIG    1        0.803   2.026   0.462  0.00  0.00    +0.120 A 
ATOM     20  C   LIG    1       -0.386   1.334   0.593  0.00  0.00    -0.020 A 
ATOM     21  C   LIG    1       -1.563   2.043   0.783  0.00  0.00    +0.070 A 
ATOM     22  C   LIG    1       -1.498   3.426   0.845  0.00  0.00    -0.030 A 
ATOM     23  C   LIG    1       -0.272   4.049   0.706  0.00  0.00    +0.260 A 
ATOM     24  N   LIG    1        0.827   3.343   0.521  0.00  0.00    -0.470 NA
ENDBRANCH  17  19
ENDBRANCH  14  17
ENDBRANCH   3  13
BRANCH   1  26
ATOM     25  C   LIG    1        9.399   2.210   3.211  0.00  0.00    +0.040 C 
ATOM     26  C   LIG    1        8.263   2.925   3.947  0.00  0.00    +0.150 C 
ENDBRANCH   1  26
TORSDOF 5
