REMARK  Name = ZINCvU00000004SR.0
REMARK                            x       y       z     vdW  Elec       q    Type
REMARK                         _______ _______ _______ _____ _____    ______ ____
ROOT
ATOM      1  N   LIG    1        6.640   0.803  -1.369  0.00  0.00    -0.730 N 
ATOM      2  H   LIG    1        7.226   1.151  -0.678  0.00  0.00    +0.400 HD
ATOM      3  C   LIG    1        7.155   0.103  -2.399  0.00  0.00    +0.510 C 
ATOM      4  O   LIG    1        6.422  -0.331  -3.263  0.00  0.00    -0.530 OA
ENDROOT
BRANCH   1   5
ATOM      5  C   LIG    1        5.197   1.040  -1.292  0.00  0.00    +0.280 C 
BRANCH   5   7
ATOM      6  C   LIG    1        5.221   1.027   1.207  0.00  0.00    +0.060 C 
ATOM      7  C   LIG    1        4.879   1.853  -0.035  0.00  0.00    +0.070 C 
BRANCH   7   8
ATOM      8  C   LIG    1        3.413   2.201  -0.019  0.00  0.00    +0.100 A 
ATOM      9  N   LIG    1        2.468   1.338  -0.014  0.00  0.00    -0.460 NA
ATOM     10  C   LIG    1        1.201   1.792   0.000  0.00  0.00    +0.080 A 
ATOM     11  C   LIG    1       -0.013   1.076   0.008  0.00  0.00    +0.080 A 
ATOM     12  C   LIG    1       -1.204   1.736   0.017  0.00  0.00    +0.030 A 
ATOM     13  C   LIG    1       -1.247   3.123   0.030  0.00  0.00    +0.040 A 
ATOM     14  C   LIG    1       -0.077   3.849   0.022  0.00  0.00    +0.060 A 
ATOM     15  C   LIG    1        1.151   3.191   0.008  0.00  0.00    -0.180 A 
ATOM     16  S   LIG    1        2.804   3.795  -0.005  0.00  0.00    +0.100 S 
ENDBRANCH   7   8
ENDBRANCH   5   7
ENDBRANCH   1   5
BRANCH   3  17
ATOM     17  C   LIG    1        8.640  -0.140  -2.478  0.00  0.00    +0.050 C 
BRANCH  17  18
ATOM     18  C   LIG    1        8.957  -0.953  -3.735  0.00  0.00    +0.010 C 
ATOM     19  C   LIG    1        8.616  -0.127  -4.976  0.00  0.00    +0.020 C 
BRANCH  18  20
ATOM     20  C   LIG    1       10.446  -1.306  -3.751  0.00  0.00    +0.000 C 
ATOM     21  C   LIG    1       10.763  -2.119  -5.008  0.00  0.00    +0.020 C 
ATOM     22  C   LIG    1       12.261  -2.441  -5.038  0.00  0.00    +0.270 C 
ATOM     23  N   LIG    1       12.627  -3.107  -3.781  0.00  0.00    -0.600 N 
ATOM     24  C   LIG    1       12.285  -2.454  -2.510  0.00  0.00    +0.300 C 
ATOM     25  C   LIG    1       13.264  -4.295  -3.793  0.00  0.00    +0.650 C 
ATOM     26  O   LIG    1       13.561  -4.835  -2.747  0.00  0.00    -0.570 OA
ATOM     27  C   LIG    1       10.788  -2.132  -2.508  0.00  0.00    +0.020 C 
BRANCH  25  28
ATOM     28  O   LIG    1       13.571  -4.882  -4.965  0.00  0.00    -0.360 OA
BRANCH  28  29
ATOM     29  C   LIG    1       14.257  -6.160  -4.903  0.00  0.00    +0.140 C 
ATOM     30  C   LIG    1       15.588  -5.989  -4.168  0.00  0.00    +0.040 C 
ATOM     31  C   LIG    1       14.519  -6.668  -6.322  0.00  0.00    +0.080 C 
ATOM     32  C   LIG    1       13.386  -7.170  -4.152  0.00  0.00    +0.040 C 
ENDBRANCH  28  29
ENDBRANCH  25  28
ENDBRANCH  18  20
ENDBRANCH  17  18
ENDBRANCH   3  17
TORSDOF 8
