REMARK  Name = ZINCpe00000MJIXM.0
REMARK                            x       y       z     vdW  Elec       q    Type
REMARK                         _______ _______ _______ _____ _____    ______ ____
ROOT
ATOM      1  N   LIG    1        4.322   3.562  -0.973  0.00  0.00    -0.620 N 
ATOM      2  C   LIG    1        5.114   2.965  -0.064  0.00  0.00    +0.700 C 
ATOM      3  N   LIG    1        4.717   1.727   0.268  0.00  0.00    -0.740 N 
ATOM      4  H   LIG    1        5.189   1.123   0.862  0.00  0.00    +0.430 HD
ATOM      5  C   LIG    1        3.436   1.436  -0.423  0.00  0.00    +0.230 C 
ATOM      6  C   LIG    1        2.358   1.334   0.638  0.00  0.00    +0.270 C 
ATOM      7  N   LIG    1        1.087   1.902   0.243  0.00  0.00    -0.590 N 
ATOM      8  C   LIG    1        0.991   3.157  -0.487  0.00  0.00    +0.280 C 
ATOM      9  C   LIG    1        1.936   3.146  -1.674  0.00  0.00    +0.050 C 
ATOM     10  C   LIG    1       -0.046   1.242   0.556  0.00  0.00    +0.590 C 
ATOM     11  O   LIG    1        0.013   0.133   1.051  0.00  0.00    -0.530 OA
ATOM     12  O   LIG    1        6.099   3.497   0.411  0.00  0.00    -0.580 OA
ATOM     13  C   LIG    1        3.284   2.587  -1.391  0.00  0.00    +0.220 C 
ENDROOT
BRANCH  10  14
ATOM     14  C   LIG    1       -1.354   1.861   0.292  0.00  0.00    -0.040 A 
ATOM     15  C   LIG    1       -1.622   3.213   0.158  0.00  0.00    -0.030 A 
ATOM     16  C   LIG    1       -2.995   3.296  -0.083  0.00  0.00    +0.190 A 
ATOM     17  N   LIG    1       -3.478   2.079  -0.079  0.00  0.00    -0.270 NA
ATOM     18  N   LIG    1       -2.550   1.218   0.137  0.00  0.00    -0.240 N 
BRANCH  18  19
ATOM     19  C   LIG    1       -2.743  -0.232   0.206  0.00  0.00    +0.260 C 
ATOM     20  C   LIG    1       -3.875  -0.747  -0.698  0.00  0.00    +0.040 C 
ATOM     21  C   LIG    1       -4.253  -1.698   0.452  0.00  0.00    +0.030 C 
ATOM     22  C   LIG    1       -3.597  -0.683   1.403  0.00  0.00    +0.030 C 
ENDBRANCH  18  19
ENDBRANCH  10  14
BRANCH   1  23
ATOM     23  C   LIG    1        4.462   4.933  -1.470  0.00  0.00    +0.340 C 
BRANCH  23  24
ATOM     24  C   LIG    1        5.370   4.939  -2.701  0.00  0.00    +0.160 C 
BRANCH  24  26
ATOM     25  C   LIG    1        5.509   4.160  -4.964  0.00  0.00    +0.200 C 
ATOM     26  O   LIG    1        4.740   4.216  -3.760  0.00  0.00    -0.390 OA
ENDBRANCH  24  26
ENDBRANCH  23  24
ENDBRANCH   1  23
TORSDOF 5
