REMARK  Name = ZINCpe00000bOqPI.0
REMARK                            x       y       z     vdW  Elec       q    Type
REMARK                         _______ _______ _______ _____ _____    ______ ____
ROOT
ATOM      1  C   LIG    1       -0.759   2.033  -1.229  0.00  0.00    +0.050 C 
ATOM      2  C   LIG    1       -0.019   1.526   0.010  0.00  0.00    +0.230 C 
ENDROOT
BRANCH   2   3
ATOM      3  N   LIG    1        1.356   2.033   0.000  0.00  0.00    -0.620 N 
ATOM      4  C   LIG    1        1.796   2.808   1.011  0.00  0.00    +0.510 C 
ATOM      5  O   LIG    1        1.054   3.086   1.929  0.00  0.00    -0.520 OA
ATOM      6  C   LIG    1        2.252   1.697  -1.109  0.00  0.00    +0.290 C 
BRANCH   4   7
ATOM      7  C   LIG    1        3.209   3.330   1.000  0.00  0.00    +0.110 C 
BRANCH   7   8
ATOM      8  C   LIG    1        3.447   4.164   2.233  0.00  0.00    -0.080 A 
ATOM      9  C   LIG    1        3.196   5.523   2.205  0.00  0.00    +0.030 A 
ATOM     10  C   LIG    1        3.407   6.288   3.336  0.00  0.00    -0.010 A 
ATOM     11  C   LIG    1        3.882   5.694   4.496  0.00  0.00    +0.110 A 
ATOM     12  C   LIG    1        4.139   4.331   4.519  0.00  0.00    -0.010 A 
ATOM     13  C   LIG    1        3.920   3.569   3.388  0.00  0.00    +0.030 A 
BRANCH  11  14
ATOM     14  O   LIG    1        4.097   6.446   5.607  0.00  0.00    -0.500 OA
ATOM     15  H   LIG    1        4.989   6.815   5.666  0.00  0.00    +0.390 HD
ENDBRANCH  11  14
ENDBRANCH   7   8
ENDBRANCH   4   7
ENDBRANCH   2   3
BRANCH   2  16
ATOM     16  C   LIG    1        0.002  -0.004   0.002  0.00  0.00    +0.280 C 
BRANCH  16  17
ATOM     17  N   LIG    1        0.812  -0.488   1.123  0.00  0.00    -0.720 N 
ATOM     18  H   LIG    1        1.232   0.145   1.726  0.00  0.00    +0.400 HD
ATOM     19  C   LIG    1        0.973  -1.812   1.316  0.00  0.00    +0.570 C 
ATOM     20  O   LIG    1        0.446  -2.605   0.560  0.00  0.00    -0.520 OA
BRANCH  19  21
ATOM     21  C   LIG    1        1.790  -2.300   2.448  0.00  0.00    -0.140 C 
ATOM     22  C   LIG    1        2.406  -1.397   3.322  0.00  0.00    +0.100 C 
ATOM     23  C   LIG    1        3.157  -1.904   4.368  0.00  0.00    +0.050 C 
ATOM     24  C   LIG    1        3.281  -3.274   4.510  0.00  0.00    +0.290 C 
ATOM     25  N   LIG    1        2.692  -4.103   3.667  0.00  0.00    -0.120 NA
ATOM     26  O   LIG    1        2.848  -5.498   3.852  0.00  0.00    -0.540 OA
ATOM     27  C   LIG    1        1.964  -3.668   2.659  0.00  0.00    +0.330 C 
ENDBRANCH  19  21
ENDBRANCH  16  17
ENDBRANCH   2  16
TORSDOF 7
