REMARK  Name = ZINCrD00000l0nFH.0
REMARK                            x       y       z     vdW  Elec       q    Type
REMARK                         _______ _______ _______ _____ _____    ______ ____
ROOT
ATOM      1  N   LIG    1       -0.736   1.802   7.039  0.00  0.00    -0.730 N 
ATOM      2  H   LIG    1       -0.455   2.705   7.252  0.00  0.00    +0.400 HD
ATOM      3  C   LIG    1       -0.893   0.895   8.024  0.00  0.00    +0.560 C 
ATOM      4  O   LIG    1       -1.246  -0.237   7.757  0.00  0.00    -0.530 OA
ENDROOT
BRANCH   3   5
ATOM      5  C   LIG    1       -0.637   1.277   9.427  0.00  0.00    -0.180 A 
ATOM      6  C   LIG    1       -0.231   2.583   9.734  0.00  0.00    +0.110 A 
ATOM      7  C   LIG    1        0.009   2.952  11.025  0.00  0.00    -0.040 A 
ATOM      8  C   LIG    1       -0.147   2.030  12.058  0.00  0.00    +0.220 A 
ATOM      9  N   LIG    1        0.090   2.385  13.364  0.00  0.00    -0.610 N 
ATOM     10  H   LIG    1        0.371   3.292  13.564  0.00  0.00    +0.420 HD
ATOM     11  C   LIG    1       -0.058   1.501  14.381  0.00  0.00    +0.340 A 
ATOM     12  C   LIG    1       -0.444   0.224  14.183  0.00  0.00    -0.160 A 
ATOM     13  C   LIG    1       -0.713  -0.240  12.873  0.00  0.00    +0.420 A 
ATOM     14  O   LIG    1       -1.064  -1.391  12.671  0.00  0.00    -0.490 OA
ATOM     15  C   LIG    1       -0.555   0.715  11.761  0.00  0.00    -0.210 A 
ATOM     16  C   LIG    1       -0.804   0.341  10.444  0.00  0.00    +0.190 A 
ENDBRANCH   3   5
BRANCH   1  17
ATOM     17  C   LIG    1       -0.991   1.423   5.647  0.00  0.00    +0.260 C 
BRANCH  17  18
ATOM     18  C   LIG    1       -0.741   2.627   4.737  0.00  0.00    +0.110 C 
BRANCH  18  25
ATOM     19  C   LIG    1       -6.025   2.827   2.534  0.00  0.00    +0.080 C 
ATOM     20  C   LIG    1       -4.623   2.471   2.113  0.00  0.00    -0.110 A 
ATOM     21  C   LIG    1       -4.381   2.044   0.815  0.00  0.00    +0.020 A 
ATOM     22  C   LIG    1       -3.106   1.713   0.409  0.00  0.00    -0.010 A 
ATOM     23  C   LIG    1       -2.049   1.808   1.308  0.00  0.00    +0.090 A 
ATOM     24  C   LIG    1       -2.300   2.239   2.624  0.00  0.00    -0.100 A 
ATOM     25  C   LIG    1       -1.003   2.237   3.305  0.00  0.00    -0.170 A 
ATOM     26  C   LIG    1       -0.091   1.822   2.411  0.00  0.00    +0.230 A 
ATOM     27  N   LIG    1       -0.698   1.558   1.213  0.00  0.00    -0.490 N 
ATOM     28  C   LIG    1       -0.013   1.086   0.008  0.00  0.00    +0.310 C 
ATOM     29  C   LIG    1       -3.600   2.563   3.015  0.00  0.00    +0.050 A 
ENDBRANCH  18  25
ENDBRANCH  17  18
ENDBRANCH   1  17
TORSDOF 4
