REMARK  Name = ZINCnE000001OaPv.0
REMARK                            x       y       z     vdW  Elec       q    Type
REMARK                         _______ _______ _______ _____ _____    ______ ____
ROOT
ATOM      1  C   LIG    1       -3.705   5.852   0.069  0.00  0.00    +0.510 A 
ATOM      2  N   LIG    1       -4.866   5.214   0.077  0.00  0.00    -0.560 NA
ATOM      3  C   LIG    1       -4.916   3.891   0.071  0.00  0.00    +0.350 A 
ATOM      4  C   LIG    1       -3.736   3.169   0.055  0.00  0.00    -0.110 A 
ATOM      5  C   LIG    1       -2.527   3.870   0.047  0.00  0.00    +0.240 A 
ATOM      6  N   LIG    1       -2.553   5.200   0.059  0.00  0.00    -0.520 NA
ENDROOT
BRANCH   1  12
ATOM      7  C   LIG    1       -4.331   9.650   1.569  0.00  0.00    +0.020 C 
ATOM      8  C   LIG    1       -5.017   9.292   0.249  0.00  0.00    -0.020 C 
ATOM      9  C   LIG    1       -4.228   9.895  -0.917  0.00  0.00    +0.030 C 
ATOM     10  C   LIG    1       -2.823   9.286  -0.941  0.00  0.00    -0.080 C 
ATOM     11  C   LIG    1       -2.934   7.764  -1.061  0.00  0.00    +0.220 C 
ATOM     12  N   LIG    1       -3.696   7.236   0.077  0.00  0.00    -0.450 N 
ATOM     13  C   LIG    1       -5.064   7.771   0.094  0.00  0.00    +0.210 C 
BRANCH  10  14
ATOM     14  C   LIG    1       -2.059   9.831  -2.120  0.00  0.00    +0.500 C 
ATOM     15  O   LIG    1       -2.620   9.985  -3.192  0.00  0.00    -0.700 OA
ATOM     16  O   LIG    1       -0.880  10.117  -2.003  0.00  0.00    -0.700 OA
ENDBRANCH  10  14
ENDBRANCH   1  12
BRANCH   5  17
ATOM     17  C   LIG    1       -1.235   3.142   0.031  0.00  0.00    -0.040 A 
ATOM     18  C   LIG    1       -1.217   1.748   0.017  0.00  0.00    +0.050 A 
ATOM     19  C   LIG    1       -0.013   1.076   0.008  0.00  0.00    +0.040 A 
ATOM     20  C   LIG    1        1.177   1.783   0.000  0.00  0.00    -0.080 A 
ATOM     21  C   LIG    1        1.166   3.167   0.007  0.00  0.00    +0.040 A 
ATOM     22 BR   LIG    1        2.825   0.855  -0.020  0.00  0.00    -0.050 Br
ATOM     23  C   LIG    1       -0.034   3.849   0.023  0.00  0.00    +0.090 A 
ENDBRANCH   5  17
TORSDOF 3
