REMARK  Name = ZINCvU0000000J2y.0
REMARK                            x       y       z     vdW  Elec       q    Type
REMARK                         _______ _______ _______ _____ _____    ______ ____
ROOT
ATOM      1  N   LIG    1        7.323  -2.575   0.130  0.00  0.00    -0.510 N 
ATOM      2  C   LIG    1        8.483  -1.907   0.229  0.00  0.00    +0.570 C 
ATOM      3  C   LIG    1        8.514  -0.439   0.244  0.00  0.00    -0.160 A 
ATOM      4  C   LIG    1        9.715   0.263   0.347  0.00  0.00    +0.110 A 
ATOM      5  C   LIG    1        9.702   1.641   0.358  0.00  0.00    -0.020 A 
ATOM      6  C   LIG    1        8.507   2.339   0.269  0.00  0.00    +0.070 A 
ATOM      7  C   LIG    1        7.307   1.664   0.166  0.00  0.00    -0.010 A 
ATOM      8  C   LIG    1        7.300   0.275   0.153  0.00  0.00    +0.050 A 
ATOM      9  C   LIG    1        6.044  -0.496   0.045  0.00  0.00    -0.300 C 
ATOM     10  C   LIG    1        4.826   0.141  -0.047  0.00  0.00    +0.430 C 
ATOM     11  O   LIG    1        9.526  -2.527   0.308  0.00  0.00    -0.490 OA
ATOM     12  C   LIG    1        6.132  -1.961   0.045  0.00  0.00    +0.590 C 
ATOM     13  O   LIG    1        5.115  -2.625  -0.038  0.00  0.00    -0.530 OA
ENDROOT
BRANCH   1  19
ATOM     14  C   LIG    1        7.004  -6.670   2.598  0.00  0.00    +0.130 C 
ATOM     15  C   LIG    1        7.207  -5.957   1.286  0.00  0.00    +0.150 A 
ATOM     16  C   LIG    1        7.415  -6.693   0.136  0.00  0.00    -0.020 A 
ATOM     17  C   LIG    1        7.601  -6.030  -1.070  0.00  0.00    +0.090 A 
ATOM     18  C   LIG    1        7.570  -4.647  -1.075  0.00  0.00    -0.010 A 
ATOM     19  C   LIG    1        7.356  -3.971   0.121  0.00  0.00    +0.340 A 
ATOM     20  N   LIG    1        7.188  -4.639   1.251  0.00  0.00    -0.470 NA
ENDBRANCH   1  19
BRANCH  10  21
ATOM     21  N   LIG    1        3.675  -0.582  -0.012  0.00  0.00    -0.610 N 
ATOM     22  H   LIG    1        3.712  -1.552   0.000  0.00  0.00    +0.430 HD
BRANCH  21  23
ATOM     23  C   LIG    1        2.443   0.069   0.007  0.00  0.00    +0.150 A 
ATOM     24  C   LIG    1        2.383   1.446  -0.009  0.00  0.00    -0.040 A 
ATOM     25  C   LIG    1        1.158   2.105   0.009  0.00  0.00    +0.050 A 
ATOM     26  C   LIG    1       -0.013   1.412   0.045  0.00  0.00    +0.000 A 
ATOM     27  C   LIG    1        0.003   0.006   0.063  0.00  0.00    -0.020 A 
ATOM     28  C   LIG    1       -1.190  -0.735   0.100  0.00  0.00    +0.020 A 
ATOM     29  C   LIG    1       -1.137  -2.095   0.116  0.00  0.00    +0.020 A 
ATOM     30  C   LIG    1        0.084  -2.766   0.098  0.00  0.00    +0.020 A 
ATOM     31  C   LIG    1        1.260  -2.079   0.063  0.00  0.00    +0.020 A 
ATOM     32  C   LIG    1        1.244  -0.677   0.044  0.00  0.00    -0.070 A 
ENDBRANCH  21  23
ENDBRANCH  10  21
TORSDOF 3
