REMARK  Name = ZINCkj000005eDAR.0
REMARK                            x       y       z     vdW  Elec       q    Type
REMARK                         _______ _______ _______ _____ _____    ______ ____
ROOT
ATOM      1  N   LIG    1       -0.603   1.524   1.114  0.00  0.00    -0.380 N 
ATOM      2  H   LIG    1       -1.520   1.103   1.135  0.00  0.00    +0.420 HD
ENDROOT
BRANCH   1   3
ATOM      3  C   LIG    1       -0.730   2.983   1.230  0.00  0.00    +0.290 C 
BRANCH   3   5
ATOM      4  C   LIG    1       -2.713   4.201   0.492  0.00  0.00    +0.130 C 
ATOM      5  C   LIG    1       -1.662   3.492   0.162  0.00  0.00    -0.110 C 
ENDBRANCH   3   5
ENDBRANCH   1   3
BRANCH   1   6
ATOM      6  C   LIG    1        0.060   1.190  -0.153  0.00  0.00    +0.260 C 
BRANCH   6   7
ATOM      7  C   LIG    1        0.064  -0.329  -0.342  0.00  0.00    +0.090 C 
BRANCH   7   8
ATOM      8  C   LIG    1        0.626  -0.665  -1.699  0.00  0.00    -0.110 A 
ATOM      9  C   LIG    1       -0.217  -0.769  -2.790  0.00  0.00    +0.010 A 
ATOM     10  C   LIG    1        0.299  -1.072  -4.036  0.00  0.00    +0.020 A 
ATOM     11  C   LIG    1        1.656  -1.282  -4.189  0.00  0.00    +0.030 A 
ATOM     12  C   LIG    1        2.499  -1.184  -3.098  0.00  0.00    +0.020 A 
ATOM     13  C   LIG    1        1.983  -0.875  -1.853  0.00  0.00    +0.020 A 
ENDBRANCH   7   8
ENDBRANCH   6   7
ENDBRANCH   1   6
BRANCH   1  14
ATOM     14  C   LIG    1        0.196   1.011   2.236  0.00  0.00    +0.290 C 
BRANCH  14  15
ATOM     15  C   LIG    1       -0.554   1.249   3.547  0.00  0.00    +0.080 C 
BRANCH  15  16
ATOM     16  C   LIG    1        0.265   0.723   4.697  0.00  0.00    +0.530 C 
ATOM     17  N   LIG    1       -0.200   0.824   5.958  0.00  0.00    -0.690 N 
ATOM     18  H   LIG    1       -1.062   1.236   6.125  0.00  0.00    +0.410 HD
ATOM     19  C   LIG    1        0.533   0.354   6.987  0.00  0.00    +0.700 C 
ATOM     20  O   LIG    1        1.614  -0.161   6.777  0.00  0.00    -0.530 OA
ATOM     21  N   LIG    1        0.068   0.455   8.248  0.00  0.00    -0.850 N 
ATOM     22  H   LIG    1        0.596   0.117   8.988  0.00  0.00    +0.430 HD
ATOM     23  H   LIG    1       -0.794   0.867   8.415  0.00  0.00    +0.400 HD
ATOM     24  O   LIG    1        1.343   0.209   4.489  0.00  0.00    -0.460 OA
ENDBRANCH  15  16
ENDBRANCH  14  15
ENDBRANCH   1  14
TORSDOF 8
