REMARK  Name = ZINCkj000005eDAR.1
REMARK                            x       y       z     vdW  Elec       q    Type
REMARK                         _______ _______ _______ _____ _____    ______ ____
ROOT
ATOM      1  N   LIG    1       -2.099   1.245  -1.141  0.00  0.00    -0.380 N 
ATOM      2  H   LIG    1       -1.488   1.256  -1.944  0.00  0.00    +0.420 HD
ENDROOT
BRANCH   1   3
ATOM      3  C   LIG    1       -1.419   1.867   0.002  0.00  0.00    +0.290 C 
BRANCH   3   5
ATOM      4  C   LIG    1       -1.845   1.228   2.320  0.00  0.00    +0.120 C 
ATOM      5  C   LIG    1       -2.300   1.778   1.221  0.00  0.00    -0.090 C 
ENDBRANCH   3   5
ENDBRANCH   1   3
BRANCH   1   6
ATOM      6  C   LIG    1       -3.325   1.994  -1.449  0.00  0.00    +0.250 C 
BRANCH   6   7
ATOM      7  C   LIG    1       -2.958   3.404  -1.915  0.00  0.00    +0.090 C 
BRANCH   7   8
ATOM      8  C   LIG    1       -4.215   4.172  -2.231  0.00  0.00    -0.110 A 
ATOM      9  C   LIG    1       -4.741   4.142  -3.509  0.00  0.00    +0.010 A 
ATOM     10  C   LIG    1       -5.897   4.843  -3.797  0.00  0.00    +0.020 A 
ATOM     11  C   LIG    1       -6.521   5.583  -2.810  0.00  0.00    +0.030 A 
ATOM     12  C   LIG    1       -5.992   5.617  -1.533  0.00  0.00    +0.020 A 
ATOM     13  C   LIG    1       -4.839   4.912  -1.244  0.00  0.00    +0.010 A 
ENDBRANCH   7   8
ENDBRANCH   6   7
ENDBRANCH   1   6
BRANCH   1  14
ATOM     14  C   LIG    1       -2.445  -0.144  -0.808  0.00  0.00    +0.280 C 
BRANCH  14  15
ATOM     15  C   LIG    1       -1.163  -0.957  -0.618  0.00  0.00    +0.080 C 
BRANCH  15  16
ATOM     16  C   LIG    1       -1.515  -2.361  -0.198  0.00  0.00    +0.530 C 
ATOM     17  N   LIG    1       -0.539  -3.261   0.028  0.00  0.00    -0.690 N 
ATOM     18  H   LIG    1        0.391  -3.006  -0.079  0.00  0.00    +0.410 HD
ATOM     19  C   LIG    1       -0.854  -4.517   0.404  0.00  0.00    +0.700 C 
ATOM     20  O   LIG    1       -2.019  -4.837   0.538  0.00  0.00    -0.530 OA
ATOM     21  N   LIG    1        0.122  -5.418   0.630  0.00  0.00    -0.850 N 
ATOM     22  H   LIG    1       -0.105  -6.321   0.901  0.00  0.00    +0.430 HD
ATOM     23  H   LIG    1        1.052  -5.163   0.523  0.00  0.00    +0.400 HD
ATOM     24  O   LIG    1       -2.677  -2.679  -0.064  0.00  0.00    -0.450 OA
ENDBRANCH  15  16
ENDBRANCH  14  15
ENDBRANCH   1  14
TORSDOF 8
