REMARK  Name = ZINCrg000000qZPE.0
REMARK                            x       y       z     vdW  Elec       q    Type
REMARK                         _______ _______ _______ _____ _____    ______ ____
ROOT
ATOM      1  C   LIG    1       -0.723   1.322  -1.710  0.00  0.00    +0.180 C 
ATOM      2  C   LIG    1       -0.235   0.326  -2.764  0.00  0.00    +0.020 C 
ENDROOT
BRANCH   1   3
ATOM      3  N   LIG    1        0.067   1.162  -0.482  0.00  0.00    -0.510 NA
ATOM      4  C   LIG    1        1.415   1.720  -0.647  0.00  0.00    +0.170 C 
ATOM      5  C   LIG    1        2.142   1.698   0.702  0.00  0.00    +0.280 C 
ATOM      6  N   LIG    1        2.097   0.329   1.235  0.00  0.00    -0.630 N 
ATOM      7  C   LIG    1        0.793  -0.349   1.303  0.00  0.00    +0.320 C 
ATOM      8  C   LIG    1        3.220  -0.290   1.651  0.00  0.00    +0.720 C 
ATOM      9  N   LIG    1        4.336   0.428   1.886  0.00  0.00    -0.640 N 
ATOM     10  C   LIG    1        4.282   1.893   2.016  0.00  0.00    +0.240 C 
ATOM     11  C   LIG    1        5.016   2.286   3.308  0.00  0.00    +0.220 C 
ATOM     12  O   LIG    1        6.318   1.697   3.306  0.00  0.00    -0.380 OA
ATOM     13  C   LIG    1        6.314   0.268   3.300  0.00  0.00    +0.220 C 
ATOM     14  C   LIG    1        5.646  -0.230   2.013  0.00  0.00    +0.270 C 
ATOM     15  O   LIG    1        3.226  -1.494   1.815  0.00  0.00    -0.580 OA
ATOM     16  C   LIG    1        0.119  -0.247  -0.070  0.00  0.00    +0.180 C 
ENDBRANCH   1   3
BRANCH   1  19
ATOM     17  N   LIG    1       -3.107   1.251  -2.367  0.00  0.00    -0.670 N 
ATOM     18  H   LIG    1       -2.834   1.465  -3.273  0.00  0.00    +0.410 HD
ATOM     19  C   LIG    1       -2.177   1.063  -1.410  0.00  0.00    +0.520 C 
ATOM     20  O   LIG    1       -2.511   0.686  -0.306  0.00  0.00    -0.500 OA
BRANCH  17  26
ATOM     21  C   LIG    1       -5.364   0.650  -3.004  0.00  0.00    +0.100 A 
ATOM     22  C   LIG    1       -6.708   0.532  -2.688  0.00  0.00    -0.060 A 
ATOM     23  C   LIG    1       -7.158   0.908  -1.435  0.00  0.00    +0.040 A 
ATOM     24  C   LIG    1       -6.271   1.395  -0.494  0.00  0.00    -0.010 A 
ATOM     25  C   LIG    1       -4.927   1.510  -0.801  0.00  0.00    +0.060 A 
ATOM     26  C   LIG    1       -4.468   1.135  -2.055  0.00  0.00    +0.120 A 
BRANCH  21  28
ATOM     27  C   LIG    1       -5.896  -0.202  -5.160  0.00  0.00    +0.250 C 
ATOM     28  O   LIG    1       -4.921   0.287  -4.237  0.00  0.00    -0.320 OA
ENDBRANCH  21  28
ENDBRANCH  17  26
ENDBRANCH   1  19
TORSDOF 4
