REMARK  Name = ZINCrg00000cg1uq.1
REMARK                            x       y       z     vdW  Elec       q    Type
REMARK                         _______ _______ _______ _____ _____    ______ ____
ROOT
ATOM      1  C   LIG    1       -2.406  10.727   0.082  0.00  0.00    +0.460 C 
ENDROOT
BRANCH   1  10
ATOM      2  O   LIG    1       -0.708  12.147  -1.425  0.00  0.00    -0.540 OA
ATOM      3  C   LIG    1       -1.802  11.958  -1.920  0.00  0.00    +0.710 C 
ATOM      4  N   LIG    1       -2.106  12.558  -3.081  0.00  0.00    -0.730 N 
ATOM      5  H   LIG    1       -1.425  13.065  -3.551  0.00  0.00    +0.430 HD
ATOM      6  C   LIG    1       -3.453  12.462  -3.646  0.00  0.00    +0.300 C 
ATOM      7  C   LIG    1       -4.030  11.074  -3.360  0.00  0.00    +0.010 C 
ATOM      8  C   LIG    1       -3.792  10.728  -1.911  0.00  0.00    +0.520 C 
ATOM      9  O   LIG    1       -4.609  10.070  -1.303  0.00  0.00    -0.470 OA
ATOM     10  N   LIG    1       -2.674  11.150  -1.294  0.00  0.00    -0.570 N 
BRANCH   7  11
ATOM     11  C   LIG    1       -3.342  10.040  -4.253  0.00  0.00    -0.020 C 
ATOM     12  C   LIG    1       -3.566  10.365  -5.749  0.00  0.00    +0.020 C 
ATOM     13  C   LIG    1       -3.827   8.993  -6.399  0.00  0.00    +0.200 C 
ATOM     14  O   LIG    1       -3.706   8.001  -5.366  0.00  0.00    -0.370 OA
ATOM     15  C   LIG    1       -4.020   8.653  -4.117  0.00  0.00    +0.210 C 
ENDBRANCH   7  11
ENDBRANCH   1  10
BRANCH   1  16
ATOM     16  C   LIG    1       -1.616   9.444   0.069  0.00  0.00    +0.200 A 
ATOM     17  N   LIG    1       -0.312   9.354   0.057  0.00  0.00    -0.270 NA
ATOM     18  N   LIG    1        0.000   7.985   0.046  0.00  0.00    -0.460 N 
ATOM     19  H   LIG    1        0.886   7.591   0.036  0.00  0.00    +0.450 HD
ATOM     20  C   LIG    1       -1.173   7.329   0.054  0.00  0.00    +0.280 A 
ATOM     21  N   LIG    1       -2.135   8.216   0.062  0.00  0.00    -0.510 NA
BRANCH  20  22
ATOM     22  C   LIG    1       -1.350   5.832   0.047  0.00  0.00    +0.350 C 
BRANCH  22  23
ATOM     23  O   LIG    1       -0.069   5.201   0.031  0.00  0.00    -0.320 OA
BRANCH  23  24
ATOM     24  C   LIG    1       -0.050   3.842   0.023  0.00  0.00    +0.130 A 
ATOM     25  C   LIG    1        1.160   3.163   0.008  0.00  0.00    -0.020 A 
ATOM     26  C   LIG    1        1.176   1.782   0.000  0.00  0.00    +0.050 A 
ATOM     27  C   LIG    1       -0.013   1.076   0.008  0.00  0.00    -0.020 A 
ATOM     28  C   LIG    1       -1.220   1.750   0.017  0.00  0.00    +0.050 A 
ATOM     29  C   LIG    1       -1.241   3.131   0.031  0.00  0.00    -0.080 A 
ENDBRANCH  23  24
ENDBRANCH  22  23
ENDBRANCH  20  22
ENDBRANCH   1  16
TORSDOF 6
