REMARK  Name = ZINCrg00000cg1uq.2
REMARK                            x       y       z     vdW  Elec       q    Type
REMARK                         _______ _______ _______ _____ _____    ______ ____
ROOT
ATOM      1  C   LIG    1        0.871  -5.249  -0.035  0.00  0.00    +0.460 C 
ENDROOT
BRANCH   1  10
ATOM      2  O   LIG    1        2.629  -4.119   1.640  0.00  0.00    -0.560 OA
ATOM      3  C   LIG    1        2.106  -5.136   2.052  0.00  0.00    +0.710 C 
ATOM      4  N   LIG    1        2.525  -5.663   3.213  0.00  0.00    -0.720 N 
ATOM      5  H   LIG    1        3.178  -5.185   3.748  0.00  0.00    +0.430 HD
ATOM      6  C   LIG    1        2.014  -6.953   3.681  0.00  0.00    +0.300 C 
ATOM      7  C   LIG    1        0.537  -7.086   3.301  0.00  0.00    +0.020 C 
ATOM      8  C   LIG    1        0.358  -6.681   1.859  0.00  0.00    +0.520 C 
ATOM      9  O   LIG    1       -0.470  -7.238   1.171  0.00  0.00    -0.460 OA
ATOM     10  N   LIG    1        1.119  -5.702   1.337  0.00  0.00    -0.570 N 
BRANCH   7  11
ATOM     11  C   LIG    1       -0.305  -6.176   4.196  0.00  0.00    -0.020 C 
ATOM     12  C   LIG    1       -0.145  -6.564   5.686  0.00  0.00    +0.010 C 
ATOM     13  C   LIG    1       -1.570  -6.450   6.261  0.00  0.00    +0.190 C 
ATOM     14  O   LIG    1       -2.424  -5.992   5.200  0.00  0.00    -0.370 OA
ATOM     15  C   LIG    1       -1.819  -6.414   3.959  0.00  0.00    +0.220 C 
ENDBRANCH   7  11
ENDBRANCH   1  10
BRANCH   1  16
ATOM     16  C   LIG    1       -0.130  -4.123  -0.019  0.00  0.00    +0.150 A 
ATOM     17  N   LIG    1       -1.430  -4.244  -0.007  0.00  0.00    -0.260 NA
ATOM     18  N   LIG    1       -1.973  -3.079   0.010  0.00  0.00    -0.280 NA
ATOM     19  C   LIG    1       -1.044  -2.161   0.000  0.00  0.00    +0.180 A 
ATOM     20  N   LIG    1        0.151  -2.798  -0.014  0.00  0.00    -0.550 N 
ATOM     21  H   LIG    1        1.030  -2.389  -0.021  0.00  0.00    +0.440 HD
BRANCH  19  22
ATOM     22  C   LIG    1       -1.262  -0.670   0.011  0.00  0.00    +0.350 C 
BRANCH  22  23
ATOM     23  O   LIG    1        0.002  -0.004   0.002  0.00  0.00    -0.320 OA
BRANCH  23  24
ATOM     24  C   LIG    1       -0.016   1.355   0.009  0.00  0.00    +0.130 A 
ATOM     25  C   LIG    1       -1.226   2.033   0.019  0.00  0.00    -0.080 A 
ATOM     26  C   LIG    1       -1.242   3.414   0.031  0.00  0.00    +0.050 A 
ATOM     27  C   LIG    1       -0.054   4.121   0.024  0.00  0.00    -0.020 A 
ATOM     28  C   LIG    1        1.153   3.447   0.009  0.00  0.00    +0.050 A 
ATOM     29  C   LIG    1        1.175   2.066   0.002  0.00  0.00    -0.020 A 
ENDBRANCH  23  24
ENDBRANCH  22  23
ENDBRANCH  19  22
ENDBRANCH   1  16
TORSDOF 6
