REMARK  Name = ZINCrg00000cg1uq.0
REMARK                            x       y       z     vdW  Elec       q    Type
REMARK                         _______ _______ _______ _____ _____    ______ ____
ROOT
ATOM      1  C   LIG    1       -3.863  -0.654   1.521  0.00  0.00    +0.450 C 
ENDROOT
BRANCH   1  10
ATOM      2  O   LIG    1       -1.803  -2.001   2.578  0.00  0.00    -0.560 OA
ATOM      3  C   LIG    1       -1.578  -0.835   2.318  0.00  0.00    +0.710 C 
ATOM      4  N   LIG    1       -0.404  -0.297   2.687  0.00  0.00    -0.720 N 
ATOM      5  H   LIG    1        0.279  -0.862   3.079  0.00  0.00    +0.430 HD
ATOM      6  C   LIG    1       -0.140   1.133   2.504  0.00  0.00    +0.300 C 
ATOM      7  C   LIG    1       -0.801   1.612   1.209  0.00  0.00    +0.020 C 
ATOM      8  C   LIG    1       -2.215   1.091   1.152  0.00  0.00    +0.520 C 
ATOM      9  O   LIG    1       -3.087   1.760   0.639  0.00  0.00    -0.460 OA
ATOM     10  N   LIG    1       -2.508  -0.116   1.669  0.00  0.00    -0.570 N 
BRANCH   7  11
ATOM     11  C   LIG    1       -0.013   1.086   0.008  0.00  0.00    -0.020 C 
ATOM     12  C   LIG    1        1.426   1.658  -0.003  0.00  0.00    +0.010 C 
ATOM     13  C   LIG    1        1.692   1.982  -1.485  0.00  0.00    +0.190 C 
ATOM     14  O   LIG    1        0.529   1.578  -2.227  0.00  0.00    -0.370 OA
ATOM     15  C   LIG    1       -0.592   1.638  -1.319  0.00  0.00    +0.220 C 
ENDBRANCH   7  11
ENDBRANCH   1  10
BRANCH   1  16
ATOM     16  C   LIG    1       -3.950  -1.454   0.247  0.00  0.00    +0.260 A 
ATOM     17  N   LIG    1       -4.192  -0.975  -0.946  0.00  0.00    -0.500 NA
ATOM     18  C   LIG    1       -4.197  -1.965  -1.838  0.00  0.00    +0.220 A 
ATOM     19  N   LIG    1       -3.955  -3.092  -1.222  0.00  0.00    -0.280 NA
ATOM     20  N   LIG    1       -3.785  -2.784   0.137  0.00  0.00    -0.450 N 
ATOM     21  H   LIG    1       -3.590  -3.407   0.855  0.00  0.00    +0.450 HD
BRANCH  18  22
ATOM     22  C   LIG    1       -4.439  -1.810  -3.317  0.00  0.00    +0.350 C 
BRANCH  22  23
ATOM     23  O   LIG    1       -3.195  -1.587  -3.983  0.00  0.00    -0.310 OA
BRANCH  23  24
ATOM     24  C   LIG    1       -3.237  -1.425  -5.332  0.00  0.00    +0.130 A 
ATOM     25  C   LIG    1       -4.451  -1.485  -6.001  0.00  0.00    -0.080 A 
ATOM     26  C   LIG    1       -4.492  -1.315  -7.372  0.00  0.00    +0.050 A 
ATOM     27  C   LIG    1       -3.324  -1.096  -8.077  0.00  0.00    -0.040 A 
ATOM     28  C   LIG    1       -2.112  -1.041  -7.413  0.00  0.00    +0.050 A 
ATOM     29  C   LIG    1       -2.066  -1.206  -6.043  0.00  0.00    -0.020 A 
ENDBRANCH  23  24
ENDBRANCH  22  23
ENDBRANCH  18  22
ENDBRANCH   1  16
TORSDOF 6
