REMARK  Name = ZINCvU0000000I0M.0
REMARK                            x       y       z     vdW  Elec       q    Type
REMARK                         _______ _______ _______ _____ _____    ______ ____
ROOT
ATOM      1  N   LIG    1        7.948   7.985  -1.940  0.00  0.00    -0.670 N 
ATOM      2  H   LIG    1        8.270   7.253  -1.390  0.00  0.00    +0.410 HD
ATOM      3  C   LIG    1        6.670   8.397  -1.831  0.00  0.00    +0.520 C 
ATOM      4  O   LIG    1        6.243   9.254  -2.577  0.00  0.00    -0.510 OA
ENDROOT
BRANCH   3   5
ATOM      5  C   LIG    1        5.770   7.795  -0.783  0.00  0.00    +0.000 C 
ATOM      6  C   LIG    1        4.383   8.434  -0.873  0.00  0.00    +0.060 C 
ATOM      7  C   LIG    1        3.481   7.844   0.216  0.00  0.00    +0.280 C 
ATOM      8  N   LIG    1        3.481   6.380   0.087  0.00  0.00    -0.610 N 
ATOM      9  C   LIG    1        4.768   5.672   0.077  0.00  0.00    +0.280 C 
ATOM     10  C   LIG    1        2.321   5.700  -0.013  0.00  0.00    +0.550 C 
ATOM     11  O   LIG    1        1.268   6.303  -0.094  0.00  0.00    -0.540 OA
ATOM     12  C   LIG    1        5.655   6.287  -1.016  0.00  0.00    +0.030 C 
BRANCH  10  13
ATOM     13  C   LIG    1        2.330   4.236  -0.024  0.00  0.00    -0.090 C 
ATOM     14  C   LIG    1        1.167   3.555  -0.023  0.00  0.00    +0.130 C 
BRANCH  14  15
ATOM     15  C   LIG    1        1.176   2.083  -0.034  0.00  0.00    -0.080 A 
ATOM     16  C   LIG    1       -0.029   1.373  -0.033  0.00  0.00    +0.040 A 
ATOM     17  C   LIG    1       -0.012  -0.006  -0.044  0.00  0.00    +0.010 A 
ATOM     18  C   LIG    1        1.192  -0.687  -0.056  0.00  0.00    +0.020 A 
ATOM     19  C   LIG    1        2.389   0.009  -0.057  0.00  0.00    +0.010 A 
ATOM     20  C   LIG    1        2.389   1.387  -0.046  0.00  0.00    +0.030 A 
ENDBRANCH  14  15
ENDBRANCH  10  13
ENDBRANCH   3   5
BRANCH   1  25
ATOM     21  C   LIG    1        9.187   9.695  -4.960  0.00  0.00    -0.010 A 
ATOM     22  C   LIG    1       10.534   9.850  -4.635  0.00  0.00    +0.010 A 
ATOM     23  C   LIG    1       11.010   9.388  -3.424  0.00  0.00    +0.030 A 
ATOM     24  C   LIG    1       10.155   8.770  -2.531  0.00  0.00    -0.010 A 
ATOM     25  C   LIG    1        8.811   8.611  -2.847  0.00  0.00    +0.140 A 
ATOM     26  C   LIG    1        8.326   9.068  -4.063  0.00  0.00    +0.060 A 
BRANCH  21  30
ATOM     27  C   LIG    1        5.664  10.673  -8.292  0.00  0.00    +0.180 C 
ATOM     28  C   LIG    1        7.068  10.623  -7.746  0.00  0.00    +0.050 A 
ATOM     29  N   LIG    1        7.390  10.162  -6.587  0.00  0.00    -0.460 NA
ATOM     30  C   LIG    1        8.674  10.192  -6.260  0.00  0.00    +0.110 A 
ATOM     31  C   LIG    1        9.472  10.718  -7.211  0.00  0.00    -0.070 A 
ATOM     32  S   LIG    1        8.457  11.172  -8.578  0.00  0.00    +0.130 S 
ENDBRANCH  21  30
ENDBRANCH   1  25
TORSDOF 5
