REMARK  Name = ZINCqH0000000rn9.0
REMARK                            x       y       z     vdW  Elec       q    Type
REMARK                         _______ _______ _______ _____ _____    ______ ____
ROOT
ATOM      1  C   LIG    1       -0.008   1.179   0.538  0.00  0.00    +0.090 C 
ENDROOT
BRANCH   1   2
ATOM      2  C   LIG    1       -0.474   1.636  -0.820  0.00  0.00    +0.510 C 
ATOM      3  N   LIG    1        0.220   1.289  -1.922  0.00  0.00    -0.660 N 
ATOM      4  H   LIG    1        1.051   0.796  -1.837  0.00  0.00    +0.420 HD
ATOM      5  O   LIG    1       -1.472   2.317  -0.921  0.00  0.00    -0.510 OA
BRANCH   3   6
ATOM      6  C   LIG    1       -0.258   1.638  -3.188  0.00  0.00    +0.160 A 
ATOM      7  C   LIG    1       -0.930   2.826  -3.372  0.00  0.00    +0.040 A 
ATOM      8  C   LIG    1       -1.408   3.189  -4.628  0.00  0.00    +0.040 A 
ATOM      9  C   LIG    1       -1.233   2.375  -5.705  0.00  0.00    +0.020 A 
ATOM     10  C   LIG    1       -0.558   1.153  -5.558  0.00  0.00    -0.090 A 
ATOM     11  C   LIG    1       -0.361   0.289  -6.652  0.00  0.00    +0.080 A 
ATOM     12  C   LIG    1        0.304  -0.884  -6.435  0.00  0.00    -0.030 A 
ATOM     13  C   LIG    1        0.766  -1.196  -5.159  0.00  0.00    +0.290 A 
ATOM     14  N   LIG    1        0.580  -0.389  -4.142  0.00  0.00    -0.480 NA
ATOM     15  C   LIG    1       -0.062   0.773  -4.286  0.00  0.00    +0.110 A 
ENDBRANCH   3   6
ENDBRANCH   1   2
BRANCH   1  16
ATOM     16  C   LIG    1       -0.965   1.706   1.609  0.00  0.00    +0.310 C 
BRANCH  16  17
ATOM     17  C   LIG    1       -0.434   1.353   2.975  0.00  0.00    -0.110 A 
ATOM     18  C   LIG    1       -0.705   0.114   3.523  0.00  0.00    +0.020 A 
ATOM     19  C   LIG    1       -0.214  -0.212   4.774  0.00  0.00    +0.000 A 
ATOM     20  C   LIG    1        0.540   0.707   5.480  0.00  0.00    -0.080 A 
ATOM     21  C   LIG    1        0.807   1.948   4.934  0.00  0.00    +0.000 A 
ATOM     22  C   LIG    1        1.072   0.353   6.845  0.00  0.00    +0.090 C 
ATOM     23  C   LIG    1        0.319   2.272   3.682  0.00  0.00    +0.020 A 
ENDBRANCH  16  17
BRANCH  16  26
ATOM     24  C   LIG    1       -4.742   1.104   1.713  0.00  0.00    +0.100 C 
ATOM     25  C   LIG    1       -3.394   1.771   1.795  0.00  0.00    +0.520 C 
ATOM     26  N   LIG    1       -2.285   1.098   1.427  0.00  0.00    -0.720 N 
ATOM     27  H   LIG    1       -2.362   0.211   1.042  0.00  0.00    +0.400 HD
ATOM     28  O   LIG    1       -3.306   2.914   2.191  0.00  0.00    -0.540 OA
ENDBRANCH  16  26
ENDBRANCH   1  16
TORSDOF 5
