REMARK  Name = ZINCrH000004rRTt.0
REMARK                            x       y       z     vdW  Elec       q    Type
REMARK                         _______ _______ _______ _____ _____    ______ ____
ROOT
ATOM      1  N   LIG    1        2.290   1.697   4.120  0.00  0.00    -0.690 N 
ATOM      2  H   LIG    1        2.683   2.474   4.547  0.00  0.00    +0.400 HD
ATOM      3  C   LIG    1        1.003   1.726   3.722  0.00  0.00    +0.710 C 
ATOM      4  N   LIG    1        0.288   2.863   3.835  0.00  0.00    -0.600 N 
ATOM      5  O   LIG    1        0.486   0.727   3.260  0.00  0.00    -0.570 OA
ENDROOT
BRANCH   1  11
ATOM      6  C   LIG    1        6.622  -0.368   3.052  0.00  0.00    +0.100 C 
ATOM      7  C   LIG    1        5.161  -0.485   3.401  0.00  0.00    -0.070 A 
ATOM      8  C   LIG    1        4.578  -1.733   3.523  0.00  0.00    -0.020 A 
ATOM      9  C   LIG    1        3.237  -1.845   3.843  0.00  0.00    +0.020 A 
ATOM     10  C   LIG    1        2.477  -0.710   4.047  0.00  0.00    +0.020 A 
ATOM     11  C   LIG    1        3.058   0.545   3.919  0.00  0.00    +0.170 A 
ATOM     12  C   LIG    1        4.405   0.654   3.598  0.00  0.00    -0.030 A 
ENDBRANCH   1  11
BRANCH   4  13
ATOM     13  C   LIG    1       -1.140   2.866   3.508  0.00  0.00    +0.260 C 
ATOM     14  C   LIG    1       -1.952   3.146   4.774  0.00  0.00    +0.030 C 
BRANCH  13  15
ATOM     15  C   LIG    1       -1.423   3.954   2.470  0.00  0.00    +0.170 C 
BRANCH  15  16
ATOM     16  N   LIG    1       -0.578   3.736   1.289  0.00  0.00    -0.530 NA
ATOM     17  C   LIG    1       -0.730   2.367   0.777  0.00  0.00    +0.150 C 
ATOM     18  C   LIG    1        0.210   2.165  -0.414  0.00  0.00    +0.230 C 
ATOM     19  O   LIG    1       -0.072   3.151  -1.411  0.00  0.00    -0.390 OA
ATOM     20  C   LIG    1        0.068   4.496  -0.946  0.00  0.00    +0.220 C 
ATOM     21  C   LIG    1       -0.875   4.722   0.239  0.00  0.00    +0.140 C 
ENDBRANCH  15  16
ENDBRANCH  13  15
ENDBRANCH   4  13
BRANCH   4  22
ATOM     22  C   LIG    1        0.939   4.096   4.284  0.00  0.00    +0.330 C 
BRANCH  22  23
ATOM     23  C   LIG    1        0.820   4.209   5.782  0.00  0.00    -0.110 A 
ATOM     24  C   LIG    1       -0.177   4.987   6.340  0.00  0.00    +0.020 A 
ATOM     25  C   LIG    1       -0.289   5.088   7.714  0.00  0.00    +0.000 A 
ATOM     26  C   LIG    1        0.603   4.418   8.531  0.00  0.00    +0.010 A 
ATOM     27  C   LIG    1        1.603   3.644   7.973  0.00  0.00    +0.000 A 
ATOM     28  C   LIG    1        1.712   3.540   6.599  0.00  0.00    +0.000 A 
ENDBRANCH  22  23
ENDBRANCH   4  22
TORSDOF 6
