REMARK  Name = ZINCvU0000000E3u.0
REMARK                            x       y       z     vdW  Elec       q    Type
REMARK                         _______ _______ _______ _____ _____    ______ ____
ROOT
ATOM      1  C   LIG    1       -1.895   4.221  -0.410  0.00  0.00    -0.030 C 
ATOM      2  C   LIG    1       -0.700   3.816  -0.771  0.00  0.00    -0.040 C 
ATOM      3  C   LIG    1        0.025   2.679  -0.107  0.00  0.00    +0.300 C 
ATOM      4  N   LIG    1       -0.685   2.308   1.126  0.00  0.00    -0.610 N 
ATOM      5  C   LIG    1       -2.156   2.231   1.061  0.00  0.00    +0.300 C 
ATOM      6  C   LIG    1       -0.018   2.050   2.268  0.00  0.00    +0.610 C 
ATOM      7  O   LIG    1       -0.632   1.846   3.299  0.00  0.00    -0.520 OA
ATOM      8  C   LIG    1       -2.687   3.624   0.714  0.00  0.00    +0.080 C 
ENDROOT
BRANCH   1  12
ATOM      9  C   LIG    1       -3.638   7.443  -2.574  0.00  0.00    +0.210 A 
ATOM     10  C   LIG    1       -3.851   6.136  -2.989  0.00  0.00    -0.140 A 
ATOM     11  C   LIG    1       -3.287   5.083  -2.290  0.00  0.00    +0.220 A 
ATOM     12  C   LIG    1       -2.499   5.339  -1.161  0.00  0.00    -0.170 A 
ATOM     13  C   LIG    1       -2.292   6.660  -0.744  0.00  0.00    +0.220 A 
ATOM     14  C   LIG    1       -2.857   7.704  -1.456  0.00  0.00    -0.190 A 
BRANCH   9  16
ATOM     15  C   LIG    1       -3.934   9.792  -2.783  0.00  0.00    +0.250 C 
ATOM     16  O   LIG    1       -4.194   8.472  -3.265  0.00  0.00    -0.310 OA
ENDBRANCH   9  16
BRANCH  13  17
ATOM     17  O   LIG    1       -1.533   6.916   0.353  0.00  0.00    -0.300 OA
ATOM     18  C   LIG    1       -1.365   8.287   0.719  0.00  0.00    +0.250 C 
ENDBRANCH  13  17
BRANCH  11  19
ATOM     19  O   LIG    1       -3.498   3.805  -2.698  0.00  0.00    -0.300 OA
ATOM     20  C   LIG    1       -4.312   3.620  -3.857  0.00  0.00    +0.240 C 
ENDBRANCH  11  19
ENDBRANCH   1  12
BRANCH   6  21
ATOM     21  C   LIG    1        1.446   2.014   2.269  0.00  0.00    -0.310 A 
ATOM     22  C   LIG    1        2.260   2.385   3.304  0.00  0.00    +0.160 A 
ATOM     23  N   LIG    1        3.536   2.257   3.050  0.00  0.00    -0.470 NA
ATOM     24  C   LIG    1        3.868   1.806   1.872  0.00  0.00    +0.110 A 
ATOM     25  C   LIG    1        1.734   2.893   4.622  0.00  0.00    +0.170 C 
ATOM     26  S   LIG    1        2.472   1.480   0.941  0.00  0.00    +0.200 S 
BRANCH  24  27
ATOM     27  C   LIG    1        5.254   1.598   1.411  0.00  0.00    -0.050 A 
ATOM     28  C   LIG    1        5.564   1.123   0.188  0.00  0.00    -0.060 A 
ATOM     29  S   LIG    1        7.253   1.012  -0.013  0.00  0.00    +0.200 S 
ATOM     30  C   LIG    1        7.558   1.616   1.607  0.00  0.00    -0.060 A 
ATOM     31  C   LIG    1        6.411   1.877   2.227  0.00  0.00    +0.070 A 
ENDBRANCH  24  27
ENDBRANCH   6  21
TORSDOF 6
