REMARK  Name = ZINCpk00000kGrZ6.0
REMARK                            x       y       z     vdW  Elec       q    Type
REMARK                         _______ _______ _______ _____ _____    ______ ____
ROOT
ATOM      1  C   LIG    1        1.112   2.020   0.002  0.00  0.00    +0.430 A 
ATOM      2  C   LIG    1        2.334   1.327  -0.013  0.00  0.00    -0.070 A 
ATOM      3  N   LIG    1        3.638   1.694  -0.024  0.00  0.00    -0.460 NA
ATOM      4  C   LIG    1        4.387   0.630  -0.036  0.00  0.00    +0.480 A 
ATOM      5  N   LIG    1        3.608  -0.489  -0.035  0.00  0.00    -0.470 N 
ATOM      6  C   LIG    1        2.299  -0.078  -0.020  0.00  0.00    +0.300 A 
ATOM      7  N   LIG    1        1.122  -0.696  -0.012  0.00  0.00    -0.530 NA
ATOM      8  C   LIG    1        0.002  -0.004   0.002  0.00  0.00    +0.540 A 
ATOM      9  N   LIG    1       -0.016   1.316   0.009  0.00  0.00    -0.570 NA
ENDROOT
BRANCH   1  10
ATOM     10  N   LIG    1        1.083   3.404   0.011  0.00  0.00    -0.460 N 
ATOM     11  C   LIG    1        1.849   3.939   1.144  0.00  0.00    +0.250 C 
BRANCH  10  12
ATOM     12  C   LIG    1       -0.299   3.901   0.027  0.00  0.00    +0.260 C 
BRANCH  12  18
ATOM     13  C   LIG    1       -0.132   8.575   1.807  0.00  0.00    +0.090 C 
ATOM     14  C   LIG    1       -0.220   7.625   0.640  0.00  0.00    -0.080 A 
ATOM     15  C   LIG    1       -0.302   8.119  -0.649  0.00  0.00    +0.000 A 
ATOM     16  C   LIG    1       -0.384   7.248  -1.719  0.00  0.00    -0.080 A 
ATOM     17  C   LIG    1       -0.383   5.883  -1.500  0.00  0.00    +0.020 A 
ATOM     18  C   LIG    1       -0.300   5.389  -0.211  0.00  0.00    -0.080 A 
ATOM     19  C   LIG    1       -0.474   7.786  -3.123  0.00  0.00    +0.090 C 
ATOM     20  C   LIG    1       -0.224   6.261   0.859  0.00  0.00    +0.000 A 
ENDBRANCH  12  18
ENDBRANCH  10  12
ENDBRANCH   1  10
BRANCH   5  21
ATOM     21  C   LIG    1        4.082  -1.875  -0.047  0.00  0.00    +0.290 C 
BRANCH  21  22
ATOM     22  C   LIG    1        4.114  -2.391  -1.486  0.00  0.00    +0.200 C 
BRANCH  22  23
ATOM     23  O   LIG    1        2.783  -2.442  -2.004  0.00  0.00    -0.540 OA
ATOM     24  H   LIG    1        2.190  -3.021  -1.506  0.00  0.00    +0.380 HD
ENDBRANCH  22  23
BRANCH  22  25
ATOM     25  C   LIG    1        4.726  -3.793  -1.512  0.00  0.00    +0.160 C 
BRANCH  25  26
ATOM     26  O   LIG    1        4.863  -4.228  -2.866  0.00  0.00    -0.560 OA
ATOM     27  H   LIG    1        5.245  -5.112  -2.959  0.00  0.00    +0.380 HD
ENDBRANCH  25  26
ENDBRANCH  22  25
ENDBRANCH  21  22
ENDBRANCH   5  21
TORSDOF 8
