REMARK  Name = ZINCrD000001YJmB.0
REMARK                            x       y       z     vdW  Elec       q    Type
REMARK                         _______ _______ _______ _____ _____    ______ ____
ROOT
ATOM      1  C   LIG    1        0.821   0.004  -1.831  0.00  0.00    +0.520 C 
ATOM      2  N   LIG    1        2.107   0.185  -2.189  0.00  0.00    -0.610 N 
ATOM      3  C   LIG    1        2.593  -0.279  -3.496  0.00  0.00    +0.260 C 
ATOM      4  C   LIG    1        3.818  -1.173  -3.278  0.00  0.00    +0.010 C 
ATOM      5  C   LIG    1        4.859  -0.412  -2.455  0.00  0.00    +0.010 C 
ATOM      6  C   LIG    1        4.271  -0.057  -1.087  0.00  0.00    +0.010 C 
ATOM      7  C   LIG    1        3.052   0.849  -1.280  0.00  0.00    +0.230 C 
ATOM      8  O   LIG    1        0.405   0.489  -0.800  0.00  0.00    -0.530 OA
ENDROOT
BRANCH   1  13
ATOM      9  C   LIG    1       -3.879  -1.193  -4.273  0.00  0.00    +0.550 C 
ATOM     10  N   LIG    1       -2.582  -1.359  -3.948  0.00  0.00    -0.610 N 
ATOM     11  C   LIG    1       -2.200  -2.152  -2.772  0.00  0.00    +0.270 C 
ATOM     12  C   LIG    1       -1.284  -1.306  -1.882  0.00  0.00    +0.040 C 
ATOM     13  C   LIG    1       -0.101  -0.801  -2.711  0.00  0.00    -0.010 C 
ATOM     14  C   LIG    1       -0.613   0.080  -3.852  0.00  0.00    +0.030 C 
ATOM     15  C   LIG    1       -1.522  -0.751  -4.764  0.00  0.00    +0.280 C 
ATOM     16  O   LIG    1       -4.180  -0.616  -5.301  0.00  0.00    -0.540 OA
BRANCH   9  18
ATOM     17  C   LIG    1       -6.208  -1.627  -3.748  0.00  0.00    +0.140 C 
ATOM     18  C   LIG    1       -4.932  -1.709  -3.385  0.00  0.00    -0.090 C 
ENDBRANCH   9  18
ENDBRANCH   1  13
BRANCH   7  19
ATOM     19  C   LIG    1        2.376   1.095   0.070  0.00  0.00    +0.130 C 
BRANCH  19  20
ATOM     20  C   LIG    1        3.346   1.778   1.000  0.00  0.00    -0.090 A 
ATOM     21  C   LIG    1        3.391   3.158   1.060  0.00  0.00    +0.020 A 
ATOM     22  C   LIG    1        4.287   3.785   1.910  0.00  0.00    +0.090 A 
ATOM     23  C   LIG    1        5.129   3.029   2.708  0.00  0.00    +0.020 A 
ATOM     24  C   LIG    1        5.084   1.649   2.648  0.00  0.00    +0.030 A 
ATOM     25  F   LIG    1        4.335   5.134   1.964  0.00  0.00    -0.130 F 
ATOM     26  C   LIG    1        4.193   1.022   1.794  0.00  0.00    +0.090 A 
ATOM     27  F   LIG    1        4.149  -0.327   1.735  0.00  0.00    -0.130 F 
ENDBRANCH  19  20
ENDBRANCH   7  19
TORSDOF 4
