REMARK  Name = ZINCrH000004sQqs.0
REMARK                            x       y       z     vdW  Elec       q    Type
REMARK                         _______ _______ _______ _____ _____    ______ ____
ROOT
ATOM      1  C   LIG    1        2.944  -0.606   1.517  0.00  0.00    +0.620 C 
ATOM      2  N   LIG    1        2.735   0.046   0.356  0.00  0.00    -0.630 N 
ATOM      3  C   LIG    1        2.603  -0.370  -1.054  0.00  0.00    +0.280 C 
ATOM      4  C   LIG    1        3.054   1.055  -1.403  0.00  0.00    -0.080 C 
ATOM      5  C   LIG    1        4.565   1.195  -1.573  0.00  0.00    +0.030 C 
ATOM      6  C   LIG    1        4.961   0.657  -2.953  0.00  0.00    +0.210 C 
ATOM      7  O   LIG    1        4.203   1.331  -3.959  0.00  0.00    -0.380 OA
ATOM      8  C   LIG    1        2.792   1.117  -3.878  0.00  0.00    +0.200 C 
ATOM      9  C   LIG    1        2.269   1.683  -2.553  0.00  0.00    +0.030 C 
ATOM     10  C   LIG    1        2.548   1.464  -0.014  0.00  0.00    +0.330 C 
ATOM     11  O   LIG    1        3.011   0.015   2.561  0.00  0.00    -0.520 OA
ENDROOT
BRANCH   1  18
ATOM     12  C   LIG    1        0.605  -2.435   1.831  0.00  0.00    +0.170 C 
ATOM     13  C   LIG    1        2.014  -2.943   1.667  0.00  0.00    +0.150 A 
ATOM     14  N   LIG    1        2.280  -4.211   1.655  0.00  0.00    -0.460 NA
ATOM     15  S   LIG    1        3.953  -4.389   1.453  0.00  0.00    +0.290 S 
ATOM     16  C   LIG    1        4.306  -2.708   1.378  0.00  0.00    -0.140 A 
ATOM     17  C   LIG    1        5.657  -2.065   1.195  0.00  0.00    +0.160 C 
ATOM     18  C   LIG    1        3.091  -2.072   1.522  0.00  0.00    -0.210 A 
ENDBRANCH   1  18
BRANCH  10  19
ATOM     19  C   LIG    1        1.109   1.911   0.002  0.00  0.00    -0.240 A 
ATOM     20  C   LIG    1        0.674   3.192   0.013  0.00  0.00    +0.250 A 
ATOM     21  N   LIG    1       -0.675   3.169   0.025  0.00  0.00    -0.360 N 
ATOM     22  N   LIG    1       -1.083   1.829   0.017  0.00  0.00    -0.290 NA
ATOM     23  C   LIG    1       -0.013   1.076   0.008  0.00  0.00    +0.230 A 
BRANCH  21  24
ATOM     24  C   LIG    1       -1.558   4.338   0.040  0.00  0.00    +0.180 C 
ATOM     25  C   LIG    1       -1.041   5.354   1.061  0.00  0.00    +0.060 C 
ATOM     26  C   LIG    1       -2.973   3.904   0.425  0.00  0.00    +0.070 C 
ATOM     27  C   LIG    1       -1.580   4.977  -1.349  0.00  0.00    +0.050 C 
ENDBRANCH  21  24
ENDBRANCH  10  19
TORSDOF 3
