REMARK  Name = ZINCqH00000074P0.0
REMARK                            x       y       z     vdW  Elec       q    Type
REMARK                         _______ _______ _______ _____ _____    ______ ____
ROOT
ATOM      1  N   LIG    1       -0.011   0.966   0.007  0.00  0.00    -0.660 N 
ATOM      2  H   LIG    1       -0.099  -0.000   0.018  0.00  0.00    +0.410 HD
ATOM      3  C   LIG    1       -1.113   1.742   0.016  0.00  0.00    +0.520 C 
ATOM      4  O   LIG    1       -1.006   2.947  -0.079  0.00  0.00    -0.510 OA
ENDROOT
BRANCH   1  10
ATOM      5  C   LIG    1        2.324   0.953   0.646  0.00  0.00    +0.100 A 
ATOM      6  C   LIG    1        3.579   1.539   0.613  0.00  0.00    -0.060 A 
ATOM      7  C   LIG    1        3.774   2.717  -0.085  0.00  0.00    +0.040 A 
ATOM      8  C   LIG    1        2.718   3.314  -0.749  0.00  0.00    -0.090 A 
ATOM      9  C   LIG    1        1.464   2.733  -0.725  0.00  0.00    +0.070 A 
ATOM     10  C   LIG    1        1.260   1.554  -0.023  0.00  0.00    +0.110 A 
BRANCH   8  11
ATOM     11  C   LIG    1        2.937   4.598  -1.508  0.00  0.00    -0.020 C 
ATOM     12  C   LIG    1        2.039   5.692  -0.928  0.00  0.00    +0.040 C 
ATOM     13  C   LIG    1        2.593   4.384  -2.983  0.00  0.00    +0.040 C 
ATOM     14  C   LIG    1        4.402   5.021  -1.382  0.00  0.00    +0.040 C 
ENDBRANCH   8  11
BRANCH   5  16
ATOM     15  C   LIG    1        3.268  -0.764   1.994  0.00  0.00    +0.250 C 
ATOM     16  O   LIG    1        2.131  -0.205   1.332  0.00  0.00    -0.320 OA
ENDBRANCH   5  16
ENDBRANCH   1  10
BRANCH   3  17
ATOM     17  C   LIG    1       -2.476   1.114   0.144  0.00  0.00    +0.010 C 
ATOM     18  C   LIG    1       -2.762   0.165  -1.043  0.00  0.00    +0.070 C 
ATOM     19  C   LIG    1       -3.490   1.034  -2.045  0.00  0.00    +0.520 C 
ATOM     20  N   LIG    1       -3.938   2.152  -1.448  0.00  0.00    -0.610 N 
ATOM     21  O   LIG    1       -3.647   0.762  -3.217  0.00  0.00    -0.520 OA
ATOM     22  C   LIG    1       -3.590   2.171  -0.023  0.00  0.00    +0.290 C 
BRANCH  20  23
ATOM     23  C   LIG    1       -4.679   3.215  -2.133  0.00  0.00    +0.250 C 
ATOM     24  C   LIG    1       -5.948   2.635  -2.791  0.00  0.00    +0.020 C 
ATOM     25  C   LIG    1       -6.078   3.418  -4.121  0.00  0.00    +0.020 C 
ATOM     26  C   LIG    1       -4.605   3.562  -4.578  0.00  0.00    +0.010 C 
ATOM     27  C   LIG    1       -3.825   3.804  -3.269  0.00  0.00    +0.010 C 
ENDBRANCH  20  23
ENDBRANCH   3  17
TORSDOF 5
