REMARK  Name = ZINCpk00000KfLd3.0
REMARK                            x       y       z     vdW  Elec       q    Type
REMARK                         _______ _______ _______ _____ _____    ______ ____
ROOT
ATOM      1  N   LIG    1        1.898   0.500   1.745  0.00  0.00    -0.530 NA
ATOM      2  C   LIG    1        0.750  -0.393   1.533  0.00  0.00    +0.180 C 
ATOM      3  C   LIG    1        0.038  -0.005   0.235  0.00  0.00    +0.190 C 
ATOM      4  N   LIG    1       -0.396   1.396   0.317  0.00  0.00    -0.520 NA
ATOM      5  C   LIG    1        0.752   2.289   0.529  0.00  0.00    +0.190 C 
ATOM      6  C   LIG    1        1.464   1.901   1.827  0.00  0.00    +0.190 C 
ENDROOT
BRANCH   4   7
ATOM      7  C   LIG    1       -1.151   1.785  -0.882  0.00  0.00    +0.170 C 
ATOM      8  C   LIG    1       -0.390   1.335  -2.131  0.00  0.00    +0.030 C 
BRANCH   7   9
ATOM      9  C   LIG    1       -2.507   1.129  -0.857  0.00  0.00    +0.530 C 
ATOM     10  N   LIG    1       -3.485   1.570  -1.673  0.00  0.00    -0.700 N 
ATOM     11  H   LIG    1       -3.315   2.310  -2.276  0.00  0.00    +0.400 HD
ATOM     12  O   LIG    1       -2.719   0.203  -0.102  0.00  0.00    -0.520 OA
BRANCH  10  13
ATOM     13  C   LIG    1       -4.803   0.932  -1.648  0.00  0.00    +0.220 C 
ATOM     14  C   LIG    1       -5.472   0.640  -2.992  0.00  0.00    +0.010 C 
ATOM     15  C   LIG    1       -6.001   1.767  -2.103  0.00  0.00    +0.010 C 
ENDBRANCH  10  13
ENDBRANCH   7   9
ENDBRANCH   4   7
BRANCH   1  16
ATOM     16  C   LIG    1        2.652   0.111   2.944  0.00  0.00    +0.150 C 
BRANCH  16  17
ATOM     17  C   LIG    1        4.042   0.750   2.901  0.00  0.00    +0.180 C 
ATOM     18  C   LIG    1        4.726   0.395   1.579  0.00  0.00    +0.080 C 
BRANCH  17  23
ATOM     19  C   LIG    1        7.211  -1.238   7.306  0.00  0.00    +0.090 C 
ATOM     20  C   LIG    1        6.385  -0.720   6.157  0.00  0.00    -0.080 A 
ATOM     21  C   LIG    1        6.608   0.552   5.664  0.00  0.00    +0.000 A 
ATOM     22  C   LIG    1        5.850   1.028   4.610  0.00  0.00    +0.030 A 
ATOM     23  C   LIG    1        4.869   0.231   4.050  0.00  0.00    -0.120 A 
ATOM     24  C   LIG    1        4.642  -1.039   4.546  0.00  0.00    +0.010 A 
ATOM     25  C   LIG    1        5.404  -1.516   5.596  0.00  0.00    +0.000 A 
ENDBRANCH  17  23
BRANCH  17  26
ATOM     26  O   LIG    1        3.917   2.170   3.007  0.00  0.00    -0.550 OA
ATOM     27  H   LIG    1        3.492   2.467   3.823  0.00  0.00    +0.370 HD
ENDBRANCH  17  26
ENDBRANCH  16  17
ENDBRANCH   1  16
TORSDOF 7
