REMARK  Name = ZINCpe000000UyM4.1
REMARK                            x       y       z     vdW  Elec       q    Type
REMARK                         _______ _______ _______ _____ _____    ______ ____
ROOT
ATOM      1  C   LIG    1        4.369   5.540   0.239  0.00  0.00    +0.510 C 
ATOM      2  N   LIG    1        4.649   6.857   0.287  0.00  0.00    -0.730 N 
ATOM      3  H   LIG    1        3.940   7.508   0.169  0.00  0.00    +0.400 HD
ATOM      4  O   LIG    1        5.255   4.725   0.386  0.00  0.00    -0.520 OA
ENDROOT
BRANCH   1   5
ATOM      5  C   LIG    1        2.953   5.079   0.003  0.00  0.00    +0.250 C 
BRANCH   5   7
ATOM      6  C   LIG    1        3.652   3.069  -1.153  0.00  0.00    +0.260 C 
ATOM      7  N   LIG    1        2.912   3.610  -0.005  0.00  0.00    -0.440 N 
BRANCH   7   8
ATOM      8  C   LIG    1        1.606   3.151   0.004  0.00  0.00    +0.430 A 
ATOM      9  C   LIG    1        1.329   1.773  -0.001  0.00  0.00    -0.060 A 
ATOM     10  N   LIG    1        2.085   0.649  -0.014  0.00  0.00    -0.460 NA
ATOM     11  C   LIG    1        1.308  -0.395  -0.013  0.00  0.00    +0.500 A 
ATOM     12  N   LIG    1        0.002  -0.004   0.002  0.00  0.00    -0.580 N 
ATOM     13  H   LIG    1       -0.772  -0.589   0.007  0.00  0.00    +0.430 HD
ATOM     14  C   LIG    1       -0.017   1.368   0.010  0.00  0.00    +0.290 A 
ATOM     15  N   LIG    1       -0.970   2.293   0.028  0.00  0.00    -0.540 NA
ATOM     16  C   LIG    1       -0.663   3.573   0.029  0.00  0.00    +0.560 A 
ATOM     17  N   LIG    1        0.586   4.002   0.019  0.00  0.00    -0.570 NA
ENDBRANCH   7   8
ENDBRANCH   5   7
ENDBRANCH   1   5
BRANCH   2  18
ATOM     18  C   LIG    1        6.024   7.305   0.517  0.00  0.00    +0.330 C 
BRANCH  18  19
ATOM     19  C   LIG    1        6.067   8.812   0.525  0.00  0.00    -0.100 A 
ATOM     20  C   LIG    1        6.289   9.502  -0.652  0.00  0.00    +0.050 A 
ATOM     21  C   LIG    1        6.324  10.884  -0.650  0.00  0.00    +0.040 A 
ATOM     22  C   LIG    1        6.147  11.581   0.534  0.00  0.00    +0.040 A 
ATOM     23  O   LIG    1        6.141  12.918   0.805  0.00  0.00    -0.310 OA
ATOM     24  C   LIG    1        6.326  13.023   2.229  0.00  0.00    +0.430 C 
ATOM     25  O   LIG    1        5.787  11.787   2.736  0.00  0.00    -0.310 OA
ATOM     26  C   LIG    1        5.929  10.885   1.721  0.00  0.00    +0.030 A 
ATOM     27  C   LIG    1        5.890   9.500   1.711  0.00  0.00    +0.060 A 
ENDBRANCH  18  19
ENDBRANCH   2  18
TORSDOF 5
