REMARK  Name = ZINCpe000000UyM4.2
REMARK                            x       y       z     vdW  Elec       q    Type
REMARK                         _______ _______ _______ _____ _____    ______ ____
ROOT
ATOM      1  C   LIG    1        1.086   7.355  -1.601  0.00  0.00    +0.500 C 
ATOM      2  N   LIG    1        0.847   6.051  -1.358  0.00  0.00    -0.730 N 
ATOM      3  H   LIG    1        0.725   5.435  -2.097  0.00  0.00    +0.400 HD
ATOM      4  O   LIG    1        1.239   8.126  -0.677  0.00  0.00    -0.520 OA
ENDROOT
BRANCH   1   5
ATOM      5  C   LIG    1        1.164   7.855  -3.020  0.00  0.00    +0.340 C 
BRANCH   5   7
ATOM      6  C   LIG    1        0.318  10.247  -3.001  0.00  0.00    +0.330 C 
ATOM      7  N   LIG    1        1.432   9.296  -3.016  0.00  0.00    -0.540 N 
BRANCH   7   8
ATOM      8  C   LIG    1        2.726   9.753  -3.026  0.00  0.00    +0.540 A 
ATOM      9  C   LIG    1        2.992  11.133  -3.029  0.00  0.00    -0.110 A 
ATOM     10  N   LIG    1        2.245  12.249  -3.011  0.00  0.00    -0.500 NA
ATOM     11  C   LIG    1        3.055  13.286  -3.014  0.00  0.00    +0.400 A 
ATOM     12  N   LIG    1        4.319  12.880  -3.028  0.00  0.00    -0.540 NA
ATOM     13  C   LIG    1        4.340  11.556  -3.034  0.00  0.00    +0.220 A 
ATOM     14  N   LIG    1        5.327  10.597  -3.048  0.00  0.00    -0.540 N 
ATOM     15  H   LIG    1        6.261  10.860  -3.056  0.00  0.00    +0.430 HD
ATOM     16  C   LIG    1        4.992   9.296  -3.051  0.00  0.00    +0.650 A 
ATOM     17  N   LIG    1        3.748   8.893  -3.040  0.00  0.00    -0.580 NA
ENDBRANCH   7   8
ENDBRANCH   5   7
ENDBRANCH   1   5
BRANCH   2  18
ATOM     18  C   LIG    1        0.771   5.565   0.022  0.00  0.00    +0.330 C 
BRANCH  18  19
ATOM     19  C   LIG    1        0.496   4.083   0.018  0.00  0.00    -0.100 A 
ATOM     20  C   LIG    1       -0.808   3.624   0.028  0.00  0.00    +0.050 A 
ATOM     21  C   LIG    1       -1.065   2.265   0.019  0.00  0.00    +0.040 A 
ATOM     22  C   LIG    1       -0.016   1.361   0.009  0.00  0.00    +0.040 A 
ATOM     23  O   LIG    1        0.002  -0.004   0.002  0.00  0.00    -0.310 OA
ATOM     24  C   LIG    1        1.336  -0.373   0.399  0.00  0.00    +0.430 C 
ATOM     25  O   LIG    1        2.139   0.749  -0.014  0.00  0.00    -0.310 OA
ATOM     26  C   LIG    1        1.297   1.824  -0.001  0.00  0.00    +0.030 A 
ATOM     27  C   LIG    1        1.548   3.186   0.004  0.00  0.00    +0.060 A 
ENDBRANCH  18  19
ENDBRANCH   2  18
TORSDOF 5
