REMARK  Name = ZINCpe000000UyM4.0
REMARK                            x       y       z     vdW  Elec       q    Type
REMARK                         _______ _______ _______ _____ _____    ______ ____
ROOT
ATOM      1  C   LIG    1        1.086   7.355  -1.601  0.00  0.00    +0.520 C 
ATOM      2  N   LIG    1        0.847   6.051  -1.358  0.00  0.00    -0.730 N 
ATOM      3  H   LIG    1        0.725   5.435  -2.097  0.00  0.00    +0.410 HD
ATOM      4  O   LIG    1        1.239   8.126  -0.677  0.00  0.00    -0.520 OA
ENDROOT
BRANCH   1   5
ATOM      5  C   LIG    1        1.164   7.855  -3.020  0.00  0.00    +0.250 C 
BRANCH   5   7
ATOM      6  C   LIG    1        0.302  10.043  -2.445  0.00  0.00    +0.250 C 
ATOM      7  N   LIG    1        1.433   9.300  -3.016  0.00  0.00    -0.460 N 
BRANCH   7   8
ATOM      8  C   LIG    1        1.732   9.752  -4.291  0.00  0.00    +0.400 A 
ATOM      9  C   LIG    1        2.021  11.099  -4.520  0.00  0.00    -0.080 A 
ATOM     10  N   LIG    1        2.099  12.231  -3.737  0.00  0.00    -0.570 N 
ATOM     11  H   LIG    1        1.947  12.281  -2.781  0.00  0.00    +0.430 HD
ATOM     12  C   LIG    1        2.428  13.258  -4.553  0.00  0.00    +0.530 A 
ATOM     13  N   LIG    1        2.557  12.834  -5.779  0.00  0.00    -0.490 NA
ATOM     14  C   LIG    1        2.319  11.509  -5.830  0.00  0.00    +0.310 A 
ATOM     15  N   LIG    1        2.314  10.595  -6.805  0.00  0.00    -0.500 NA
ATOM     16  C   LIG    1        2.036   9.338  -6.541  0.00  0.00    +0.540 A 
ATOM     17  N   LIG    1        1.755   8.913  -5.323  0.00  0.00    -0.560 NA
ENDBRANCH   7   8
ENDBRANCH   5   7
ENDBRANCH   1   5
BRANCH   2  18
ATOM     18  C   LIG    1        0.771   5.565   0.022  0.00  0.00    +0.330 C 
BRANCH  18  19
ATOM     19  C   LIG    1        0.496   4.083   0.018  0.00  0.00    -0.100 A 
ATOM     20  C   LIG    1       -0.808   3.624   0.028  0.00  0.00    +0.050 A 
ATOM     21  C   LIG    1       -1.065   2.265   0.019  0.00  0.00    +0.040 A 
ATOM     22  C   LIG    1       -0.016   1.361   0.009  0.00  0.00    +0.040 A 
ATOM     23  O   LIG    1        0.002  -0.004   0.002  0.00  0.00    -0.310 OA
ATOM     24  C   LIG    1        1.336  -0.373   0.399  0.00  0.00    +0.440 C 
ATOM     25  O   LIG    1        2.139   0.749  -0.014  0.00  0.00    -0.310 OA
ATOM     26  C   LIG    1        1.297   1.824  -0.001  0.00  0.00    +0.030 A 
ATOM     27  C   LIG    1        1.548   3.186   0.004  0.00  0.00    +0.060 A 
ENDBRANCH  18  19
ENDBRANCH   2  18
TORSDOF 5
