REMARK  Name = ZINCpk00000xPYZ2.1
REMARK                            x       y       z     vdW  Elec       q    Type
REMARK                         _______ _______ _______ _____ _____    ______ ____
ROOT
ATOM      1  O   LIG    1        2.122   5.640   2.926  0.00  0.00    -0.550 OA
ATOM      2  C   LIG    1        1.374   5.276   2.039  0.00  0.00    +0.710 C 
ATOM      3  N   LIG    1        0.869   6.176   1.173  0.00  0.00    -0.630 N 
ATOM      4  C   LIG    1        0.062   5.747   0.019  0.00  0.00    +0.250 C 
ATOM      5  C   LIG    1        0.628   6.412  -1.241  0.00  0.00    +0.210 C 
ATOM      6  O   LIG    1        0.727   7.822  -1.025  0.00  0.00    -0.370 OA
ATOM      7  C   LIG    1        1.621   8.191   0.028  0.00  0.00    +0.250 C 
ATOM      8  C   LIG    1        1.102   7.618   1.356  0.00  0.00    +0.320 C 
ATOM      9  N   LIG    1        1.051   3.973   1.923  0.00  0.00    -0.740 N 
ATOM     10  H   LIG    1        0.508   3.673   1.177  0.00  0.00    +0.390 HD
ENDROOT
BRANCH   8  11
ATOM     11  C   LIG    1        2.127   7.833   2.439  0.00  0.00    +0.190 A 
ATOM     12  N   LIG    1        3.376   7.456   2.407  0.00  0.00    -0.250 NA
ATOM     13  N   LIG    1        3.962   7.806   3.497  0.00  0.00    -0.290 NA
ATOM     14  C   LIG    1        3.110   8.413   4.278  0.00  0.00    +0.370 A 
ATOM     15  N   LIG    1        1.921   8.447   3.629  0.00  0.00    -0.580 N 
ATOM     16  H   LIG    1        1.092   8.833   3.950  0.00  0.00    +0.420 HD
ENDBRANCH   8  11
BRANCH   9  17
ATOM     17  C   LIG    1        1.518   3.010   2.922  0.00  0.00    +0.300 C 
BRANCH  17  18
ATOM     18  C   LIG    1        1.123   1.596   2.492  0.00  0.00    +0.040 C 
ATOM     19  C   LIG    1        1.803   1.259   1.163  0.00  0.00    +0.000 C 
ATOM     20  C   LIG    1        1.635  -0.243   0.902  0.00  0.00    +0.240 C 
ATOM     21  O   LIG    1        2.343  -0.958   1.916  0.00  0.00    -0.310 OA
ATOM     22  C   LIG    1        2.132  -0.602   3.210  0.00  0.00    +0.140 A 
ATOM     23  C   LIG    1        2.513  -1.488   4.213  0.00  0.00    -0.020 A 
ATOM     24  C   LIG    1        2.323  -1.158   5.539  0.00  0.00    +0.050 A 
ATOM     25  C   LIG    1        1.752   0.056   5.874  0.00  0.00    -0.020 A 
ATOM     26  C   LIG    1        1.371   0.937   4.880  0.00  0.00    +0.050 A 
ATOM     27  C   LIG    1        1.557   0.611   3.548  0.00  0.00    -0.160 A 
ENDBRANCH  17  18
ENDBRANCH   9  17
TORSDOF 3
