REMARK  Name = ZINCpk00000xPYZ2.0
REMARK                            x       y       z     vdW  Elec       q    Type
REMARK                         _______ _______ _______ _____ _____    ______ ____
ROOT
ATOM      1  O   LIG    1        6.223  -0.358  -2.461  0.00  0.00    -0.560 OA
ATOM      2  C   LIG    1        5.607  -0.817  -1.518  0.00  0.00    +0.710 C 
ATOM      3  N   LIG    1        6.055  -1.924  -0.895  0.00  0.00    -0.630 N 
ATOM      4  C   LIG    1        5.394  -2.431   0.318  0.00  0.00    +0.250 C 
ATOM      5  C   LIG    1        6.463  -2.662   1.391  0.00  0.00    +0.220 C 
ATOM      6  O   LIG    1        7.507  -3.475   0.850  0.00  0.00    -0.370 OA
ATOM      7  C   LIG    1        8.201  -2.881  -0.249  0.00  0.00    +0.240 C 
ATOM      8  C   LIG    1        7.217  -2.666  -1.410  0.00  0.00    +0.330 C 
ATOM      9  N   LIG    1        4.475  -0.218  -1.098  0.00  0.00    -0.750 N 
ATOM     10  H   LIG    1        4.021  -0.543  -0.304  0.00  0.00    +0.390 HD
ENDROOT
BRANCH   8  11
ATOM     11  C   LIG    1        7.884  -1.869  -2.502  0.00  0.00    +0.260 A 
ATOM     12  N   LIG    1        7.966  -2.221  -3.758  0.00  0.00    -0.310 NA
ATOM     13  N   LIG    1        8.662  -1.198  -4.422  0.00  0.00    -0.480 N 
ATOM     14  H   LIG    1        8.885  -1.164  -5.365  0.00  0.00    +0.440 HD
ATOM     15  C   LIG    1        8.959  -0.276  -3.490  0.00  0.00    +0.480 A 
ATOM     16  N   LIG    1        8.482  -0.688  -2.344  0.00  0.00    -0.510 NA
ENDBRANCH   8  11
BRANCH   9  17
ATOM     17  C   LIG    1        3.931   0.922  -1.838  0.00  0.00    +0.290 C 
BRANCH  17  18
ATOM     18  C   LIG    1        2.725   1.490  -1.086  0.00  0.00    +0.040 C 
ATOM     19  C   LIG    1        3.176   2.006   0.282  0.00  0.00    +0.010 C 
ATOM     20  C   LIG    1        2.032   2.828   0.889  0.00  0.00    +0.240 C 
ATOM     21  O   LIG    1        1.820   3.978   0.070  0.00  0.00    -0.310 OA
ATOM     22  C   LIG    1        1.702   3.789  -1.271  0.00  0.00    +0.140 A 
ATOM     23  C   LIG    1        1.146   4.807  -2.038  0.00  0.00    -0.020 A 
ATOM     24  C   LIG    1        1.020   4.657  -3.404  0.00  0.00    +0.050 A 
ATOM     25  C   LIG    1        1.445   3.491  -4.013  0.00  0.00    -0.020 A 
ATOM     26  C   LIG    1        1.996   2.476  -3.253  0.00  0.00    +0.050 A 
ATOM     27  C   LIG    1        2.125   2.621  -1.882  0.00  0.00    -0.160 A 
ENDBRANCH  17  18
ENDBRANCH   9  17
TORSDOF 3
