REMARK  Name = ZINCqH0000008Df3.0
REMARK                            x       y       z     vdW  Elec       q    Type
REMARK                         _______ _______ _______ _____ _____    ______ ____
ROOT
ATOM      1  C   LIG    1        2.235  -0.228  -2.913  0.00  0.00    +0.030 C 
ATOM      2  C   LIG    1        2.148   0.033  -1.408  0.00  0.00    +0.040 C 
ATOM      3  C   LIG    1        2.516  -1.244  -0.652  0.00  0.00    +0.030 C 
ATOM      4  C   LIG    1        2.227  -1.038   0.840  0.00  0.00    +0.280 C 
ATOM      5  N   LIG    1        0.781  -0.825   0.992  0.00  0.00    -0.560 N 
ATOM      6  C   LIG    1        0.126   0.038   0.101  0.00  0.00    +0.150 A 
ATOM      7  C   LIG    1       -1.169   0.464   0.397  0.00  0.00    +0.080 A 
ATOM      8  C   LIG    1       -1.832   1.313  -0.473  0.00  0.00    +0.000 A 
ATOM      9  C   LIG    1       -1.208   1.737  -1.632  0.00  0.00    +0.000 A 
ATOM     10  C   LIG    1        0.075   1.316  -1.923  0.00  0.00    +0.030 A 
ATOM     11  C   LIG    1        0.096  -1.450   1.970  0.00  0.00    +0.520 C 
ATOM     12  O   LIG    1       -1.108  -1.590   1.875  0.00  0.00    -0.420 OA
ATOM     13  C   LIG    1        0.748   0.467  -1.059  0.00  0.00    -0.100 A 
ENDROOT
BRANCH  11  14
ATOM     14  C   LIG    1        0.808  -1.963   3.160  0.00  0.00    -0.090 A 
ATOM     15  C   LIG    1        1.981  -1.343   3.592  0.00  0.00    +0.030 A 
ATOM     16  C   LIG    1        2.639  -1.825   4.707  0.00  0.00    +0.070 A 
ATOM     17  C   LIG    1        2.143  -2.919   5.383  0.00  0.00    -0.110 A 
ATOM     18  C   LIG    1        0.979  -3.554   4.964  0.00  0.00    +0.140 A 
ATOM     19  N   LIG    1        0.686  -4.628   5.806  0.00  0.00    -0.660 N 
ATOM     20  H   LIG    1       -0.084  -5.207   5.695  0.00  0.00    +0.420 HD
ATOM     21  C   LIG    1        1.592  -4.766   6.788  0.00  0.00    +0.540 C 
ATOM     22  O   LIG    1        1.587  -5.610   7.659  0.00  0.00    -0.490 OA
ATOM     23  C   LIG    1        2.621  -3.671   6.604  0.00  0.00    -0.060 C 
ATOM     24  C   LIG    1        4.006  -4.273   6.359  0.00  0.00    +0.080 C 
ATOM     25  C   LIG    1        2.647  -2.749   7.825  0.00  0.00    +0.080 C 
ATOM     26  C   LIG    1        0.310  -3.070   3.845  0.00  0.00    +0.060 A 
ENDBRANCH  11  14
BRANCH   7  27
ATOM     27  O   LIG    1       -1.779   0.045   1.537  0.00  0.00    -0.440 OA
ATOM     28  H   LIG    1       -1.692   0.660   2.278  0.00  0.00    +0.360 HD
ENDBRANCH   7  27
TORSDOF 2
