REMARK  Name = ZINCrH00000No52Y.0
REMARK                            x       y       z     vdW  Elec       q    Type
REMARK                         _______ _______ _______ _____ _____    ______ ____
ROOT
ATOM      1  O   LIG    1        0.183  -0.809   0.049  0.00  0.00    -0.440 OA
ATOM      2  C   LIG    1        1.332  -1.206   0.111  0.00  0.00    +0.540 C 
ATOM      3  C   LIG    1        2.485  -0.296   0.081  0.00  0.00    -0.280 C 
ATOM      4  S   LIG    1        3.888  -1.375   0.207  0.00  0.00    +0.120 S 
ATOM      5  C   LIG    1        2.921  -2.858   0.279  0.00  0.00    +0.260 C 
ATOM      6  S   LIG    1        3.516  -4.457   0.413  0.00  0.00    -0.360 S 
ATOM      7  C   LIG    1        2.478   1.058  -0.015  0.00  0.00    +0.260 C 
ATOM      8  N   LIG    1        1.637  -2.489   0.207  0.00  0.00    -0.510 N 
ENDROOT
BRANCH   7   9
ATOM      9  C   LIG    1        1.222   1.768  -0.293  0.00  0.00    -0.110 A 
ATOM     10  C   LIG    1        0.326   1.248  -1.218  0.00  0.00    +0.120 A 
ATOM     11  C   LIG    1       -0.870   1.933  -1.478  0.00  0.00    -0.060 A 
ATOM     12  C   LIG    1       -1.803   1.438  -2.407  0.00  0.00    +0.040 A 
ATOM     13  C   LIG    1       -2.955   2.127  -2.637  0.00  0.00    +0.010 A 
ATOM     14  C   LIG    1       -3.225   3.316  -1.964  0.00  0.00    +0.030 A 
ATOM     15  C   LIG    1       -2.344   3.825  -1.057  0.00  0.00    +0.020 A 
ATOM     16  C   LIG    1       -1.145   3.144  -0.793  0.00  0.00    -0.030 A 
ATOM     17  C   LIG    1       -0.219   3.643   0.143  0.00  0.00    +0.020 A 
ATOM     18  C   LIG    1        0.935   2.973   0.380  0.00  0.00    +0.050 A 
ENDBRANCH   7   9
BRANCH   8  19
ATOM     19  C   LIG    1        0.576  -3.499   0.242  0.00  0.00    +0.310 C 
BRANCH  19  20
ATOM     20  C   LIG    1        0.157  -3.749   1.692  0.00  0.00    +0.030 C 
BRANCH  20  21
ATOM     21  C   LIG    1       -0.950  -4.804   1.728  0.00  0.00    +0.180 C 
BRANCH  21  22
ATOM     22  N   LIG    1       -1.353  -5.044   3.120  0.00  0.00    -0.540 NA
ATOM     23  C   LIG    1       -0.262  -5.665   3.885  0.00  0.00    +0.150 C 
ATOM     24  C   LIG    1       -0.702  -5.843   5.340  0.00  0.00    +0.220 C 
ATOM     25  O   LIG    1       -1.901  -6.620   5.379  0.00  0.00    -0.380 OA
ATOM     26  C   LIG    1       -2.985  -6.043   4.646  0.00  0.00    +0.220 C 
ATOM     27  C   LIG    1       -2.568  -5.868   3.183  0.00  0.00    +0.160 C 
ENDBRANCH  21  22
ENDBRANCH  20  21
ENDBRANCH  19  20
ENDBRANCH   8  19
TORSDOF 5
