REMARK  Name = ZINCvU0000000Bvq.0
REMARK                            x       y       z     vdW  Elec       q    Type
REMARK                         _______ _______ _______ _____ _____    ______ ____
ROOT
ATOM      1  C   LIG    1        3.358  -8.917  -0.602  0.00  0.00    -0.120 A 
ATOM      2  C   LIG    1        3.791  -8.121   0.461  0.00  0.00    +0.090 A 
ATOM      3  C   LIG    1        3.704  -6.747   0.369  0.00  0.00    +0.030 A 
ATOM      4  C   LIG    1        3.191  -6.158  -0.773  0.00  0.00    -0.050 A 
ATOM      5  C   LIG    1        2.755  -6.941  -1.827  0.00  0.00    +0.030 A 
ATOM      6  C   LIG    1        2.841  -8.315  -1.751  0.00  0.00    +0.090 A 
ENDROOT
BRANCH   1   7
ATOM      7  C   LIG    1        3.447 -10.388  -0.510  0.00  0.00    +0.510 C 
ATOM      8  O   LIG    1        3.897 -10.909   0.490  0.00  0.00    -0.500 OA
BRANCH   7   9
ATOM      9  O   LIG    1        3.029 -11.153  -1.537  0.00  0.00    -0.340 OA
BRANCH   9  10
ATOM     10  C   LIG    1        3.146 -12.592  -1.378  0.00  0.00    +0.260 C 
BRANCH  10  19
ATOM     11  C   LIG    1        2.886 -14.662  -0.327  0.00  0.00    +0.040 C 
ATOM     12  C   LIG    1        3.049 -15.472  -1.615  0.00  0.00    +0.220 C 
ATOM     13  C   LIG    1        2.022 -16.615  -1.640  0.00  0.00    +0.020 C 
ATOM     14  C   LIG    1        2.101 -17.334  -2.988  0.00  0.00    +0.020 C 
ATOM     15  C   LIG    1        1.758 -16.355  -4.112  0.00  0.00    +0.020 C 
ATOM     16  C   LIG    1        2.776 -15.210  -4.115  0.00  0.00    +0.230 C 
ATOM     17  C   LIG    1        2.363 -14.155  -5.144  0.00  0.00    +0.050 C 
ATOM     18  N   LIG    1        2.811 -14.604  -2.776  0.00  0.00    -0.610 N 
ATOM     19  C   LIG    1        2.633 -13.278  -2.618  0.00  0.00    +0.520 C 
ATOM     20  O   LIG    1        2.060 -12.636  -3.473  0.00  0.00    -0.500 OA
ENDBRANCH  10  19
ENDBRANCH   9  10
ENDBRANCH   7   9
ENDBRANCH   1   7
BRANCH   4  21
ATOM     21  C   LIG    1        3.099  -4.656  -0.866  0.00  0.00    +0.150 C 
BRANCH  21  22
ATOM     22  S   LIG    1        4.628  -4.002  -1.580  0.00  0.00    +0.020 S 
BRANCH  22  23
ATOM     23  C   LIG    1        4.257  -2.280  -1.573  0.00  0.00    +0.080 A 
ATOM     24  N   LIG    1        3.155  -1.766  -1.143  0.00  0.00    -0.470 NA
ATOM     25  C   LIG    1        3.019  -0.426  -1.203  0.00  0.00    +0.090 A 
ATOM     26  C   LIG    1        1.925   0.369  -0.801  0.00  0.00    +0.070 A 
ATOM     27  C   LIG    1        1.969   1.734  -0.940  0.00  0.00    +0.040 A 
ATOM     28  C   LIG    1        3.088   2.353  -1.476  0.00  0.00    +0.040 A 
ATOM     29  C   LIG    1        4.169   1.596  -1.875  0.00  0.00    +0.060 A 
ATOM     30  C   LIG    1        4.141   0.211  -1.741  0.00  0.00    -0.170 A 
ATOM     31  S   LIG    1        5.337  -1.017  -2.148  0.00  0.00    +0.110 S 
ENDBRANCH  22  23
ENDBRANCH  21  22
ENDBRANCH   4  21
TORSDOF 7
