REMARK  Name = ZINCpk00000y6u19.0
REMARK                            x       y       z     vdW  Elec       q    Type
REMARK                         _______ _______ _______ _____ _____    ______ ____
ROOT
ATOM      1  CA  LIG    1        4.906   4.265  -0.018  0.00  0.00    +0.260 C 
ENDROOT
BRANCH   1   8
ATOM      2  C   LIG    1        8.942   8.820   1.617  0.00  0.00    +0.090 C 
ATOM      3  C   LIG    1        7.752   7.858   1.611  0.00  0.00    -0.110 C 
ATOM      4  C   LIG    1        7.939   6.602   0.775  0.00  0.00    +0.070 C 
ATOM      5  C   LIG    1        6.776   6.350  -0.159  0.00  0.00    +0.270 C 
ATOM      6  N   LIG    1        5.495   6.617   0.473  0.00  0.00    -0.600 N 
ATOM      7  C   LIG    1        5.180   7.900   1.083  0.00  0.00    +0.340 C 
ATOM      8  C   LIG    1        4.567   5.639   0.500  0.00  0.00    +0.520 C 
ATOM      9  O   LIG    1        3.461   5.866   0.941  0.00  0.00    -0.520 OA
ATOM     10  C   LIG    1        7.025   7.672   2.954  0.00  0.00    +0.190 C 
ATOM     11  F   LIG    1        6.505   6.404   3.237  0.00  0.00    -0.150 F 
ATOM     12  F   LIG    1        7.507   8.388   4.055  0.00  0.00    -0.160 F 
ATOM     13  C   LIG    1        6.375   8.463   1.830  0.00  0.00    -0.010 C 
ENDBRANCH   1   8
BRANCH   1  14
ATOM     14  N   LIG    1        3.997   3.282   0.577  0.00  0.00    -0.700 N 
ATOM     15  H   LIG    1        3.122   3.558   0.890  0.00  0.00    +0.410 HD
ATOM     16  C   LIG    1        4.377   1.994   0.688  0.00  0.00    +0.570 C 
ATOM     17  O   LIG    1        5.474   1.648   0.295  0.00  0.00    -0.540 OA
BRANCH  16  18
ATOM     18  C   LIG    1        3.460   1.002   1.287  0.00  0.00    -0.150 A 
ATOM     19  C   LIG    1        2.199   1.397   1.739  0.00  0.00    +0.090 A 
ATOM     20  C   LIG    1        1.348   0.468   2.297  0.00  0.00    -0.020 A 
ATOM     21  C   LIG    1        1.741  -0.857   2.410  0.00  0.00    +0.130 A 
ATOM     22  C   LIG    1        2.992  -1.254   1.963  0.00  0.00    -0.010 A 
ATOM     23  F   LIG    1        0.903  -1.764   2.958  0.00  0.00    -0.130 F 
ATOM     24  C   LIG    1        3.852  -0.333   1.403  0.00  0.00    +0.120 A 
ENDBRANCH  16  18
ENDBRANCH   1  14
BRANCH   1  25
ATOM     25  C   LIG    1        4.757   4.243  -1.540  0.00  0.00    +0.200 C 
BRANCH  25  26
ATOM     26  O   LIG    1        3.440   4.668  -1.896  0.00  0.00    -0.560 OA
ATOM     27  H   LIG    1        3.274   4.678  -2.849  0.00  0.00    +0.380 HD
ENDBRANCH  25  26
ENDBRANCH   1  25
TORSDOF 5
