REMARK  Name = ZINCvU00000007i7.0
REMARK                            x       y       z     vdW  Elec       q    Type
REMARK                         _______ _______ _______ _____ _____    ______ ____
ROOT
ATOM      1  N   LIG    1        0.406   4.465  -0.863  0.00  0.00    -0.740 N 
ATOM      2  H   LIG    1       -0.442   4.054  -1.093  0.00  0.00    +0.390 HD
ATOM      3  C   LIG    1        0.713   5.688  -1.337  0.00  0.00    +0.720 C 
ATOM      4  N   LIG    1       -0.198   6.385  -2.044  0.00  0.00    -0.640 N 
ATOM      5  C   LIG    1       -1.556   5.930  -2.375  0.00  0.00    +0.240 C 
ATOM      6  C   LIG    1       -2.221   7.043  -3.212  0.00  0.00    +0.040 C 
ATOM      7  C   LIG    1       -1.005   7.813  -3.791  0.00  0.00    -0.010 C 
ATOM      8  C   LIG    1        0.004   7.728  -2.619  0.00  0.00    +0.280 C 
ATOM      9  O   LIG    1        1.813   6.163  -1.127  0.00  0.00    -0.580 OA
ENDROOT
BRANCH   1  10
ATOM     10  C   LIG    1        1.353   3.755   0.001  0.00  0.00    +0.310 C 
BRANCH  10  11
ATOM     11  C   LIG    1        1.156   2.269  -0.152  0.00  0.00    -0.090 A 
ATOM     12  C   LIG    1       -0.120   1.748  -0.257  0.00  0.00    +0.050 A 
ATOM     13  C   LIG    1       -0.301   0.385  -0.398  0.00  0.00    +0.030 A 
ATOM     14  C   LIG    1        0.794  -0.458  -0.434  0.00  0.00    +0.070 A 
ATOM     15  C   LIG    1        2.071   0.063  -0.329  0.00  0.00    -0.180 A 
ATOM     16  C   LIG    1        2.252   1.426  -0.189  0.00  0.00    +0.080 A 
BRANCH  15  17
ATOM     17  C   LIG    1        3.265  -0.855  -0.369  0.00  0.00    +0.510 C 
ATOM     18  F   LIG    1        3.988  -0.731   0.823  0.00  0.00    -0.170 F 
ATOM     19  F   LIG    1        4.084  -0.509  -1.449  0.00  0.00    -0.170 F 
ATOM     20  F   LIG    1        2.832  -2.177  -0.516  0.00  0.00    -0.180 F 
ENDBRANCH  15  17
ENDBRANCH  10  11
BRANCH  10  21
ATOM     21  C   LIG    1        1.112   4.154   1.458  0.00  0.00    +0.030 C 
BRANCH  21  23
ATOM     22  C   LIG    1        3.552   4.130   1.995  0.00  0.00    +0.020 C 
ATOM     23  C   LIG    1        2.190   3.526   2.344  0.00  0.00    -0.030 C 
ATOM     24  C   LIG    1        1.870   3.805   3.814  0.00  0.00    +0.010 C 
ENDBRANCH  21  23
ENDBRANCH  10  21
ENDBRANCH   1  10
BRANCH   7  25
ATOM     25  C   LIG    1       -1.371   9.267  -4.096  0.00  0.00    +0.090 C 
BRANCH  25  26
ATOM     26  C   LIG    1       -0.158   9.990  -4.624  0.00  0.00    -0.070 A 
ATOM     27  C   LIG    1        0.696  10.636  -3.750  0.00  0.00    +0.000 A 
ATOM     28  C   LIG    1        1.812  11.295  -4.231  0.00  0.00    +0.030 A 
ATOM     29  C   LIG    1        2.070  11.320  -5.588  0.00  0.00    -0.020 A 
ATOM     30  C   LIG    1        1.211  10.677  -6.468  0.00  0.00    +0.110 A 
ATOM     31  C   LIG    1        0.095  10.012  -5.982  0.00  0.00    -0.010 A 
BRANCH  30  32
ATOM     32  O   LIG    1        1.462  10.700  -7.803  0.00  0.00    -0.500 OA
ATOM     33  H   LIG    1        1.060  11.447  -8.266  0.00  0.00    +0.390 HD
ENDBRANCH  30  32
ENDBRANCH  25  26
ENDBRANCH   7  25
TORSDOF 8
