REMARK  Name = ZINCqH0000007XJF.0
REMARK                            x       y       z     vdW  Elec       q    Type
REMARK                         _______ _______ _______ _____ _____    ______ ____
ROOT
ATOM      1  C   LIG    1        1.172   3.565   0.018  0.00  0.00    +0.560 C 
ATOM      2  N   LIG    1        2.333   4.248   0.003  0.00  0.00    -0.660 N 
ATOM      3  H   LIG    1        3.177   3.772   0.060  0.00  0.00    +0.410 HD
ATOM      4  O   LIG    1        0.114   4.165   0.028  0.00  0.00    -0.510 OA
ENDROOT
BRANCH   2   5
ATOM      5  C   LIG    1        2.323   5.640  -0.094  0.00  0.00    +0.140 A 
ATOM      6  C   LIG    1        1.322   6.382   0.503  0.00  0.00    +0.030 A 
ATOM      7  C   LIG    1        1.284   7.774   0.424  0.00  0.00    +0.040 A 
ATOM      8  C   LIG    1        2.248   8.454  -0.256  0.00  0.00    -0.090 A 
ATOM      9  C   LIG    1        2.512   9.914  -0.537  0.00  0.00    +0.100 C 
ATOM     10  C   LIG    1        3.805   9.939  -1.381  0.00  0.00    +0.100 C 
ATOM     11  C   LIG    1        4.208   8.493  -1.536  0.00  0.00    -0.070 A 
ATOM     12  C   LIG    1        5.234   7.848  -2.157  0.00  0.00    +0.020 A 
ATOM     13  C   LIG    1        5.322   6.456  -2.113  0.00  0.00    +0.020 A 
ATOM     14  C   LIG    1        4.403   5.688  -1.457  0.00  0.00    +0.000 A 
ATOM     15  C   LIG    1        3.264   7.723  -0.864  0.00  0.00    -0.070 A 
ATOM     16  C   LIG    1        3.338   6.321  -0.799  0.00  0.00    -0.050 A 
ENDBRANCH   2   5
BRANCH   1  21
ATOM     17  C   LIG    1        0.001  -0.003   0.040  0.00  0.00    -0.100 A 
ATOM     18  C   LIG    1        1.206  -0.682   0.028  0.00  0.00    +0.070 A 
ATOM     19  C   LIG    1        2.400   0.016   0.013  0.00  0.00    +0.020 A 
ATOM     20  C   LIG    1        2.396   1.396   0.009  0.00  0.00    +0.050 A 
ATOM     21  C   LIG    1        1.184   2.087   0.021  0.00  0.00    -0.130 A 
ATOM     22  C   LIG    1       -0.018   1.377   0.036  0.00  0.00    +0.110 A 
BRANCH  17  23
ATOM     23  C   LIG    1       -1.295  -0.772   0.055  0.00  0.00    -0.270 C 
BRANCH  23  25
ATOM     24  C   LIG    1       -3.378  -2.002  -1.391  0.00  0.00    -0.270 C 
ATOM     25  S   LIG    1       -1.834  -1.085  -1.648  0.00  0.00    +2.410 S 
ATOM     26  O   LIG    1       -0.892  -1.949  -2.269  0.00  0.00    -0.930 OA
ATOM     27  O   LIG    1       -2.143   0.159  -2.261  0.00  0.00    -0.930 OA
ENDBRANCH  23  25
ENDBRANCH  17  23
ENDBRANCH   1  21
TORSDOF 4
