REMARK  Name = ZINCvU00000003ZM.0
REMARK                            x       y       z     vdW  Elec       q    Type
REMARK                         _______ _______ _______ _____ _____    ______ ____
ROOT
ATOM      1  O   LIG    1       -1.612  10.600  -2.513  0.00  0.00    -0.530 OA
ATOM      2  C   LIG    1       -0.548  10.785  -1.954  0.00  0.00    +0.570 C 
ATOM      3  C   LIG    1        0.636  11.196  -2.729  0.00  0.00    -0.200 A 
ATOM      4  C   LIG    1        0.633  11.197  -4.122  0.00  0.00    +0.120 A 
ATOM      5  C   LIG    1        1.775  11.564  -4.804  0.00  0.00    -0.040 A 
ATOM      6  C   LIG    1        2.919  11.931  -4.115  0.00  0.00    +0.080 A 
ATOM      7  C   LIG    1        2.934  11.943  -2.733  0.00  0.00    -0.050 A 
ATOM      8  C   LIG    1        1.795  11.583  -2.033  0.00  0.00    +0.230 A 
ATOM      9  N   LIG    1        1.756  11.594  -0.643  0.00  0.00    -0.730 N 
ATOM     10  H   LIG    1        2.311  12.209  -0.139  0.00  0.00    +0.420 HD
ATOM     11  C   LIG    1        0.860  10.659   0.046  0.00  0.00    +0.610 C 
ATOM     12  N   LIG    1       -0.440  10.617  -0.625  0.00  0.00    -0.610 N 
ENDROOT
BRANCH  11  13
ATOM     13  C   LIG    1        1.472   9.281   0.034  0.00  0.00    -0.030 A 
ATOM     14  C   LIG    1        2.793   9.008   0.020  0.00  0.00    -0.020 A 
ATOM     15  C   LIG    1        2.925   7.608   0.012  0.00  0.00    +0.000 A 
ATOM     16  C   LIG    1        1.663   7.094   0.021  0.00  0.00    +0.040 A 
ATOM     17  O   LIG    1        0.792   8.124   0.029  0.00  0.00    -0.130 OA
BRANCH  16  18
ATOM     18  C   LIG    1        1.311   5.667   0.018  0.00  0.00    +0.170 A 
ATOM     19  N   LIG    1        0.103   5.203   0.027  0.00  0.00    -0.450 NA
ATOM     20  C   LIG    1       -0.058   3.869   0.022  0.00  0.00    +0.080 A 
ATOM     21  C   LIG    1       -1.258   3.124   0.030  0.00  0.00    +0.080 A 
ATOM     22  C   LIG    1       -1.224   1.753   0.017  0.00  0.00    +0.030 A 
ATOM     23  C   LIG    1       -0.013   1.076   0.008  0.00  0.00    +0.050 A 
ATOM     24  C   LIG    1        1.171   1.780   0.000  0.00  0.00    +0.060 A 
ATOM     25  C   LIG    1        1.157   3.173   0.008  0.00  0.00    -0.170 A 
ATOM     26  S   LIG    1        2.471   4.346   0.001  0.00  0.00    +0.110 S 
ENDBRANCH  16  18
ENDBRANCH  11  13
BRANCH  12  27
ATOM     27  C   LIG    1       -1.651  10.386   0.166  0.00  0.00    +0.320 C 
BRANCH  27  28
ATOM     28  C   LIG    1       -2.217  11.727   0.635  0.00  0.00    +0.150 C 
ATOM     29  C   LIG    1       -3.481  11.503   1.504  0.00  0.00    +0.020 C 
ATOM     30  C   LIG    1       -3.485  12.802   2.357  0.00  0.00    +0.000 C 
ATOM     31  C   LIG    1       -1.977  13.079   2.542  0.00  0.00    +0.190 C 
ATOM     32  O   LIG    1       -1.279  12.391   1.498  0.00  0.00    -0.380 OA
ENDBRANCH  27  28
ENDBRANCH  12  27
TORSDOF 4
