REMARK  Name = ZINCrH00000No4P1.0
REMARK                            x       y       z     vdW  Elec       q    Type
REMARK                         _______ _______ _______ _____ _____    ______ ____
ROOT
ATOM      1  C   LIG    1       -0.790   1.292   1.100  0.00  0.00    +0.110 A 
ATOM      2  C   LIG    1        0.447   1.856   0.862  0.00  0.00    +0.010 A 
ATOM      3  C   LIG    1        1.610   1.107   1.088  0.00  0.00    -0.090 A 
ATOM      4  C   LIG    1        1.509  -0.210   1.555  0.00  0.00    +0.050 A 
ATOM      5  C   LIG    1        0.269  -0.764   1.790  0.00  0.00    -0.040 A 
ATOM      6  C   LIG    1       -0.881  -0.020   1.565  0.00  0.00    +0.130 A 
ENDROOT
BRANCH   3   7
ATOM      7  C   LIG    1        2.928   1.699   0.836  0.00  0.00    +0.170 C 
ATOM      8  C   LIG    1        3.950   0.919   0.380  0.00  0.00    +0.010 C 
BRANCH   8   9
ATOM      9  C   LIG    1        5.316   1.469   0.297  0.00  0.00    +0.110 A 
ATOM     10  N   LIG    1        6.369   0.821  -0.117  0.00  0.00    -0.450 NA
ATOM     11  C   LIG    1        7.507   1.476  -0.126  0.00  0.00    +0.070 A 
ATOM     12  C   LIG    1        7.455   2.741   0.303  0.00  0.00    -0.060 A 
ATOM     13  C   LIG    1        8.793   0.839  -0.585  0.00  0.00    +0.160 C 
ATOM     14  S   LIG    1        5.789   3.106   0.746  0.00  0.00    +0.110 S 
ENDBRANCH   8   9
BRANCH   8  15
ATOM     15  C   LIG    1        3.697  -0.433  -0.018  0.00  0.00    +0.260 C 
ATOM     16  N   LIG    1        3.496  -1.505  -0.333  0.00  0.00    -0.400 NA
ENDBRANCH   8  15
ENDBRANCH   3   7
BRANCH   1  17
ATOM     17  O   LIG    1       -1.920   2.013   0.875  0.00  0.00    -0.300 OA
BRANCH  17  19
ATOM     18  C   LIG    1       -3.125   3.999   0.207  0.00  0.00    +0.070 C 
ATOM     19  C   LIG    1       -1.753   3.350   0.399  0.00  0.00    +0.170 C 
ENDBRANCH  17  19
ENDBRANCH   1  17
BRANCH   6  20
ATOM     20  O   LIG    1       -2.100  -0.572   1.798  0.00  0.00    -0.270 OA
BRANCH  20  21
ATOM     21  C   LIG    1       -2.130  -1.959   2.143  0.00  0.00    +0.160 C 
ATOM     22  C   LIG    1       -1.925  -2.114   3.651  0.00  0.00    +0.060 C 
BRANCH  21  23
ATOM     23  C   LIG    1       -3.462  -2.545   1.754  0.00  0.00    +0.520 C 
ATOM     24  N   LIG    1       -3.718  -3.848   1.984  0.00  0.00    -0.620 N 
ATOM     25  C   LIG    1       -2.701  -4.694   2.614  0.00  0.00    +0.290 C 
ATOM     26  C   LIG    1       -5.014  -4.418   1.606  0.00  0.00    +0.300 C 
ATOM     27  O   LIG    1       -4.304  -1.845   1.233  0.00  0.00    -0.510 OA
ENDBRANCH  21  23
ENDBRANCH  20  21
ENDBRANCH   6  20
TORSDOF 8
