REMARK  Name = ZINCrD0000075P4K.0
REMARK                            x       y       z     vdW  Elec       q    Type
REMARK                         _______ _______ _______ _____ _____    ______ ____
ROOT
ATOM      1  C   LIG    1       -1.227   3.147   0.030  0.00  0.00    -0.130 A 
ATOM      2  C   LIG    1       -1.214   1.749  -0.014  0.00  0.00    +0.160 A 
ATOM      3  C   LIG    1       -0.013   1.076  -0.023  0.00  0.00    -0.010 A 
ATOM      4  C   LIG    1        1.183   1.789   0.000  0.00  0.00    +0.200 A 
ATOM      5  C   LIG    1        1.167   3.181   0.039  0.00  0.00    -0.040 A 
ATOM      6  C   LIG    1       -0.021   3.854   0.054  0.00  0.00    +0.180 A 
ENDROOT
BRANCH   4   7
ATOM      7  N   LIG    1        2.396   1.109  -0.015  0.00  0.00    -0.510 N 
ATOM      8  C   LIG    1        2.547   0.323  -1.260  0.00  0.00    +0.190 C 
ATOM      9  C   LIG    1        3.705  -0.635  -1.208  0.00  0.00    +0.040 C 
ATOM     10  C   LIG    1        3.184  -2.008  -0.735  0.00  0.00    +0.010 C 
ATOM     11  C   LIG    1        2.979  -2.052   0.709  0.00  0.00    +0.010 C 
ATOM     12  C   LIG    1        1.932  -1.021   1.180  0.00  0.00    -0.010 C 
ATOM     13  C   LIG    1        2.585   0.333   1.231  0.00  0.00    +0.240 C 
ENDBRANCH   4   7
BRANCH   5  14
ATOM     14  N   LIG    1        2.442   3.933   0.064  0.00  0.00    +0.030 N 
ATOM     15  O   LIG    1        3.503   3.334   0.051  0.00  0.00    -0.090 OA
ATOM     16  O   LIG    1        2.430   5.150   0.098  0.00  0.00    -0.190 OA
ENDBRANCH   5  14
BRANCH   1  17
ATOM     17  C   LIG    1       -2.509   3.873   0.045  0.00  0.00    +0.520 C 
ATOM     18  O   LIG    1       -2.519   5.088   0.078  0.00  0.00    -0.490 OA
BRANCH  17  19
ATOM     19  O   LIG    1       -3.671   3.190   0.022  0.00  0.00    -0.330 OA
BRANCH  19  20
ATOM     20  C   LIG    1       -4.895   3.971   0.038  0.00  0.00    +0.250 C 
BRANCH  20  22
ATOM     21  O   LIG    1       -5.913   1.841  -0.024  0.00  0.00    -0.450 OA
ATOM     22  C   LIG    1       -6.082   3.043   0.008  0.00  0.00    +0.420 C 
BRANCH  22  23
ATOM     23  C   LIG    1       -7.393   3.573   0.018  0.00  0.00    -0.100 A 
ATOM     24  C   LIG    1       -7.735   4.913   0.059  0.00  0.00    +0.050 A 
ATOM     25  C   LIG    1       -9.130   4.978   0.050  0.00  0.00    -0.060 A 
ATOM     26  C   LIG    1       -9.605   3.708   0.013  0.00  0.00    +0.230 A 
ATOM     27  N   LIG    1       -8.566   2.849  -0.006  0.00  0.00    -0.520 N 
ATOM     28  H   LIG    1       -8.633   1.881  -0.033  0.00  0.00    +0.430 HD
ENDBRANCH  22  23
ENDBRANCH  20  22
ENDBRANCH  19  20
ENDBRANCH  17  19
ENDBRANCH   1  17
TORSDOF 7
