REMARK  Name = ZINCqH0000036Nrv.0
REMARK                            x       y       z     vdW  Elec       q    Type
REMARK                         _______ _______ _______ _____ _____    ______ ____
ROOT
ATOM      1  N   LIG    1       -2.656   9.558   0.587  0.00  0.00    -0.620 N 
ATOM      2  C   LIG    1       -2.703   8.298  -0.164  0.00  0.00    +0.310 C 
ATOM      3  C   LIG    1       -1.256   7.758  -0.152  0.00  0.00    +0.010 C 
ATOM      4  C   LIG    1       -0.685   8.410   1.128  0.00  0.00    +0.070 C 
ATOM      5  C   LIG    1       -1.537   9.645   1.326  0.00  0.00    +0.520 C 
ATOM      6  O   LIG    1       -1.251  10.578   2.047  0.00  0.00    -0.510 OA
ENDROOT
BRANCH   3   7
ATOM      7  C   LIG    1       -1.242   6.255  -0.044  0.00  0.00    +0.530 C 
ATOM      8  N   LIG    1       -0.070   5.596   0.044  0.00  0.00    -0.670 N 
ATOM      9  H   LIG    1        0.760   6.092   0.124  0.00  0.00    +0.420 HD
ATOM     10  O   LIG    1       -2.286   5.638  -0.036  0.00  0.00    -0.500 OA
BRANCH   8  11
ATOM     11  C   LIG    1       -0.049   4.201   0.021  0.00  0.00    +0.190 A 
ATOM     12  C   LIG    1       -1.073   3.503  -0.611  0.00  0.00    +0.030 A 
ATOM     13  C   LIG    1       -1.058   2.126  -0.637  0.00  0.00    +0.120 A 
ATOM     14  C   LIG    1       -0.011   1.429  -0.027  0.00  0.00    -0.040 A 
ATOM     15  C   LIG    1        1.015   2.134   0.613  0.00  0.00    +0.030 A 
ATOM     16 CL   LIG    1        2.314   1.275   1.379  0.00  0.00    -0.040 Cl
ATOM     17  C   LIG    1        0.995   3.512   0.629  0.00  0.00    +0.010 A 
BRANCH  14  18
ATOM     18  C   LIG    1        0.009  -0.002  -0.052  0.00  0.00    +0.250 C 
ATOM     19  N   LIG    1        0.025  -1.138  -0.071  0.00  0.00    -0.390 NA
ENDBRANCH  14  18
ENDBRANCH   8  11
ENDBRANCH   3   7
BRANCH   1  21
ATOM     20  C   LIG    1       -4.184  10.889   1.957  0.00  0.00    +0.040 C 
ATOM     21  C   LIG    1       -3.696  10.589   0.538  0.00  0.00    +0.300 C 
BRANCH  21  22
ATOM     22  C   LIG    1       -3.131  11.844  -0.075  0.00  0.00    -0.090 A 
ATOM     23  C   LIG    1       -3.628  13.079   0.296  0.00  0.00    +0.020 A 
ATOM     24  C   LIG    1       -3.106  14.231  -0.263  0.00  0.00    +0.000 A 
ATOM     25  C   LIG    1       -2.094  14.146  -1.201  0.00  0.00    +0.000 A 
ATOM     26  C   LIG    1       -1.600  12.911  -1.576  0.00  0.00    +0.000 A 
ATOM     27  C   LIG    1       -2.119  11.760  -1.013  0.00  0.00    +0.010 A 
ENDBRANCH  21  22
ENDBRANCH   1  21
TORSDOF 5
