REMARK  Name = ZINCb700000010oy.0
REMARK                            x       y       z     vdW  Elec       q    Type
REMARK                         _______ _______ _______ _____ _____    ______ ____
ROOT
ATOM      1  C   LIG    1        0.002  -0.004   0.002  0.00  0.00    +0.120 C 
ATOM      2  C   LIG    1       -0.019   1.526   0.010  0.00  0.00    +0.200 C 
ENDROOT
BRANCH   2   3
ATOM      3  N   LIG    1       -0.706   2.000   1.219  0.00  0.00    -0.490 N 
ATOM      4  H   LIG    1       -1.625   1.584   1.268  0.00  0.00    +0.430 HD
ATOM      5  H   LIG    1       -0.793   3.004   1.185  0.00  0.00    +0.430 HD
BRANCH   3   6
ATOM      6  C   LIG    1        0.069   1.615   2.406  0.00  0.00    +0.090 C 
ATOM      7  C   LIG    1       -0.583   0.642   3.391  0.00  0.00    +0.110 C 
ATOM      8  C   LIG    1       -0.423   2.118   3.765  0.00  0.00    +0.110 C 
ENDBRANCH   3   6
ENDBRANCH   2   3
BRANCH   2   9
ATOM      9  C   LIG    1       -0.759   2.033  -1.229  0.00  0.00    -0.320 C 
BRANCH   9  10
ATOM     10  S   LIG    1       -0.656   3.842  -1.297  0.00  0.00    +2.400 S 
ATOM     11  O   LIG    1        0.702   4.212  -1.493  0.00  0.00    -0.910 OA
ATOM     12  O   LIG    1       -1.367   4.378  -0.190  0.00  0.00    -0.940 OA
ATOM     13  C   LIG    1       -1.581   4.214  -2.812  0.00  0.00    -0.210 C 
ENDBRANCH   9  10
ENDBRANCH   2   9
TORSDOF 4
