REMARK  Name = ZINCpk00000jmhtV.0
REMARK                            x       y       z     vdW  Elec       q    Type
REMARK                         _______ _______ _______ _____ _____    ______ ____
ROOT
ATOM      1  N   LIG    1       -3.379   2.587   2.106  0.00  0.00    -0.720 N 
ATOM      2  H   LIG    1       -2.702   3.116   2.556  0.00  0.00    +0.400 HD
ATOM      3  C   LIG    1       -4.239   1.839   2.825  0.00  0.00    +0.590 C 
ATOM      4  O   LIG    1       -5.088   1.175   2.260  0.00  0.00    -0.510 OA
ENDROOT
BRANCH   3   5
ATOM      5  C   LIG    1       -4.152   1.825   4.292  0.00  0.00    +0.010 A 
ATOM      6  C   LIG    1       -4.960   1.115   5.123  0.00  0.00    +0.090 A 
ATOM      7  C   LIG    1       -4.548   1.375   6.451  0.00  0.00    -0.170 A 
ATOM      8  C   LIG    1       -5.000   0.931   7.703  0.00  0.00    +0.190 A 
ATOM      9  C   LIG    1       -4.379   1.375   8.849  0.00  0.00    -0.070 A 
ATOM     10  C   LIG    1       -3.308   2.258   8.772  0.00  0.00    +0.170 A 
ATOM     11  C   LIG    1       -2.850   2.704   7.549  0.00  0.00    -0.040 A 
ATOM     12  F   LIG    1       -2.708   2.683   9.906  0.00  0.00    -0.120 F 
ATOM     13  F   LIG    1       -6.041   0.074   7.784  0.00  0.00    -0.120 F 
ATOM     14  C   LIG    1       -3.462   2.270   6.378  0.00  0.00    +0.170 A 
ATOM     15  N   LIG    1       -3.232   2.529   5.047  0.00  0.00    -0.570 N 
ATOM     16  H   LIG    1       -2.539   3.110   4.696  0.00  0.00    +0.420 HD
ENDBRANCH   3   5
BRANCH   1  25
ATOM     17  C   LIG    1       -3.178   5.096   0.984  0.00  0.00    +0.050 C 
ATOM     18  C   LIG    1       -2.874   3.912   0.063  0.00  0.00    -0.080 C 
ATOM     19  C   LIG    1       -1.359   3.622   0.028  0.00  0.00    +0.260 C 
ATOM     20  N   LIG    1       -1.195   2.161   0.019  0.00  0.00    -0.620 N 
ATOM     21  C   LIG    1       -2.529   1.535   0.016  0.00  0.00    +0.250 C 
ATOM     22  C   LIG    1       -0.018   1.503   0.010  0.00  0.00    +0.530 C 
ATOM     23  O   LIG    1        1.024   2.123   0.004  0.00  0.00    -0.510 OA
ATOM     24  C   LIG    1       -3.408   4.174  -1.347  0.00  0.00    +0.060 C 
ATOM     25  C   LIG    1       -3.466   2.600   0.643  0.00  0.00    +0.260 C 
BRANCH  22  26
ATOM     26  C   LIG    1        0.002  -0.004   0.002  0.00  0.00    +0.220 C 
BRANCH  26  27
ATOM     27  O   LIG    1        1.356  -0.462  -0.013  0.00  0.00    -0.550 OA
ATOM     28  H   LIG    1        1.445  -1.425  -0.019  0.00  0.00    +0.390 HD
ENDBRANCH  26  27
ENDBRANCH  22  26
ENDBRANCH   1  25
TORSDOF 4
