REMARK  Name = ZINCnE000001JUKJ.0
REMARK                            x       y       z     vdW  Elec       q    Type
REMARK                         _______ _______ _______ _____ _____    ______ ____
ROOT
ATOM      1  C   LIG    1       -0.351   4.500  -0.708  0.00  0.00    +0.080 C 
ENDROOT
BRANCH   1   2
ATOM      2  C   LIG    1       -0.335   5.986  -0.459  0.00  0.00    +0.410 C 
ATOM      3  O   LIG    1        0.715   6.593  -0.483  0.00  0.00    -0.430 OA
BRANCH   2   4
ATOM      4  C   LIG    1       -1.592   6.701  -0.187  0.00  0.00    -0.170 A 
ATOM      5  C   LIG    1       -2.816   6.031  -0.282  0.00  0.00    +0.080 A 
ATOM      6  C   LIG    1       -3.990   6.707  -0.025  0.00  0.00    -0.110 A 
ATOM      7  C   LIG    1       -3.959   8.046   0.325  0.00  0.00    -0.050 A 
ATOM      8  C   LIG    1       -2.752   8.716   0.422  0.00  0.00    -0.010 A 
ATOM      9  C   LIG    1       -5.247   8.777   0.604  0.00  0.00    +0.090 C 
ATOM     10  C   LIG    1       -5.310   5.988  -0.128  0.00  0.00    +0.090 C 
ATOM     11  C   LIG    1       -1.569   8.052   0.173  0.00  0.00    -0.020 A 
ATOM     12  C   LIG    1       -0.255   8.782   0.284  0.00  0.00    +0.110 C 
ENDBRANCH   2   4
ENDBRANCH   1   2
BRANCH   1  13
ATOM     13  S   LIG    1        1.340   3.918  -1.010  0.00  0.00    +0.010 S 
BRANCH  13  18
ATOM     14  N   LIG    1        1.550  -1.627  -1.970  0.00  0.00    -0.620 NA
ATOM     15  C   LIG    1        1.264  -0.371  -1.724  0.00  0.00    +0.330 A 
ATOM     16  N   LIG    1        0.037   0.175  -1.484  0.00  0.00    -0.510 NA
ATOM     17  N   LIG    1        0.008   1.531  -1.252  0.00  0.00    -0.250 NA
ATOM     18  C   LIG    1        1.123   2.190  -1.275  0.00  0.00    -0.080 A 
ATOM     19  S   LIG    1        2.388   0.998  -1.627  0.00  0.00    -0.100 S 
BRANCH  14  20
ATOM     20  C   LIG    1        0.480  -2.627  -2.010  0.00  0.00    +0.210 C 
BRANCH  20  21
ATOM     21  C   LIG    1        0.364  -3.193  -3.427  0.00  0.00    +0.150 C 
BRANCH  21  23
ATOM     22  C   LIG    1        1.554  -4.477  -5.064  0.00  0.00    +0.170 C 
ATOM     23  O   LIG    1        1.559  -3.905  -3.755  0.00  0.00    -0.370 OA
ENDBRANCH  21  23
ENDBRANCH  20  21
ENDBRANCH  14  20
ENDBRANCH  13  18
ENDBRANCH   1  13
TORSDOF 7
