REMARK  Name = ZINCrH000004t6BK.0
REMARK                            x       y       z     vdW  Elec       q    Type
REMARK                         _______ _______ _______ _____ _____    ______ ____
ROOT
ATOM      1  C   LIG    1        0.639   1.600   1.885  0.00  0.00    +0.560 C 
ATOM      2  N   LIG    1       -0.272   0.983   1.107  0.00  0.00    -0.720 N 
ATOM      3  H   LIG    1       -0.040   0.160   0.648  0.00  0.00    +0.410 HD
ATOM      4  O   LIG    1        0.349   2.631   2.460  0.00  0.00    -0.540 OA
ENDROOT
BRANCH   1  11
ATOM      5  C   LIG    1        6.605  -1.520   2.178  0.00  0.00    +0.340 C 
ATOM      6  N   LIG    1        5.826  -0.368   2.638  0.00  0.00    -0.500 N 
ATOM      7  C   LIG    1        6.260   0.617   3.472  0.00  0.00    +0.480 A 
ATOM      8  N   LIG    1        5.312   1.483   3.673  0.00  0.00    -0.490 NA
ATOM      9  C   LIG    1        4.202   1.113   2.982  0.00  0.00    +0.030 A 
ATOM     10  C   LIG    1        2.930   1.663   2.842  0.00  0.00    +0.150 A 
ATOM     11  C   LIG    1        1.991   1.024   2.038  0.00  0.00    -0.150 A 
ATOM     12  C   LIG    1        2.321  -0.167   1.379  0.00  0.00    +0.060 A 
ATOM     13  C   LIG    1        3.568  -0.706   1.509  0.00  0.00    +0.020 A 
ATOM     14  C   LIG    1        4.519  -0.082   2.308  0.00  0.00    +0.070 A 
ENDBRANCH   1  11
BRANCH   2  15
ATOM     15  C   LIG    1       -1.610   1.557   0.949  0.00  0.00    +0.280 C 
BRANCH  15  16
ATOM     16  C   LIG    1       -2.439   0.671   0.017  0.00  0.00    +0.210 C 
BRANCH  16  17
ATOM     17  C   LIG    1       -3.816   1.261  -0.143  0.00  0.00    -0.110 A 
ATOM     18  C   LIG    1       -4.888   0.706   0.530  0.00  0.00    +0.040 A 
ATOM     19  C   LIG    1       -6.152   1.247   0.383  0.00  0.00    +0.010 A 
ATOM     20  C   LIG    1       -6.345   2.343  -0.437  0.00  0.00    +0.030 A 
ATOM     21  C   LIG    1       -5.273   2.898  -1.111  0.00  0.00    +0.030 A 
ATOM     22  C   LIG    1       -4.007   2.361  -0.960  0.00  0.00    -0.030 A 
ATOM     23 CL   LIG    1       -2.660   3.063  -1.800  0.00  0.00    -0.060 Cl
ENDBRANCH  16  17
BRANCH  16  24
ATOM     24  N   LIG    1       -2.547  -0.677   0.591  0.00  0.00    -0.500 NA
ATOM     25  C   LIG    1       -2.945  -0.617   2.021  0.00  0.00    +0.170 C 
ATOM     26  C   LIG    1       -3.509  -2.034   2.292  0.00  0.00    +0.020 C 
ATOM     27  C   LIG    1       -4.244  -2.371   0.974  0.00  0.00    +0.020 C 
ATOM     28  C   LIG    1       -3.603  -1.459  -0.088  0.00  0.00    +0.160 C 
ENDBRANCH  16  24
ENDBRANCH  15  16
ENDBRANCH   2  15
TORSDOF 5
