REMARK  Name = ZINCvU0000000Ajp.0
REMARK                            x       y       z     vdW  Elec       q    Type
REMARK                         _______ _______ _______ _____ _____    ______ ____
ROOT
ATOM      1  C   LIG    1        3.871   5.325  -0.168  0.00  0.00    +0.270 C 
ENDROOT
BRANCH   1   3
ATOM      2  O   LIG    1        5.632   3.765  -0.350  0.00  0.00    -0.480 OA
ATOM      3  C   LIG    1        5.324   4.927  -0.188  0.00  0.00    +0.510 C 
ATOM      4  N   LIG    1        6.281   5.862  -0.027  0.00  0.00    -0.670 N 
ATOM      5  H   LIG    1        6.039   6.800   0.026  0.00  0.00    +0.420 HD
BRANCH   4   6
ATOM      6  C   LIG    1        7.626   5.479   0.065  0.00  0.00    +0.130 A 
ATOM      7  C   LIG    1        7.966   4.275   0.668  0.00  0.00    +0.070 A 
ATOM      8  C   LIG    1        9.291   3.896   0.753  0.00  0.00    -0.030 A 
ATOM      9  C   LIG    1       10.283   4.723   0.247  0.00  0.00    +0.090 A 
ATOM     10  C   LIG    1        9.945   5.928  -0.350  0.00  0.00    +0.050 A 
ATOM     11  C   LIG    1        8.620   6.306  -0.441  0.00  0.00    +0.030 A 
BRANCH   9  12
ATOM     12  O   LIG    1       11.588   4.351   0.337  0.00  0.00    -0.310 OA
BRANCH  12  13
ATOM     13  C   LIG    1       11.864   3.097   0.964  0.00  0.00    +0.600 C 
ATOM     14  F   LIG    1       11.388   3.119   2.280  0.00  0.00    -0.160 F 
ATOM     15  F   LIG    1       13.245   2.874   0.972  0.00  0.00    -0.130 F 
ATOM     16  F   LIG    1       11.229   2.072   0.256  0.00  0.00    -0.160 F 
ENDBRANCH  12  13
ENDBRANCH   9  12
ENDBRANCH   4   6
ENDBRANCH   1   3
BRANCH   1  17
ATOM     17  O   LIG    1        3.057   4.166  -0.359  0.00  0.00    -0.260 OA
BRANCH  17  18
ATOM     18  C   LIG    1        1.715   4.352  -0.367  0.00  0.00    +0.420 A 
ATOM     19  C   LIG    1        0.840   3.256  -0.549  0.00  0.00    -0.180 A 
ATOM     20  C   LIG    1        1.128   1.841  -0.749  0.00  0.00    -0.010 A 
ATOM     21  C   LIG    1        0.049   1.073  -0.889  0.00  0.00    -0.020 A 
ATOM     22  S   LIG    1       -1.423   2.021  -0.795  0.00  0.00    +0.200 S 
ATOM     23  C   LIG    1       -0.533   3.515  -0.547  0.00  0.00    +0.110 A 
ATOM     24  N   LIG    1       -0.956   4.774  -0.374  0.00  0.00    -0.510 NA
ATOM     25  C   LIG    1       -0.103   5.758  -0.208  0.00  0.00    +0.560 A 
ATOM     26  N   LIG    1        1.203   5.561  -0.203  0.00  0.00    -0.580 NA
BRANCH  20  27
ATOM     27  C   LIG    1        2.508   1.301  -0.792  0.00  0.00    -0.040 A 
ATOM     28  C   LIG    1        3.464   1.889  -1.618  0.00  0.00    +0.040 A 
ATOM     29  C   LIG    1        4.749   1.386  -1.648  0.00  0.00    +0.030 A 
ATOM     30  C   LIG    1        5.085   0.292  -0.871  0.00  0.00    +0.010 A 
ATOM     31  C   LIG    1        4.138  -0.299  -0.053  0.00  0.00    +0.000 A 
ATOM     32  C   LIG    1        2.852   0.199  -0.010  0.00  0.00    +0.010 A 
ENDBRANCH  20  27
ENDBRANCH  17  18
ENDBRANCH   1  17
TORSDOF 7
