REMARK  Name = ZINCpe000000VBKw.0
REMARK                            x       y       z     vdW  Elec       q    Type
REMARK                         _______ _______ _______ _____ _____    ______ ____
ROOT
ATOM      1  C   LIG    1        3.928   0.143  -2.907  0.00  0.00    -0.130 A 
ATOM      2  C   LIG    1        2.787   0.444  -3.658  0.00  0.00    +0.080 A 
ATOM      3  C   LIG    1        1.537   0.200  -3.134  0.00  0.00    +0.040 A 
ATOM      4  C   LIG    1        1.418  -0.347  -1.857  0.00  0.00    +0.130 A 
ATOM      5  C   LIG    1        2.548  -0.642  -1.118  0.00  0.00    -0.120 A 
ATOM      6  C   LIG    1        2.407  -1.231   0.270  0.00  0.00    +0.070 C 
ATOM      7  C   LIG    1        1.877  -2.662   0.132  0.00  0.00    +0.020 C 
ATOM      8  C   LIG    1        0.367  -2.660  -0.015  0.00  0.00    -0.010 C 
ATOM      9  C   LIG    1       -0.124  -2.035  -1.308  0.00  0.00    +0.220 C 
ATOM     10  N   LIG    1        0.146  -0.593  -1.336  0.00  0.00    -0.490 N 
ATOM     11  C   LIG    1        3.794  -0.405  -1.627  0.00  0.00    +0.100 A 
ENDROOT
BRANCH   1  12
ATOM     12  C   LIG    1        5.268   0.401  -3.464  0.00  0.00    +0.510 C 
ATOM     13  O   LIG    1        6.258   0.139  -2.811  0.00  0.00    -0.510 OA
BRANCH  12  15
ATOM     14  C   LIG    1        6.744   1.156  -5.182  0.00  0.00    +0.260 C 
ATOM     15  O   LIG    1        5.395   0.929  -4.698  0.00  0.00    -0.350 OA
ENDBRANCH  12  15
ENDBRANCH   1  12
BRANCH  10  16
ATOM     16  C   LIG    1        0.002  -0.004   0.002  0.00  0.00    +0.300 C 
BRANCH  16  17
ATOM     17  C   LIG    1       -1.442   0.356   0.240  0.00  0.00    -0.000 A 
ATOM     18  C   LIG    1       -2.371  -0.399   0.871  0.00  0.00    +0.140 A 
ATOM     19  N   LIG    1       -3.517   0.322   0.853  0.00  0.00    -0.290 N 
ATOM     20  N   LIG    1       -3.286   1.431   0.243  0.00  0.00    -0.050 NA
ATOM     21  N   LIG    1       -2.058   1.483  -0.135  0.00  0.00    -0.250 NA
BRANCH  19  22
ATOM     22  C   LIG    1       -4.800  -0.093   1.425  0.00  0.00    +0.370 C 
BRANCH  22  23
ATOM     23  C   LIG    1       -5.287   0.961   2.386  0.00  0.00    +0.500 C 
ATOM     24  O   LIG    1       -4.626   1.960   2.575  0.00  0.00    -0.510 OA
ATOM     25  N   LIG    1       -6.455   0.793   3.035  0.00  0.00    -0.850 N 
ATOM     26  H   LIG    1       -6.768   1.471   3.654  0.00  0.00    +0.410 HD
ATOM     27  H   LIG    1       -6.984  -0.006   2.884  0.00  0.00    +0.400 HD
ENDBRANCH  22  23
ENDBRANCH  19  22
ENDBRANCH  16  17
ENDBRANCH  10  16
TORSDOF 6
