REMARK  Name = ZINCvU00000007py.0
REMARK                            x       y       z     vdW  Elec       q    Type
REMARK                         _______ _______ _______ _____ _____    ______ ____
ROOT
ATOM      1  C   LIG    1       -0.077   3.601  -0.452  0.00  0.00    -0.160 A 
ATOM      2  C   LIG    1        1.041   2.768  -0.428  0.00  0.00    +0.110 A 
ATOM      3  C   LIG    1        0.891   1.395  -0.357  0.00  0.00    -0.010 A 
ATOM      4  C   LIG    1       -0.367   0.829  -0.308  0.00  0.00    +0.150 A 
ATOM      5  C   LIG    1       -1.497   1.645  -0.335  0.00  0.00    -0.230 A 
ATOM      6  C   LIG    1       -2.857   1.073  -0.278  0.00  0.00    +0.430 A 
ATOM      7  O   LIG    1       -3.037  -0.132  -0.214  0.00  0.00    -0.460 OA
ATOM      8  C   LIG    1       -3.944   1.979  -0.306  0.00  0.00    -0.280 A 
ATOM      9  C   LIG    1       -5.361   1.467  -0.257  0.00  0.00    +0.130 C 
ATOM     10  C   LIG    1       -3.701   3.315  -0.377  0.00  0.00    +0.200 A 
ATOM     11  O   LIG    1       -2.458   3.820  -0.423  0.00  0.00    -0.180 OA
ATOM     12  C   LIG    1       -1.361   3.039  -0.402  0.00  0.00    +0.200 A 
ENDROOT
BRANCH  10  13
ATOM     13  C   LIG    1       -4.847   4.245  -0.406  0.00  0.00    -0.070 A 
ATOM     14  C   LIG    1       -5.895   4.039  -1.306  0.00  0.00    +0.050 A 
ATOM     15  C   LIG    1       -6.966   4.909  -1.322  0.00  0.00    +0.010 A 
ATOM     16  C   LIG    1       -6.997   5.990  -0.459  0.00  0.00    +0.040 A 
ATOM     17  C   LIG    1       -5.960   6.203   0.431  0.00  0.00    +0.010 A 
ATOM     18  C   LIG    1       -4.886   5.338   0.463  0.00  0.00    +0.060 A 
ENDBRANCH  10  13
BRANCH   1  21
ATOM     19  N   LIG    1        1.327   5.601  -0.575  0.00  0.00    -0.720 N 
ATOM     20  H   LIG    1        2.106   5.024  -0.559  0.00  0.00    +0.400 HD
ATOM     21  C   LIG    1        0.091   5.065  -0.528  0.00  0.00    +0.560 C 
ATOM     22  O   LIG    1       -0.886   5.789  -0.548  0.00  0.00    -0.510 OA
BRANCH  19  23
ATOM     23  C   LIG    1        1.493   7.054  -0.651  0.00  0.00    +0.300 C 
ATOM     24  C   LIG    1        1.533   7.637   0.763  0.00  0.00    +0.030 C 
BRANCH  23  30
ATOM     25  C   LIG    1        2.910   8.568  -2.061  0.00  0.00    +0.140 A 
ATOM     26  C   LIG    1        4.097   8.862  -2.716  0.00  0.00    -0.070 A 
ATOM     27  C   LIG    1        5.149   7.967  -2.671  0.00  0.00    +0.050 A 
ATOM     28  C   LIG    1        5.019   6.780  -1.974  0.00  0.00    -0.020 A 
ATOM     29  C   LIG    1        3.838   6.487  -1.317  0.00  0.00    +0.040 A 
ATOM     30  C   LIG    1        2.781   7.376  -1.363  0.00  0.00    -0.120 A 
BRANCH  25  32
ATOM     31  C   LIG    1        2.077  10.654  -2.841  0.00  0.00    +0.250 C 
ATOM     32  O   LIG    1        1.874   9.447  -2.104  0.00  0.00    -0.310 OA
ENDBRANCH  25  32
ENDBRANCH  23  30
ENDBRANCH  19  23
ENDBRANCH   1  21
TORSDOF 5
