REMARK  Name = ZINCtV00001bB3uR.0
REMARK                            x       y       z     vdW  Elec       q    Type
REMARK                         _______ _______ _______ _____ _____    ______ ____
ROOT
ATOM      1  C   LIG    1       -1.277   6.721  -0.055  0.00  0.00    +0.440 A 
ATOM      2  N   LIG    1       -1.366   8.031  -0.050  0.00  0.00    -0.520 NA
ATOM      3  C   LIG    1       -0.274   8.813   0.041  0.00  0.00    +0.160 A 
ATOM      4  C   LIG    1       -0.373  10.208   0.047  0.00  0.00    +0.030 A 
ATOM      5  C   LIG    1        0.767  10.973   0.141  0.00  0.00    +0.070 A 
ATOM      6  C   LIG    1        2.018  10.377   0.231  0.00  0.00    +0.000 A 
ATOM      7  C   LIG    1        2.143   9.004   0.228  0.00  0.00    +0.100 A 
ATOM      8  C   LIG    1        1.003   8.210   0.133  0.00  0.00    -0.200 A 
ATOM      9  C   LIG    1        1.081   6.742   0.132  0.00  0.00    +0.550 A 
ATOM     10  O   LIG    1        2.151   6.167   0.215  0.00  0.00    -0.500 OA
ATOM     11  N   LIG    1       -0.080   6.054   0.031  0.00  0.00    -0.500 N 
ENDROOT
BRANCH  11  12
ATOM     12  C   LIG    1       -0.061   4.654   0.020  0.00  0.00    +0.120 A 
ATOM     13  C   LIG    1        0.035   3.969  -1.184  0.00  0.00    +0.050 A 
ATOM     14  C   LIG    1        0.054   2.588  -1.192  0.00  0.00    +0.060 A 
ATOM     15  C   LIG    1       -0.022   1.887  -0.001  0.00  0.00    -0.080 A 
ATOM     16  C   LIG    1       -0.122   2.567   1.200  0.00  0.00    +0.060 A 
ATOM     17 BR   LIG    1        0.004  -0.004  -0.016  0.00  0.00    -0.040 Br
ATOM     18  C   LIG    1       -0.137   3.948   1.214  0.00  0.00    +0.050 A 
ENDBRANCH  11  12
BRANCH   1  20
ATOM     19  C   LIG    1       -3.690   6.558  -0.347  0.00  0.00    +0.150 C 
ATOM     20  C   LIG    1       -2.509   5.937  -0.157  0.00  0.00    -0.030 C 
BRANCH  19  24
ATOM     21  C   LIG    1       -7.260   4.286  -0.643  0.00  0.00    -0.060 A 
ATOM     22  C   LIG    1       -7.312   5.665  -0.742  0.00  0.00    +0.010 A 
ATOM     23  C   LIG    1       -6.156   6.411  -0.646  0.00  0.00    +0.050 A 
ATOM     24  C   LIG    1       -4.929   5.770  -0.449  0.00  0.00    -0.090 A 
ATOM     25  C   LIG    1       -4.884   4.375  -0.355  0.00  0.00    +0.030 A 
ATOM     26  C   LIG    1       -6.050   3.644  -0.447  0.00  0.00    +0.010 A 
BRANCH  21  28
ATOM     27  C   LIG    1       -8.423   2.515  -1.932  0.00  0.00    +0.030 C 
ATOM     28  C   LIG    1       -8.528   3.479  -0.748  0.00  0.00    +0.020 C 
ATOM     29  C   LIG    1       -8.734   2.681   0.541  0.00  0.00    +0.030 C 
ENDBRANCH  21  28
ENDBRANCH  19  24
ENDBRANCH   1  20
TORSDOF 4
