REMARK  Name = ZINCrD0000073EuN.0
REMARK                            x       y       z     vdW  Elec       q    Type
REMARK                         _______ _______ _______ _____ _____    ______ ____
ROOT
ATOM      1  N   LIG    1       -1.288   6.524   0.199  0.00  0.00    -0.550 N 
ATOM      2  C   LIG    1        0.146   6.540  -0.113  0.00  0.00    +0.310 C 
ATOM      3  C   LIG    1        0.776   5.455   0.788  0.00  0.00    +0.010 C 
ATOM      4  C   LIG    1       -0.231   5.395   1.960  0.00  0.00    +0.090 C 
ATOM      5  C   LIG    1       -1.528   5.892   1.361  0.00  0.00    +0.520 C 
ATOM      6  O   LIG    1       -2.624   5.743   1.857  0.00  0.00    -0.500 OA
ENDROOT
BRANCH   1  11
ATOM      7  C   LIG    1       -2.905   8.393  -2.528  0.00  0.00    +0.150 A 
ATOM      8  C   LIG    1       -4.243   8.219  -2.205  0.00  0.00    -0.100 A 
ATOM      9  C   LIG    1       -4.596   7.485  -1.088  0.00  0.00    +0.080 A 
ATOM     10  C   LIG    1       -3.619   6.923  -0.290  0.00  0.00    -0.030 A 
ATOM     11  C   LIG    1       -2.278   7.094  -0.609  0.00  0.00    +0.210 A 
ATOM     12  C   LIG    1       -1.921   7.835  -1.727  0.00  0.00    -0.060 A 
BRANCH   7  14
ATOM     13  C   LIG    1       -3.625   9.665  -4.403  0.00  0.00    +0.250 C 
ATOM     14  O   LIG    1       -2.559   9.114  -3.626  0.00  0.00    -0.320 OA
ENDBRANCH   7  14
ENDBRANCH   1  11
BRANCH   3  15
ATOM     15  C   LIG    1        0.847   4.132   0.069  0.00  0.00    +0.520 C 
ATOM     16  N   LIG    1        1.251   3.028   0.729  0.00  0.00    -0.720 N 
ATOM     17  H   LIG    1        1.496   3.085   1.665  0.00  0.00    +0.400 HD
ATOM     18  O   LIG    1        0.541   4.061  -1.102  0.00  0.00    -0.520 OA
BRANCH  16  19
ATOM     19  C   LIG    1        1.320   1.742   0.030  0.00  0.00    +0.320 C 
BRANCH  19  20
ATOM     20  C   LIG    1        2.323   0.851   0.717  0.00  0.00    -0.090 A 
ATOM     21  C   LIG    1        2.400   0.832   2.096  0.00  0.00    +0.010 A 
ATOM     22  C   LIG    1        3.317   0.011   2.726  0.00  0.00    +0.000 A 
ATOM     23  C   LIG    1        4.162  -0.784   1.976  0.00  0.00    +0.000 A 
ATOM     24  C   LIG    1        4.089  -0.762   0.596  0.00  0.00    +0.020 A 
ATOM     25  C   LIG    1        3.169   0.056  -0.034  0.00  0.00    +0.020 A 
ENDBRANCH  19  20
BRANCH  19  26
ATOM     26  C   LIG    1       -0.056   1.074   0.053  0.00  0.00    -0.060 C 
ATOM     27  C   LIG    1       -1.169   1.778   0.833  0.00  0.00    +0.010 C 
ATOM     28  C   LIG    1       -1.192   1.771  -0.698  0.00  0.00    +0.030 C 
ENDBRANCH  19  26
ENDBRANCH  16  19
ENDBRANCH   3  15
TORSDOF 6
