REMARK  Name = ZINCvU0000000ILJ.0
REMARK                            x       y       z     vdW  Elec       q    Type
REMARK                         _______ _______ _______ _____ _____    ______ ____
ROOT
ATOM      1  C   LIG    1        0.974  -3.965  -3.160  0.00  0.00    +0.000 C 
ATOM      2  C   LIG    1        1.394  -2.554  -3.595  0.00  0.00    +0.210 C 
ATOM      3  N   LIG    1        1.453  -2.189  -2.168  0.00  0.00    -0.420 N 
ATOM      4  C   LIG    1        0.446  -3.236  -1.916  0.00  0.00    +0.200 C 
ENDROOT
BRANCH   3   5
ATOM      5  C   LIG    1        0.921  -0.927  -1.956  0.00  0.00    +0.340 A 
ATOM      6  N   LIG    1        0.445  -0.218  -2.973  0.00  0.00    -0.540 NA
ATOM      7  C   LIG    1       -0.061   0.983  -2.772  0.00  0.00    +0.380 A 
ATOM      8  N   LIG    1       -0.116   1.520  -1.571  0.00  0.00    -0.520 NA
ATOM      9  C   LIG    1        0.339   0.869  -0.502  0.00  0.00    +0.200 A 
ATOM     10  C   LIG    1        0.233   1.536   0.842  0.00  0.00    +0.130 C 
ATOM     11  C   LIG    1        1.164   0.862   1.849  0.00  0.00    +0.030 C 
ATOM     12  C   LIG    1        0.906  -0.648   1.808  0.00  0.00    -0.020 C 
ATOM     13  C   LIG    1        1.648  -1.323   2.963  0.00  0.00    +0.030 C 
ATOM     14  C   LIG    1        1.425  -1.192   0.477  0.00  0.00    +0.110 C 
ATOM     15 CL   LIG    1       -0.670   1.881  -4.128  0.00  0.00    +0.030 Cl
ATOM     16  C   LIG    1        0.878  -0.383  -0.666  0.00  0.00    -0.170 A 
ENDBRANCH   3   5
BRANCH   1  22
ATOM     17  C   LIG    1       -1.122  -4.875  -7.403  0.00  0.00    +0.540 C 
ATOM     18  N   LIG    1       -0.629  -5.413  -6.270  0.00  0.00    -0.610 N 
ATOM     19  C   LIG    1       -1.088  -6.729  -5.805  0.00  0.00    +0.260 C 
ATOM     20  C   LIG    1       -1.567  -6.601  -4.356  0.00  0.00    +0.010 C 
ATOM     21  C   LIG    1       -0.452  -5.989  -3.506  0.00  0.00    +0.030 C 
ATOM     22  C   LIG    1       -0.119  -4.590  -4.030  0.00  0.00    -0.010 C 
ATOM     23  C   LIG    1        0.377  -4.695  -5.476  0.00  0.00    +0.280 C 
ATOM     24  O   LIG    1       -0.797  -3.754  -7.733  0.00  0.00    -0.530 OA
BRANCH  17  25
ATOM     25  C   LIG    1       -2.078  -5.665  -8.259  0.00  0.00    -0.080 C 
ATOM     26  C   LIG    1       -1.450  -7.016  -8.609  0.00  0.00    +0.040 C 
ATOM     27  C   LIG    1       -2.370  -4.890  -9.546  0.00  0.00    +0.060 C 
BRANCH  25  28
ATOM     28  C   LIG    1       -3.382  -5.892  -7.492  0.00  0.00    +0.040 C 
BRANCH  28  30
ATOM     29  C   LIG    1       -5.484  -4.798  -6.700  0.00  0.00    +0.000 C 
ATOM     30  C   LIG    1       -4.094  -4.553  -7.291  0.00  0.00    -0.020 C 
ATOM     31  C   LIG    1       -3.280  -3.681  -6.333  0.00  0.00    +0.010 C 
ENDBRANCH  28  30
ENDBRANCH  25  28
ENDBRANCH  17  25
ENDBRANCH   1  22
TORSDOF 5
