REMARK  Name = ZINCqH0000005aqB.0
REMARK                            x       y       z     vdW  Elec       q    Type
REMARK                         _______ _______ _______ _____ _____    ______ ____
ROOT
ATOM      1  C   LIG    1       -0.018   1.461   0.010  0.00  0.00    +0.290 C 
ENDROOT
BRANCH   1   2
ATOM      2  N   LIG    1        0.002  -0.004   0.002  0.00  0.00    -0.700 N 
ATOM      3  H   LIG    1       -0.684  -0.496  -0.476  0.00  0.00    +0.400 HD
ATOM      4  C   LIG    1        0.974  -0.668   0.659  0.00  0.00    +0.660 C 
ATOM      5  O   LIG    1        1.833  -0.052   1.257  0.00  0.00    -0.550 OA
BRANCH   4   6
ATOM      6  O   LIG    1        0.992  -2.015   0.651  0.00  0.00    -0.370 OA
BRANCH   6   7
ATOM      7  C   LIG    1        2.067  -2.663   1.380  0.00  0.00    +0.140 C 
ATOM      8  C   LIG    1        3.413  -2.231   0.794  0.00  0.00    +0.040 C 
ATOM      9  C   LIG    1        1.923  -4.182   1.258  0.00  0.00    +0.060 C 
ATOM     10  C   LIG    1        2.000  -2.261   2.854  0.00  0.00    +0.030 C 
ENDBRANCH   6   7
ENDBRANCH   4   6
ENDBRANCH   1   2
BRANCH   1  11
ATOM     11  C   LIG    1       -0.758   1.968  -1.230  0.00  0.00    +0.060 C 
BRANCH  11  14
ATOM     12  C   LIG    1       -1.707   2.675  -3.804  0.00  0.00    +0.270 C 
ATOM     13  N   LIG    1       -0.451   1.930  -3.684  0.00  0.00    -0.620 N 
ATOM     14  C   LIG    1        0.014   1.586  -2.466  0.00  0.00    +0.510 C 
ATOM     15  O   LIG    1        1.054   0.970  -2.366  0.00  0.00    -0.520 OA
BRANCH  13  16
ATOM     16  C   LIG    1        0.299   1.559  -4.886  0.00  0.00    +0.280 C 
BRANCH  16  17
ATOM     17  C   LIG    1       -0.169   0.188  -5.377  0.00  0.00    -0.040 C 
ATOM     18  C   LIG    1        0.552  -0.989  -4.698  0.00  0.00    +0.030 C 
ATOM     19  C   LIG    1        0.572  -1.669  -6.079  0.00  0.00    +0.000 C 
ATOM     20  C   LIG    1        0.499  -0.258  -6.688  0.00  0.00    +0.020 C 
ENDBRANCH  16  17
ENDBRANCH  13  16
ENDBRANCH  11  14
ENDBRANCH   1  11
BRANCH   1  21
ATOM     21  C   LIG    1       -0.734   1.954   1.269  0.00  0.00    +0.070 C 
BRANCH  21  22
ATOM     22  C   LIG    1        0.061   1.560   2.487  0.00  0.00    -0.060 A 
ATOM     23  C   LIG    1       -0.182   0.349   3.109  0.00  0.00    +0.000 A 
ATOM     24  C   LIG    1        0.551  -0.015   4.223  0.00  0.00    +0.000 A 
ATOM     25  C   LIG    1        1.520   0.836   4.721  0.00  0.00    -0.010 A 
ATOM     26  C   LIG    1        1.760   2.048   4.102  0.00  0.00    +0.010 A 
ATOM     27  C   LIG    1        1.031   2.410   2.985  0.00  0.00    +0.000 A 
ENDBRANCH  21  22
ENDBRANCH   1  21
TORSDOF 9
