REMARK  Name = ZINCrH00000tj0Si.0
REMARK                            x       y       z     vdW  Elec       q    Type
REMARK                         _______ _______ _______ _____ _____    ______ ____
ROOT
ATOM      1  N   LIG    1        0.783   5.969  -3.743  0.00  0.00    -0.680 N 
ATOM      2  H   LIG    1        0.184   6.458  -4.330  0.00  0.00    +0.410 HD
ATOM      3  C   LIG    1        0.287   5.275  -2.700  0.00  0.00    +0.720 C 
ATOM      4  N   LIG    1       -1.046   5.175  -2.530  0.00  0.00    -0.590 N 
ATOM      5  O   LIG    1        1.042   4.739  -1.912  0.00  0.00    -0.560 OA
ENDROOT
BRANCH   1   8
ATOM      6  C   LIG    1        4.006   6.171  -5.503  0.00  0.00    -0.650 A 
ATOM      7  C   LIG    1        2.644   6.151  -5.273  0.00  0.00    +0.110 A 
ATOM      8  C   LIG    1        2.163   5.985  -3.981  0.00  0.00    +0.150 A 
ATOM      9  C   LIG    1        3.052   5.830  -2.926  0.00  0.00    +0.110 A 
ATOM     10  C   LIG    1        4.412   5.846  -3.163  0.00  0.00    +0.040 A 
ATOM     11  C   LIG    1        4.890   6.016  -4.450  0.00  0.00    +0.030 A 
ATOM     12 CL   LIG    1        6.601   6.035  -4.745  0.00  0.00    -0.030 Cl
BRANCH   6  13
ATOM     13  S   LIG    1        4.617   6.388  -7.142  0.00  0.00    +2.690 S 
ATOM     14  O   LIG    1        5.774   7.206  -7.033  0.00  0.00    -0.930 OA
ATOM     15  O   LIG    1        3.497   6.729  -7.947  0.00  0.00    -0.950 OA
BRANCH  13  17
ATOM     16  C   LIG    1        4.191   3.972  -8.278  0.00  0.00    +0.290 C 
ATOM     17  N   LIG    1        5.139   4.908  -7.670  0.00  0.00    -1.000 NA
ATOM     18  C   LIG    1        6.549   4.535  -7.529  0.00  0.00    +0.290 C 
ENDBRANCH  13  17
ENDBRANCH   6  13
ENDBRANCH   1   8
BRANCH   4  19
ATOM     19  C   LIG    1       -1.956   5.731  -3.534  0.00  0.00    +0.180 C 
ATOM     20  C   LIG    1       -3.456   5.507  -3.330  0.00  0.00    +0.040 C 
ATOM     21  C   LIG    1       -2.711   4.744  -4.428  0.00  0.00    +0.030 C 
ENDBRANCH   4  19
BRANCH   4  22
ATOM     22  C   LIG    1       -1.585   4.511  -1.340  0.00  0.00    +0.360 C 
BRANCH  22  23
ATOM     23  C   LIG    1       -1.765   3.042  -1.624  0.00  0.00    -0.110 A 
ATOM     24  C   LIG    1       -0.735   2.157  -1.367  0.00  0.00    +0.040 A 
ATOM     25  C   LIG    1       -0.900   0.810  -1.627  0.00  0.00    +0.000 A 
ATOM     26  C   LIG    1       -2.096   0.347  -2.143  0.00  0.00    +0.010 A 
ATOM     27  C   LIG    1       -3.125   1.232  -2.404  0.00  0.00    -0.010 A 
ATOM     28  C   LIG    1       -2.961   2.579  -2.140  0.00  0.00    +0.010 A 
ENDBRANCH  22  23
ENDBRANCH   4  22
TORSDOF 6
