REMARK  Name = ZINCtV000002AL57.0
REMARK                            x       y       z     vdW  Elec       q    Type
REMARK                         _______ _______ _______ _____ _____    ______ ____
ROOT
ATOM      1  N   LIG    1        2.289   3.922   0.042  0.00  0.00    -0.660 N 
ATOM      2  H   LIG    1        3.128   3.440   0.111  0.00  0.00    +0.410 HD
ATOM      3  C   LIG    1        2.291   5.266  -0.064  0.00  0.00    +0.510 C 
ATOM      4  O   LIG    1        1.244   5.877  -0.046  0.00  0.00    -0.510 OA
ENDROOT
BRANCH   1  10
ATOM      5  C   LIG    1        0.997   1.968   0.654  0.00  0.00    +0.090 A 
ATOM      6  C   LIG    1       -0.205   1.280   0.661  0.00  0.00    -0.060 A 
ATOM      7  C   LIG    1       -1.323   1.836   0.066  0.00  0.00    +0.030 A 
ATOM      8  C   LIG    1       -1.247   3.082  -0.527  0.00  0.00    -0.080 A 
ATOM      9  C   LIG    1       -0.051   3.775  -0.538  0.00  0.00    +0.060 A 
ATOM     10  C   LIG    1        1.075   3.222   0.052  0.00  0.00    +0.130 A 
BRANCH   8  11
ATOM     11  C   LIG    1       -2.471   3.685  -1.168  0.00  0.00    -0.020 C 
ATOM     12  C   LIG    1       -2.804   5.012  -0.484  0.00  0.00    +0.030 C 
ATOM     13  C   LIG    1       -3.651   2.723  -1.019  0.00  0.00    +0.040 C 
ATOM     14  C   LIG    1       -2.199   3.932  -2.654  0.00  0.00    +0.040 C 
ENDBRANCH   8  11
BRANCH   5  16
ATOM     15  C   LIG    1        1.944   0.133   1.833  0.00  0.00    +0.250 C 
ATOM     16  O   LIG    1        2.099   1.421   1.235  0.00  0.00    -0.320 OA
ENDBRANCH   5  16
ENDBRANCH   1  10
BRANCH   3  17
ATOM     17  C   LIG    1        3.595   6.008  -0.206  0.00  0.00    +0.070 C 
BRANCH  17  18
ATOM     18  C   LIG    1        3.318   7.510  -0.307  0.00  0.00    +0.110 C 
BRANCH  18  19
ATOM     19  C   LIG    1        4.609   8.241  -0.571  0.00  0.00    -0.080 A 
ATOM     20  C   LIG    1        5.611   8.242   0.382  0.00  0.00    +0.010 A 
ATOM     21  C   LIG    1        6.797   8.909   0.138  0.00  0.00    +0.000 A 
ATOM     22  C   LIG    1        6.977   9.585  -1.055  0.00  0.00    +0.000 A 
ATOM     23  C   LIG    1        5.973   9.589  -2.005  0.00  0.00    +0.000 A 
ATOM     24  C   LIG    1        4.789   8.917  -1.763  0.00  0.00    +0.010 A 
ENDBRANCH  18  19
BRANCH  18  25
ATOM     25  C   LIG    1        2.719   7.998   0.987  0.00  0.00    -0.050 A 
ATOM     26  C   LIG    1        1.760   8.994   0.972  0.00  0.00    +0.020 A 
ATOM     27  C   LIG    1        1.207   9.438   2.158  0.00  0.00    +0.000 A 
ATOM     28  C   LIG    1        1.621   8.895   3.360  0.00  0.00    +0.000 A 
ATOM     29  C   LIG    1        2.584   7.904   3.375  0.00  0.00    +0.000 A 
ATOM     30  C   LIG    1        3.133   7.455   2.189  0.00  0.00    +0.000 A 
ENDBRANCH  18  25
ENDBRANCH  17  18
ENDBRANCH   3  17
TORSDOF 7
