REMARK  Name = ZINCqH0000000pWS.0
REMARK                            x       y       z     vdW  Elec       q    Type
REMARK                         _______ _______ _______ _____ _____    ______ ____
ROOT
ATOM      1  C   LIG    1       -0.718   1.572   1.248  0.00  0.00    -0.080 A 
ATOM      2  C   LIG    1       -0.357   2.780   1.817  0.00  0.00    +0.010 A 
ATOM      3  C   LIG    1       -1.003   3.232   2.950  0.00  0.00    +0.030 A 
ATOM      4  C   LIG    1       -2.013   2.464   3.526  0.00  0.00    -0.030 A 
ATOM      5  C   LIG    1       -2.369   1.245   2.952  0.00  0.00    +0.050 A 
ATOM      6  C   LIG    1       -1.720   0.805   1.816  0.00  0.00    +0.000 A 
ENDROOT
BRANCH   4   7
ATOM      7  C   LIG    1       -2.706   2.942   4.748  0.00  0.00    +0.130 A 
ATOM      8  C   LIG    1       -2.399   4.110   5.338  0.00  0.00    -0.110 A 
ATOM      9  S   LIG    1       -3.440   4.307   6.746  0.00  0.00    +0.210 S 
ATOM     10  C   LIG    1       -4.207   2.761   6.395  0.00  0.00    +0.280 A 
ATOM     11  N   LIG    1       -3.675   2.249   5.329  0.00  0.00    -0.500 NA
BRANCH  10  12
ATOM     12  N   LIG    1       -5.227   2.183   7.140  0.00  0.00    -0.620 N 
ATOM     13  H   LIG    1       -5.595   1.325   6.876  0.00  0.00    +0.420 HD
ATOM     14  C   LIG    1       -5.705   2.815   8.230  0.00  0.00    +0.590 C 
ATOM     15  O   LIG    1       -5.245   3.890   8.562  0.00  0.00    -0.490 OA
BRANCH  14  16
ATOM     16  C   LIG    1       -6.787   2.202   9.021  0.00  0.00    -0.240 A 
ATOM     17  C   LIG    1       -7.412   1.013   8.782  0.00  0.00    +0.250 A 
ATOM     18  O   LIG    1       -8.332   0.821   9.732  0.00  0.00    -0.170 OA
ATOM     19  C   LIG    1       -8.349   1.848  10.596  0.00  0.00    +0.180 A 
ATOM     20  C   LIG    1       -7.424   2.747  10.229  0.00  0.00    +0.010 A 
ENDBRANCH  14  16
ENDBRANCH  10  12
ENDBRANCH   4   7
BRANCH   1  21
ATOM     21  C   LIG    1       -0.013   1.086   0.008  0.00  0.00    +0.080 C 
BRANCH  21  22
ATOM     22  C   LIG    1       -0.753   1.593  -1.232  0.00  0.00    +0.010 C 
BRANCH  22  23
ATOM     23  C   LIG    1       -0.037   1.099  -2.490  0.00  0.00    +0.260 C 
BRANCH  23  26
ATOM     24  C   LIG    1       -1.021   1.771  -6.128  0.00  0.00    +0.090 C 
ATOM     25  C   LIG    1       -0.292   1.272  -4.907  0.00  0.00    +0.510 C 
ATOM     26  N   LIG    1       -0.745   1.585  -3.677  0.00  0.00    -0.730 N 
ATOM     27  H   LIG    1       -1.540   2.131  -3.578  0.00  0.00    +0.400 HD
ATOM     28  O   LIG    1        0.702   0.589  -5.032  0.00  0.00    -0.550 OA
ENDBRANCH  23  26
ENDBRANCH  22  23
ENDBRANCH  21  22
ENDBRANCH   1  21
TORSDOF 7
