REMARK  Name = ZINCrD000000Af0s.2
REMARK                            x       y       z     vdW  Elec       q    Type
REMARK                         _______ _______ _______ _____ _____    ______ ____
ROOT
ATOM      1  C   LIG    1       -2.449   1.117   0.020  0.00  0.00    +0.230 C 
ATOM      2  C   LIG    1       -3.181   1.138  -1.335  0.00  0.00    +0.030 C 
ATOM      3  C   LIG    1       -4.475   1.305  -0.534  0.00  0.00    -0.100 C 
ATOM      4  C   LIG    1       -5.675   2.053  -1.116  0.00  0.00    +0.040 C 
ATOM      5  C   LIG    1       -6.279   0.670  -1.420  0.00  0.00    +0.000 C 
ATOM      6  C   LIG    1       -5.404   0.118  -0.280  0.00  0.00    +0.050 C 
ATOM      7  C   LIG    1       -3.637   1.910   0.594  0.00  0.00    +0.040 C 
ENDROOT
BRANCH   1  10
ATOM      8  O   LIG    1        0.002  -0.004   0.002  0.00  0.00    -0.540 OA
ATOM      9  C   LIG    1       -0.014   1.209   0.009  0.00  0.00    +0.520 C 
ATOM     10  N   LIG    1       -1.191   1.867   0.018  0.00  0.00    -0.720 N 
ATOM     11  H   LIG    1       -1.204   2.837   0.023  0.00  0.00    +0.400 HD
BRANCH   9  12
ATOM     12  C   LIG    1        1.280   1.980   0.001  0.00  0.00    +0.050 C 
BRANCH  12  13
ATOM     13  C   LIG    1        2.457   1.002  -0.016  0.00  0.00    +0.210 C 
BRANCH  13  14
ATOM     14  N   LIG    1        3.719   1.753  -0.024  0.00  0.00    -0.530 NA
ATOM     15  C   LIG    1        4.869   0.858   0.199  0.00  0.00    +0.180 C 
ATOM     16  C   LIG    1        5.825   1.034  -0.999  0.00  0.00    +0.010 C 
ATOM     17  C   LIG    1        5.441   2.433  -1.550  0.00  0.00    +0.180 C 
ATOM     18  F   LIG    1        6.074   3.448  -0.824  0.00  0.00    -0.200 F 
ATOM     19  C   LIG    1        3.910   2.453  -1.312  0.00  0.00    +0.170 C 
ENDBRANCH  13  14
ENDBRANCH  12  13
ENDBRANCH   9  12
ENDBRANCH   1  10
BRANCH   5  20
ATOM     20  C   LIG    1       -7.780   0.581  -1.138  0.00  0.00    +0.170 C 
BRANCH  20  21
ATOM     21  O   LIG    1       -8.508   1.006  -2.292  0.00  0.00    -0.380 OA
BRANCH  21  22
ATOM     22  C   LIG    1       -9.927   0.961  -2.134  0.00  0.00    +0.220 C 
BRANCH  22  23
ATOM     23  C   LIG    1      -10.590   1.428  -3.404  0.00  0.00    -0.090 A 
ATOM     24  C   LIG    1      -10.889   2.767  -3.576  0.00  0.00    +0.020 A 
ATOM     25  C   LIG    1      -11.492   3.196  -4.743  0.00  0.00    +0.000 A 
ATOM     26  C   LIG    1      -11.806   2.284  -5.734  0.00  0.00    +0.010 A 
ATOM     27  C   LIG    1      -11.511   0.945  -5.560  0.00  0.00    +0.000 A 
ATOM     28  C   LIG    1      -10.903   0.517  -4.395  0.00  0.00    +0.020 A 
ENDBRANCH  22  23
ENDBRANCH  21  22
ENDBRANCH  20  21
ENDBRANCH   5  20
TORSDOF 8
