REMARK  Name = ZINCpk00000FckFh.0
REMARK                            x       y       z     vdW  Elec       q    Type
REMARK                         _______ _______ _______ _____ _____    ______ ____
ROOT
ATOM      1  C   LIG    1        4.907   1.449  -0.037  0.00  0.00    +0.160 C 
ENDROOT
BRANCH   1   2
ATOM      2  C   LIG    1        6.038   2.444  -0.043  0.00  0.00    +0.180 A 
ATOM      3  N   LIG    1        6.621   2.941   1.018  0.00  0.00    -0.300 NA
ATOM      4  N   LIG    1        7.627   3.830   0.624  0.00  0.00    -0.310 N 
ATOM      5  C   LIG    1        8.507   4.591   1.336  0.00  0.00    +0.210 A 
ATOM      6  C   LIG    1        9.391   5.376   0.670  0.00  0.00    -0.060 A 
ATOM      7  C   LIG    1        9.381   5.387  -0.731  0.00  0.00    +0.230 A 
ATOM      8  N   LIG    1        8.521   4.642  -1.390  0.00  0.00    -0.480 NA
ATOM      9  C   LIG    1       10.357   6.253  -1.483  0.00  0.00    +0.170 C 
ATOM     10  C   LIG    1        8.497   4.561   2.842  0.00  0.00    +0.170 C 
ATOM     11  C   LIG    1        7.649   3.868  -0.742  0.00  0.00    +0.330 A 
ATOM     12  C   LIG    1        6.646   2.986  -1.188  0.00  0.00    -0.190 A 
BRANCH  12  13
ATOM     13  C   LIG    1        6.308   2.699  -2.549  0.00  0.00    +0.300 C 
ATOM     14  N   LIG    1        6.039   2.471  -3.629  0.00  0.00    -0.420 NA
ENDBRANCH  12  13
ENDBRANCH   1   2
BRANCH   1  15
ATOM     15  C   LIG    1        3.571   2.196  -0.020  0.00  0.00    +0.030 C 
BRANCH  15  16
ATOM     16  C   LIG    1        2.422   1.186  -0.015  0.00  0.00    +0.280 C 
BRANCH  16  20
ATOM     17  N   LIG    1       -1.191   1.870   0.018  0.00  0.00    -0.740 N 
ATOM     18  H   LIG    1       -1.204   2.840   0.023  0.00  0.00    +0.400 HD
ATOM     19  C   LIG    1       -0.014   1.212   0.009  0.00  0.00    +0.700 C 
ATOM     20  N   LIG    1        1.143   1.901   0.001  0.00  0.00    -0.750 N 
ATOM     21  H   LIG    1        1.130   2.871   0.007  0.00  0.00    +0.400 HD
ATOM     22  O   LIG    1        0.002  -0.004   0.002  0.00  0.00    -0.590 OA
BRANCH  17  23
ATOM     23  C   LIG    1       -2.449   1.120   0.020  0.00  0.00    +0.270 C 
ATOM     24  C   LIG    1       -2.830   0.759  -1.417  0.00  0.00    +0.030 C 
BRANCH  23  25
ATOM     25  C   LIG    1       -3.554   1.979   0.639  0.00  0.00    +0.180 C 
BRANCH  25  27
ATOM     26  C   LIG    1       -4.812   3.990   0.301  0.00  0.00    +0.200 C 
ATOM     27  O   LIG    1       -3.793   3.118  -0.190  0.00  0.00    -0.390 OA
ENDBRANCH  25  27
ENDBRANCH  23  25
ENDBRANCH  17  23
ENDBRANCH  16  20
ENDBRANCH  15  16
ENDBRANCH   1  15
TORSDOF 8
