REMARK  Name = ZINCpe000000UwLC.0
REMARK                            x       y       z     vdW  Elec       q    Type
REMARK                         _______ _______ _______ _____ _____    ______ ____
ROOT
ATOM      1  C   LIG    1       -1.018   6.704   0.531  0.00  0.00    +0.580 C 
ATOM      2  N   LIG    1        0.216   6.312   0.904  0.00  0.00    -0.720 N 
ATOM      3  H   LIG    1        0.532   6.495   1.803  0.00  0.00    +0.400 HD
ATOM      4  O   LIG    1       -1.413   6.476  -0.596  0.00  0.00    -0.520 OA
ENDROOT
BRANCH   2   5
ATOM      5  C   LIG    1        1.082   5.611  -0.047  0.00  0.00    +0.280 C 
ATOM      6  C   LIG    1        2.546   5.833   0.338  0.00  0.00    +0.040 C 
ATOM      7  C   LIG    1        3.416   4.880  -0.491  0.00  0.00    +0.050 C 
ATOM      8  C   LIG    1        3.129   3.445  -0.041  0.00  0.00    +0.270 C 
ATOM      9  N   LIG    1        1.694   3.188  -0.044  0.00  0.00    -0.550 N 
ATOM     10  C   LIG    1        0.764   4.144  -0.023  0.00  0.00    +0.500 C 
ATOM     11  O   LIG    1       -0.401   3.809   0.018  0.00  0.00    -0.500 OA
BRANCH   9  12
ATOM     12  C   LIG    1        1.268   1.861  -0.065  0.00  0.00    +0.300 A 
ATOM     13  C   LIG    1        1.118   1.047   1.016  0.00  0.00    -0.100 A 
ATOM     14  C   LIG    1        0.673  -0.196   0.557  0.00  0.00    +0.240 A 
ATOM     15  N   LIG    1        0.559  -0.137  -0.745  0.00  0.00    -0.280 NA
ATOM     16  N   LIG    1        0.928   1.148  -1.163  0.00  0.00    -0.370 N 
ATOM     17  C   LIG    1        0.942   1.634  -2.545  0.00  0.00    +0.350 C 
ENDBRANCH   9  12
ENDBRANCH   2   5
BRANCH   1  21
ATOM     18  C   LIG    1       -3.442   8.708   3.310  0.00  0.00    +0.420 A 
ATOM     19  C   LIG    1       -3.950   8.474   2.033  0.00  0.00    -0.110 A 
ATOM     20  C   LIG    1       -3.174   7.828   1.109  0.00  0.00    +0.180 A 
ATOM     21  C   LIG    1       -1.889   7.410   1.489  0.00  0.00    -0.250 A 
ATOM     22  C   LIG    1       -1.446   7.678   2.786  0.00  0.00    +0.350 A 
ATOM     23  N   LIG    1       -2.222   8.308   3.642  0.00  0.00    -0.550 NA
BRANCH  18  25
ATOM     24  C   LIG    1       -5.642   9.611   3.974  0.00  0.00    +0.300 C 
ATOM     25  N   LIG    1       -4.223   9.367   4.245  0.00  0.00    -0.610 N 
ATOM     26  C   LIG    1       -3.629   9.821   5.505  0.00  0.00    +0.290 C 
ENDBRANCH  18  25
ENDBRANCH   1  21
TORSDOF 4
