REMARK  Name = ZINCrD00000F5LlX.0
REMARK                            x       y       z     vdW  Elec       q    Type
REMARK                         _______ _______ _______ _____ _____    ______ ____
ROOT
ATOM      1  N   LIG    1        5.396   3.864  -0.372  0.00  0.00    -0.620 N 
ATOM      2  C   LIG    1        4.440   3.247  -1.112  0.00  0.00    +0.520 C 
ATOM      3  C   LIG    1        3.535   3.105   0.095  0.00  0.00    +0.160 C 
ATOM      4  O   LIG    1        4.346   2.932  -2.280  0.00  0.00    -0.480 OA
ATOM      5  C   LIG    1        4.644   3.807   0.895  0.00  0.00    +0.310 C 
ENDROOT
BRANCH   5   6
ATOM      6  C   LIG    1        4.245   5.160   1.426  0.00  0.00    -0.070 A 
ATOM      7  C   LIG    1        3.856   5.295   2.745  0.00  0.00    +0.060 A 
ATOM      8  C   LIG    1        3.489   6.535   3.235  0.00  0.00    +0.030 A 
ATOM      9  C   LIG    1        3.510   7.641   2.404  0.00  0.00    +0.080 A 
ATOM     10  C   LIG    1        3.900   7.505   1.080  0.00  0.00    +0.070 A 
ATOM     11  F   LIG    1        3.922   8.584   0.267  0.00  0.00    -0.130 F 
ATOM     12  F   LIG    1        3.152   8.853   2.882  0.00  0.00    -0.130 F 
ATOM     13  C   LIG    1        4.273   6.264   0.595  0.00  0.00    +0.040 A 
ENDBRANCH   5   6
BRANCH   1  14
ATOM     14  C   LIG    1        6.716   4.401  -0.713  0.00  0.00    +0.310 C 
BRANCH  14  15
ATOM     15  C   LIG    1        7.772   3.308  -0.535  0.00  0.00    +0.020 C 
BRANCH  15  16
ATOM     16  C   LIG    1        9.151   3.869  -0.892  0.00  0.00    +0.160 C 
BRANCH  16  18
ATOM     17  C   LIG    1       11.467   3.270  -1.034  0.00  0.00    +0.200 C 
ATOM     18  O   LIG    1       10.137   2.849  -0.726  0.00  0.00    -0.390 OA
ENDBRANCH  16  18
ENDBRANCH  15  16
ENDBRANCH  14  15
ENDBRANCH   1  14
BRANCH   3  19
ATOM     19  O   LIG    1        2.328   3.863   0.000  0.00  0.00    -0.260 OA
BRANCH  19  20
ATOM     20  C   LIG    1        1.181   3.171  -0.237  0.00  0.00    +0.090 A 
ATOM     21  C   LIG    1        1.232   1.811  -0.493  0.00  0.00    -0.020 A 
ATOM     22  C   LIG    1        0.065   1.109  -0.734  0.00  0.00    +0.010 A 
ATOM     23  C   LIG    1       -1.153   1.762  -0.726  0.00  0.00    +0.020 A 
ATOM     24  C   LIG    1       -1.211   3.119  -0.464  0.00  0.00    -0.030 A 
ATOM     25  C   LIG    1       -0.046   3.828  -0.222  0.00  0.00    +0.110 A 
BRANCH  25  26
ATOM     26  O   LIG    1       -0.101   5.164   0.030  0.00  0.00    -0.310 OA
ATOM     27  C   LIG    1       -1.394   5.771   0.029  0.00  0.00    +0.250 C 
ENDBRANCH  25  26
ENDBRANCH  19  20
ENDBRANCH   3  19
TORSDOF 8
