REMARK  Name = ZINCrH000004q526.0
REMARK                            x       y       z     vdW  Elec       q    Type
REMARK                         _______ _______ _______ _____ _____    ______ ____
ROOT
ATOM      1  C   LIG    1       -1.125   3.079   0.610  0.00  0.00    +0.570 C 
ATOM      2  N   LIG    1       -1.191   1.870   0.018  0.00  0.00    -0.670 N 
ATOM      3  H   LIG    1       -0.426   1.528  -0.472  0.00  0.00    +0.410 HD
ATOM      4  O   LIG    1       -2.110   3.545   1.151  0.00  0.00    -0.530 OA
ENDROOT
BRANCH   1  11
ATOM      5  C   LIG    1        2.197   8.143   2.175  0.00  0.00    +0.170 C 
ATOM      6  C   LIG    1        1.190   7.050   1.927  0.00  0.00    +0.110 A 
ATOM      7  N   LIG    1       -0.055   7.050   2.310  0.00  0.00    -0.250 NA
ATOM      8  N   LIG    1       -0.683   5.870   1.900  0.00  0.00    -0.490 N 
ATOM      9  H   LIG    1       -1.610   5.638   2.068  0.00  0.00    +0.450 HD
ATOM     10  C   LIG    1        0.216   5.094   1.227  0.00  0.00    +0.190 A 
ATOM     11  C   LIG    1        0.141   3.834   0.606  0.00  0.00    -0.170 A 
ATOM     12  C   LIG    1        1.272   3.303  -0.008  0.00  0.00    +0.110 A 
ATOM     13  C   LIG    1        2.462   4.011  -0.020  0.00  0.00    -0.030 A 
ATOM     14  C   LIG    1        2.553   5.245   0.584  0.00  0.00    +0.140 A 
ATOM     15  C   LIG    1        1.434   5.800   1.212  0.00  0.00    -0.190 A 
ENDBRANCH   1  11
BRANCH   2  16
ATOM     16  C   LIG    1       -2.360   1.109   0.110  0.00  0.00    +0.140 A 
ATOM     17  C   LIG    1       -2.284  -0.276   0.192  0.00  0.00    +0.000 A 
ATOM     18  C   LIG    1       -3.437  -1.031   0.288  0.00  0.00    +0.040 A 
ATOM     19  C   LIG    1       -4.672  -0.415   0.292  0.00  0.00    +0.050 A 
ATOM     20  C   LIG    1       -4.759   0.974   0.204  0.00  0.00    +0.000 A 
ATOM     21  C   LIG    1       -3.598   1.736   0.113  0.00  0.00    +0.070 A 
BRANCH  20  22
ATOM     22  C   LIG    1       -6.086   1.638   0.209  0.00  0.00    +0.270 A 
ATOM     23  N   LIG    1       -6.295   2.934   0.132  0.00  0.00    -0.300 NA
ATOM     24  N   LIG    1       -7.686   3.122   0.170  0.00  0.00    -0.480 N 
ATOM     25  H   LIG    1       -8.158   3.969   0.131  0.00  0.00    +0.440 HD
ATOM     26  C   LIG    1       -8.235   1.898   0.270  0.00  0.00    +0.320 A 
ATOM     27  N   LIG    1       -7.270   1.016   0.287  0.00  0.00    -0.520 NA
BRANCH  26  28
ATOM     28  C   LIG    1       -9.709   1.595   0.343  0.00  0.00    +0.050 C 
ATOM     29  C   LIG    1      -10.652   2.751   0.685  0.00  0.00    +0.030 C 
ATOM     30  C   LIG    1      -10.376   1.657   1.719  0.00  0.00    +0.060 C 
ENDBRANCH  26  28
ENDBRANCH  20  22
ENDBRANCH   2  16
TORSDOF 4
