REMARK  Name = ZINCqH0000004rL7.0
REMARK                            x       y       z     vdW  Elec       q    Type
REMARK                         _______ _______ _______ _____ _____    ______ ____
ROOT
ATOM      1  C   LIG    1        1.605   2.193   0.035  0.00  0.00    +0.450 A 
ATOM      2  C   LIG    1        0.569   1.239   0.065  0.00  0.00    -0.280 A 
ATOM      3  C   LIG    1       -0.839   1.304   0.153  0.00  0.00    +0.320 A 
ATOM      4  N   LIG    1       -1.310   0.089   0.138  0.00  0.00    -0.240 NA
ATOM      5  N   LIG    1       -0.254  -0.827   0.049  0.00  0.00    -0.330 N 
ATOM      6  C   LIG    1        0.917  -0.125   0.003  0.00  0.00    +0.360 A 
ATOM      7  N   LIG    1        2.203  -0.457  -0.081  0.00  0.00    -0.550 NA
ATOM      8  C   LIG    1        3.135   0.471  -0.106  0.00  0.00    +0.580 A 
ATOM      9  N   LIG    1        2.858   1.762  -0.050  0.00  0.00    -0.570 NA
ENDROOT
BRANCH   5  10
ATOM     10  C   LIG    1       -0.378  -2.221   0.013  0.00  0.00    +0.150 A 
ATOM     11  C   LIG    1        0.496  -2.978  -0.756  0.00  0.00    +0.020 A 
ATOM     12  C   LIG    1        0.376  -4.353  -0.784  0.00  0.00    +0.030 A 
ATOM     13  C   LIG    1       -0.621  -4.976  -0.057  0.00  0.00    +0.010 A 
ATOM     14  C   LIG    1       -1.498  -4.225   0.706  0.00  0.00    +0.030 A 
ATOM     15  C   LIG    1       -1.378  -2.850   0.743  0.00  0.00    +0.020 A 
ENDBRANCH   5  10
BRANCH   1  16
ATOM     16  N   LIG    1        1.324   3.544   0.092  0.00  0.00    -0.470 N 
ATOM     17  C   LIG    1        0.648   3.888   1.351  0.00  0.00    +0.250 C 
BRANCH  16  18
ATOM     18  C   LIG    1        2.543   4.343  -0.086  0.00  0.00    +0.240 C 
BRANCH  18  19
ATOM     19  C   LIG    1        2.192   5.658  -0.734  0.00  0.00    -0.030 A 
ATOM     20  C   LIG    1        0.911   6.179  -0.633  0.00  0.00    -0.020 A 
ATOM     21  C   LIG    1        0.627   7.390  -1.236  0.00  0.00    +0.260 A 
ATOM     22  N   LIG    1        1.555   8.042  -1.910  0.00  0.00    -0.490 NA
ATOM     23  C   LIG    1        2.781   7.573  -2.031  0.00  0.00    +0.260 A 
ATOM     24  C   LIG    1        3.140   6.372  -1.450  0.00  0.00    -0.030 A 
ENDBRANCH  18  19
BRANCH  18  26
ATOM     25  C   LIG    1        3.665   3.279   1.876  0.00  0.00    +0.020 C 
ATOM     26  C   LIG    1        3.187   4.603   1.278  0.00  0.00    +0.010 C 
ENDBRANCH  18  26
ENDBRANCH  16  18
ENDBRANCH   1  16
TORSDOF 5
