REMARK  Name = ZINCrg000000qSVN.0
REMARK                            x       y       z     vdW  Elec       q    Type
REMARK                         _______ _______ _______ _____ _____    ______ ____
ROOT
ATOM      1  C   LIG    1        5.789  -0.760  -3.108  0.00  0.00    +0.210 C 
ENDROOT
BRANCH   1   5
ATOM      2  C   LIG    1        7.310  -0.547  -7.095  0.00  0.00    +0.130 A 
ATOM      3  C   LIG    1        6.879  -1.760  -6.580  0.00  0.00    -0.020 A 
ATOM      4  C   LIG    1        6.388  -1.827  -5.291  0.00  0.00    +0.060 A 
ATOM      5  C   LIG    1        6.325  -0.685  -4.514  0.00  0.00    -0.110 A 
ATOM      6  C   LIG    1        6.749   0.527  -5.027  0.00  0.00    +0.070 A 
ATOM      7  C   LIG    1        7.247   0.598  -6.314  0.00  0.00    -0.080 A 
BRANCH   2   9
ATOM      8  C   LIG    1        8.219   0.804  -8.828  0.00  0.00    +0.250 C 
ATOM      9  O   LIG    1        7.793  -0.479  -8.364  0.00  0.00    -0.320 OA
ENDBRANCH   2   9
ENDBRANCH   1   5
BRANCH   1  10
ATOM     10  N   LIG    1        6.662   0.007  -2.209  0.00  0.00    -0.520 NA
ATOM     11  C   LIG    1        6.758  -0.639  -0.891  0.00  0.00    +0.150 C 
ATOM     12  C   LIG    1        7.722   0.158  -0.008  0.00  0.00    +0.220 C 
ATOM     13  O   LIG    1        7.268   1.512   0.084  0.00  0.00    -0.380 OA
ATOM     14  C   LIG    1        7.163   2.171  -1.181  0.00  0.00    +0.220 C 
ATOM     15  C   LIG    1        6.194   1.394  -2.076  0.00  0.00    +0.150 C 
ENDBRANCH   1  10
BRANCH   1  16
ATOM     16  C   LIG    1        4.376  -0.173  -3.069  0.00  0.00    +0.250 C 
BRANCH  16  17
ATOM     17  N   LIG    1        3.831  -0.301  -1.715  0.00  0.00    -0.730 N 
ATOM     18  H   LIG    1        4.323  -0.792  -1.038  0.00  0.00    +0.400 HD
ATOM     19  C   LIG    1        2.647   0.265  -1.409  0.00  0.00    +0.500 C 
ATOM     20  O   LIG    1        2.031   0.879  -2.255  0.00  0.00    -0.520 OA
BRANCH  19  21
ATOM     21  C   LIG    1        2.087   0.134  -0.016  0.00  0.00    +0.320 C 
BRANCH  21  22
ATOM     22  N   LIG    1        0.799   0.830   0.060  0.00  0.00    -0.480 N 
ATOM     23  C   LIG    1       -0.345   0.156  -0.222  0.00  0.00    +0.300 A 
ATOM     24  C   LIG    1       -1.546   0.779  -0.164  0.00  0.00    -0.080 A 
ATOM     25  C   LIG    1       -1.616   2.131   0.202  0.00  0.00    +0.120 A 
ATOM     26  C   LIG    1       -0.465   2.806   0.484  0.00  0.00    -0.090 A 
ATOM     27  C   LIG    1        0.765   2.130   0.408  0.00  0.00    +0.520 A 
ATOM     28  O   LIG    1        1.803   2.722   0.658  0.00  0.00    -0.550 OA
ENDBRANCH  21  22
ENDBRANCH  19  21
ENDBRANCH  16  17
ENDBRANCH   1  16
TORSDOF 7
