REMARK  Name = ZINCpe00000gLTvp.0
REMARK                            x       y       z     vdW  Elec       q    Type
REMARK                         _______ _______ _______ _____ _____    ______ ____
ROOT
ATOM      1  N   LIG    1       -5.691  -2.990   0.039  0.00  0.00    -0.720 N 
ATOM      2  H   LIG    1       -5.828  -2.030   0.046  0.00  0.00    +0.400 HD
ATOM      3  C   LIG    1       -4.440  -3.492   0.025  0.00  0.00    +0.560 C 
ATOM      4  O   LIG    1       -4.268  -4.696   0.017  0.00  0.00    -0.500 OA
ENDROOT
BRANCH   1  11
ATOM      5  N   LIG    1      -10.779  -4.587  -2.486  0.00  0.00    -0.740 N 
ATOM      6  H   LIG    1      -11.220  -4.373  -1.649  0.00  0.00    +0.400 HD
ATOM      7  C   LIG    1       -9.433  -4.601  -2.554  0.00  0.00    +0.720 C 
ATOM      8  N   LIG    1       -8.700  -4.316  -1.460  0.00  0.00    -0.640 N 
ATOM      9  C   LIG    1       -9.238  -3.975  -0.130  0.00  0.00    +0.260 C 
ATOM     10  C   LIG    1       -8.112  -3.163   0.557  0.00  0.00    +0.050 C 
ATOM     11  C   LIG    1       -6.843  -3.894   0.045  0.00  0.00    +0.250 C 
ATOM     12  C   LIG    1       -7.231  -4.294  -1.394  0.00  0.00    +0.270 C 
ATOM     13  O   LIG    1       -8.880  -4.869  -3.603  0.00  0.00    -0.580 OA
BRANCH   5  15
ATOM     14  C   LIG    1      -13.063  -4.812  -3.329  0.00  0.00    +0.030 C 
ATOM     15  C   LIG    1      -11.576  -4.897  -3.676  0.00  0.00    +0.270 C 
ENDBRANCH   5  15
ENDBRANCH   1  11
BRANCH   3  16
ATOM     16  C   LIG    1       -3.279  -2.581   0.019  0.00  0.00    -0.120 A 
ATOM     17  C   LIG    1       -3.474  -1.198   0.028  0.00  0.00    +0.100 A 
ATOM     18  C   LIG    1       -2.388  -0.350   0.022  0.00  0.00    +0.050 A 
ATOM     19  C   LIG    1       -1.098  -0.869   0.008  0.00  0.00    +0.180 A 
ATOM     20  C   LIG    1       -0.899  -2.244  -0.007  0.00  0.00    +0.020 A 
ATOM     21  C   LIG    1       -1.980  -3.100   0.004  0.00  0.00    +0.040 A 
ATOM     22 CL   LIG    1       -1.731  -4.818  -0.008  0.00  0.00    -0.000 Cl
BRANCH  19  23
ATOM     23  N   LIG    1        0.002  -0.004   0.002  0.00  0.00    -0.340 N 
ATOM     24  C   LIG    1        1.311  -0.341  -0.012  0.00  0.00    +0.480 A 
ATOM     25  N   LIG    1        1.998   0.771  -0.013  0.00  0.00    -0.320 NA
ATOM     26  N   LIG    1        1.213   1.788   0.000  0.00  0.00    -0.020 NA
ATOM     27  N   LIG    1       -0.017   1.402   0.010  0.00  0.00    -0.070 NA
ENDBRANCH  19  23
ENDBRANCH   3  16
TORSDOF 4
