REMARK  Name = ZINCrD00000l6afs.0
REMARK                            x       y       z     vdW  Elec       q    Type
REMARK                         _______ _______ _______ _____ _____    ______ ____
ROOT
ATOM      1  C   LIG    1       -0.732   8.361   0.073  0.00  0.00    +0.070 C 
ATOM      2  C   LIG    1       -1.967   7.628  -0.455  0.00  0.00    +0.190 C 
ENDROOT
BRANCH   2   3
ATOM      3  C   LIG    1       -3.212   8.323   0.034  0.00  0.00    +0.520 C 
ATOM      4  N   LIG    1       -3.486   9.579  -0.372  0.00  0.00    -0.660 N 
ATOM      5  H   LIG    1       -2.851  10.058  -0.927  0.00  0.00    +0.420 HD
ATOM      6  O   LIG    1       -3.966   7.753   0.793  0.00  0.00    -0.490 OA
BRANCH   4   7
ATOM      7  C   LIG    1       -4.688  10.191   0.006  0.00  0.00    +0.130 A 
ATOM      8  C   LIG    1       -5.239   9.929   1.253  0.00  0.00    +0.100 A 
ATOM      9  C   LIG    1       -6.424  10.533   1.626  0.00  0.00    +0.050 A 
ATOM     10  C   LIG    1       -7.064  11.401   0.758  0.00  0.00    +0.090 A 
ATOM     11  C   LIG    1       -6.517  11.666  -0.488  0.00  0.00    +0.050 A 
ATOM     12  F   LIG    1       -7.144  12.513  -1.335  0.00  0.00    -0.110 F 
ATOM     13  F   LIG    1       -8.223  11.990   1.126  0.00  0.00    -0.120 F 
ATOM     14  C   LIG    1       -5.327  11.067  -0.864  0.00  0.00    +0.070 A 
ATOM     15  F   LIG    1       -4.790  11.329  -2.075  0.00  0.00    -0.110 F 
ENDBRANCH   4   7
ENDBRANCH   2   3
BRANCH   2  16
ATOM     16  O   LIG    1       -1.958   6.258   0.026  0.00  0.00    -0.320 OA
BRANCH  16  17
ATOM     17  C   LIG    1       -1.341   5.346  -0.743  0.00  0.00    +0.460 C 
ATOM     18  O   LIG    1       -0.824   5.683  -1.782  0.00  0.00    -0.500 OA
BRANCH  17  19
ATOM     19  C   LIG    1       -1.290   3.890  -0.304  0.00  0.00    +0.050 C 
ATOM     20  C   LIG    1       -2.719   3.421  -0.085  0.00  0.00    +0.070 C 
ATOM     21  C   LIG    1       -2.841   1.908   0.066  0.00  0.00    -0.030 C 
ATOM     22  C   LIG    1       -2.163   1.425   1.346  0.00  0.00    +0.040 C 
ATOM     23  C   LIG    1       -0.654   1.592   1.329  0.00  0.00    +0.010 C 
ATOM     24  C   LIG    1        0.023   1.112   0.058  0.00  0.00    +0.040 C 
ATOM     25  C   LIG    1       -0.663   1.598  -1.215  0.00  0.00    -0.030 C 
ATOM     26  C   LIG    1       -2.139   1.259  -1.113  0.00  0.00    +0.370 C 
ATOM     27  O   LIG    1       -2.704   0.539  -1.898  0.00  0.00    -0.440 OA
ATOM     28  C   LIG    1       -0.534   3.111  -1.367  0.00  0.00    +0.070 C 
ENDBRANCH  17  19
ENDBRANCH  16  17
ENDBRANCH   2  16
TORSDOF 5
