REMARK  Name = ZINCqH0000005aXh.0
REMARK                            x       y       z     vdW  Elec       q    Type
REMARK                         _______ _______ _______ _____ _____    ______ ____
ROOT
ATOM      1  C   LIG    1       -6.650   3.575  -4.708  0.00  0.00    +0.280 C 
ATOM      2  N   LIG    1       -7.371   3.802  -3.453  0.00  0.00    -0.630 N 
ATOM      3  C   LIG    1       -6.686   4.007  -2.310  0.00  0.00    +0.710 C 
ATOM      4  N   LIG    1       -5.338   4.002  -2.322  0.00  0.00    -0.740 N 
ATOM      5  H   LIG    1       -4.861   3.851  -3.153  0.00  0.00    +0.390 HD
ATOM      6  O   LIG    1       -7.284   4.196  -1.269  0.00  0.00    -0.580 OA
ENDROOT
BRANCH   4   7
ATOM      7  C   LIG    1       -4.594   4.224  -1.080  0.00  0.00    +0.270 C 
ATOM      8  C   LIG    1       -4.436   5.728  -0.841  0.00  0.00    +0.000 C 
ATOM      9  C   LIG    1       -3.606   5.951   0.426  0.00  0.00    +0.040 C 
ATOM     10  C   LIG    1       -2.250   5.258   0.271  0.00  0.00    +0.190 C 
ATOM     11  N   LIG    1       -2.456   3.822   0.045  0.00  0.00    -0.480 N 
ATOM     12  C   LIG    1       -3.210   3.581  -1.192  0.00  0.00    +0.200 C 
BRANCH  11  13
ATOM     13  C   LIG    1       -1.237   3.138   0.030  0.00  0.00    +0.120 A 
ATOM     14  C   LIG    1       -0.043   3.844  -0.018  0.00  0.00    -0.020 A 
ATOM     15  C   LIG    1        1.160   3.165  -0.039  0.00  0.00    +0.040 A 
ATOM     16  C   LIG    1        1.176   1.783  -0.001  0.00  0.00    +0.000 A 
ATOM     17  C   LIG    1       -0.011   1.075   0.051  0.00  0.00    +0.050 A 
ATOM     18  C   LIG    1       -1.218   1.748   0.067  0.00  0.00    -0.050 A 
ATOM     19 CL   LIG    1       -2.708   0.859   0.133  0.00  0.00    -0.060 Cl
ENDBRANCH  11  13
ENDBRANCH   4   7
BRANCH   2  20
ATOM     20  C   LIG    1       -8.836   3.808  -3.440  0.00  0.00    +0.290 C 
BRANCH  20  21
ATOM     21  C   LIG    1       -9.343   5.229  -3.691  0.00  0.00    +0.000 C 
BRANCH  21  22
ATOM     22  C   LIG    1      -10.873   5.235  -3.678  0.00  0.00    -0.020 C 
ATOM     23  C   LIG    1      -11.399   4.414  -4.859  0.00  0.00    -0.010 C 
ATOM     24  C   LIG    1      -12.927   4.490  -4.883  0.00  0.00    +0.200 C 
ATOM     25  O   LIG    1      -13.333   5.858  -4.971  0.00  0.00    -0.380 OA
ATOM     26  C   LIG    1      -12.910   6.664  -3.869  0.00  0.00    +0.200 C 
ATOM     27  C   LIG    1      -11.381   6.675  -3.805  0.00  0.00    -0.010 C 
ENDBRANCH  21  22
ENDBRANCH  20  21
ENDBRANCH   2  20
TORSDOF 5
