REMARK  Name = ZINCrD000000DfXY.2
REMARK                            x       y       z     vdW  Elec       q    Type
REMARK                         _______ _______ _______ _____ _____    ______ ____
ROOT
ATOM      1  N   LIG    1       -4.572   0.376  -0.041  0.00  0.00    -0.500 NA
ENDROOT
BRANCH   1   2
ATOM      2  C   LIG    1       -3.276  -0.315  -0.087  0.00  0.00    +0.270 C 
BRANCH   2   6
ATOM      3  O   LIG    1       -1.858   4.107   0.095  0.00  0.00    -0.480 OA
ATOM      4  C   LIG    1       -1.544   2.930   0.039  0.00  0.00    +0.530 A 
ATOM      5  N   LIG    1       -2.482   1.964   0.003  0.00  0.00    -0.560 NA
ATOM      6  C   LIG    1       -2.163   0.701  -0.057  0.00  0.00    +0.440 A 
ATOM      7  N   LIG    1       -0.895   0.257  -0.091  0.00  0.00    -0.630 N 
ATOM      8  H   LIG    1       -0.719  -0.696  -0.135  0.00  0.00    +0.420 HD
ATOM      9  C   LIG    1        0.160   1.148  -0.065  0.00  0.00    +0.180 A 
ATOM     10  C   LIG    1        1.481   0.724  -0.099  0.00  0.00    -0.020 A 
ATOM     11  C   LIG    1        2.498   1.656  -0.070  0.00  0.00    +0.080 A 
ATOM     12  C   LIG    1        2.215   3.012  -0.007  0.00  0.00    -0.020 A 
ATOM     13  C   LIG    1        0.909   3.453   0.027  0.00  0.00    +0.110 A 
ATOM     14  C   LIG    1       -0.128   2.524  -0.001  0.00  0.00    -0.210 A 
ENDBRANCH   2   6
ENDBRANCH   1   2
BRANCH   1  15
ATOM     15  C   LIG    1       -4.758   1.060   1.245  0.00  0.00    +0.190 C 
BRANCH  15  16
ATOM     16  C   LIG    1       -5.892   2.079   1.121  0.00  0.00    -0.020 C 
ATOM     17  C   LIG    1       -5.506   3.154   0.101  0.00  0.00    +0.030 C 
ATOM     18  C   LIG    1       -6.611   4.211   0.042  0.00  0.00    +0.190 C 
ATOM     19  O   LIG    1       -6.807   4.768   1.343  0.00  0.00    -0.380 OA
ATOM     20  C   LIG    1       -7.216   3.817   2.329  0.00  0.00    +0.200 C 
ATOM     21  C   LIG    1       -6.135   2.744   2.480  0.00  0.00    -0.010 C 
ENDBRANCH  15  16
ENDBRANCH   1  15
BRANCH   1  22
ATOM     22  C   LIG    1       -5.675  -0.556  -0.307  0.00  0.00    +0.230 C 
BRANCH  22  23
ATOM     23  C   LIG    1       -5.729  -0.864  -1.781  0.00  0.00    -0.080 A 
ATOM     24  C   LIG    1       -6.401  -0.016  -2.641  0.00  0.00    +0.030 A 
ATOM     25  C   LIG    1       -6.446  -0.295  -3.994  0.00  0.00    +0.000 A 
ATOM     26  C   LIG    1       -5.828  -1.429  -4.486  0.00  0.00    +0.000 A 
ATOM     27  C   LIG    1       -5.160  -2.281  -3.626  0.00  0.00    +0.000 A 
ATOM     28  C   LIG    1       -5.111  -1.998  -2.274  0.00  0.00    +0.000 A 
ENDBRANCH  22  23
ENDBRANCH   1  22
TORSDOF 6
