REMARK  Name = ZINCrH000004nC5B.0
REMARK                            x       y       z     vdW  Elec       q    Type
REMARK                         _______ _______ _______ _____ _____    ______ ____
ROOT
ATOM      1  N   LIG    1        2.718   8.338  -1.233  0.00  0.00    -0.560 N 
ATOM      2  C   LIG    1        2.487   8.018   0.180  0.00  0.00    +0.310 C 
ATOM      3  C   LIG    1        1.059   7.433   0.242  0.00  0.00    +0.020 C 
ATOM      4  C   LIG    1        0.401   8.076  -1.001  0.00  0.00    +0.080 C 
ATOM      5  C   LIG    1        1.563   8.383  -1.919  0.00  0.00    +0.520 C 
ATOM      6  O   LIG    1        1.467   8.632  -3.102  0.00  0.00    -0.510 OA
ENDROOT
BRANCH   1  12
ATOM      7  C   LIG    1        4.716   7.506  -2.319  0.00  0.00    +0.140 A 
ATOM      8  C   LIG    1        5.961   7.740  -2.879  0.00  0.00    -0.080 A 
ATOM      9  C   LIG    1        6.478   9.022  -2.906  0.00  0.00    +0.060 A 
ATOM     10  C   LIG    1        5.752  10.075  -2.382  0.00  0.00    -0.020 A 
ATOM     11  C   LIG    1        4.505   9.851  -1.827  0.00  0.00    +0.060 A 
ATOM     12  C   LIG    1        3.981   8.568  -1.795  0.00  0.00    +0.100 A 
BRANCH   7  14
ATOM     13  C   LIG    1        5.019   5.206  -2.841  0.00  0.00    +0.240 C 
ATOM     14  O   LIG    1        4.210   6.245  -2.286  0.00  0.00    -0.300 OA
ENDBRANCH   7  14
ENDBRANCH   1  12
BRANCH   3  15
ATOM     15  C   LIG    1        1.085   5.931   0.122  0.00  0.00    +0.520 C 
ATOM     16  N   LIG    1       -0.069   5.242   0.028  0.00  0.00    -0.670 N 
ATOM     17  H   LIG    1       -0.913   5.715  -0.039  0.00  0.00    +0.410 HD
ATOM     18  O   LIG    1        2.146   5.342   0.109  0.00  0.00    -0.490 OA
BRANCH  16  19
ATOM     19  C   LIG    1       -0.051   3.842   0.028  0.00  0.00    +0.150 A 
ATOM     20  C   LIG    1        0.907   3.159   0.765  0.00  0.00    +0.050 A 
ATOM     21  C   LIG    1        0.923   1.778   0.762  0.00  0.00    +0.040 A 
ATOM     22  C   LIG    1       -0.013   1.076   0.025  0.00  0.00    +0.050 A 
ATOM     23  C   LIG    1       -0.965   1.754  -0.714  0.00  0.00    -0.160 A 
ATOM     24  C   LIG    1       -0.990   3.134  -0.711  0.00  0.00    +0.040 A 
BRANCH  23  25
ATOM     25  C   LIG    1       -1.980   0.985  -1.520  0.00  0.00    +0.510 C 
ATOM     26  F   LIG    1       -1.857   1.324  -2.872  0.00  0.00    -0.170 F 
ATOM     27  F   LIG    1       -3.267   1.303  -1.075  0.00  0.00    -0.180 F 
ATOM     28  F   LIG    1       -1.758  -0.388  -1.362  0.00  0.00    -0.170 F 
ENDBRANCH  23  25
ENDBRANCH  16  19
ENDBRANCH   3  15
TORSDOF 5
