REMARK  Name = ZINCtV00000pA0cD.0
REMARK                            x       y       z     vdW  Elec       q    Type
REMARK                         _______ _______ _______ _____ _____    ______ ____
ROOT
ATOM      1  C   LIG    1        3.446  -2.279   0.365  0.00  0.00    +0.090 C 
ATOM      2  C   LIG    1        2.297  -2.857  -0.471  0.00  0.00    +0.080 C 
ATOM      3  C   LIG    1        0.994  -2.205  -0.015  0.00  0.00    +0.110 C 
ATOM      4  C   LIG    1        1.123  -0.702  -0.014  0.00  0.00    +0.180 A 
ATOM      5  N   LIG    1        0.002  -0.004   0.002  0.00  0.00    -0.470 NA
ATOM      6  C   LIG    1       -0.016   1.329   0.009  0.00  0.00    +0.140 A 
ATOM      7  C   LIG    1       -1.228   2.041   0.031  0.00  0.00    +0.070 A 
ATOM      8  C   LIG    1       -1.212   3.402   0.032  0.00  0.00    +0.050 A 
ATOM      9  C   LIG    1       -0.010   4.107   0.024  0.00  0.00    -0.030 A 
ATOM     10  C   LIG    1        1.185   3.449   0.009  0.00  0.00    +0.060 A 
ATOM     11 CL   LIG    1       -0.033   5.843   0.034  0.00  0.00    -0.060 Cl
ATOM     12  C   LIG    1        1.204   2.049   0.002  0.00  0.00    -0.080 A 
ATOM     13  C   LIG    1        2.418   1.322  -0.015  0.00  0.00    +0.020 A 
ATOM     14  C   LIG    1        2.357  -0.070  -0.025  0.00  0.00    -0.120 A 
ATOM     15  C   LIG    1        3.659  -0.825  -0.052  0.00  0.00    +0.140 C 
ENDROOT
BRANCH  13  16
ATOM     16  C   LIG    1        3.722   2.025  -0.021  0.00  0.00    -0.060 A 
ATOM     17  C   LIG    1        4.588   1.904   1.065  0.00  0.00    +0.020 A 
ATOM     18  C   LIG    1        5.804   2.556   1.051  0.00  0.00    +0.020 A 
ATOM     19  C   LIG    1        6.160   3.337  -0.034  0.00  0.00    +0.020 A 
ATOM     20  C   LIG    1        5.303   3.465  -1.113  0.00  0.00    +0.020 A 
ATOM     21  C   LIG    1        4.087   2.814  -1.112  0.00  0.00    +0.030 A 
ENDBRANCH  13  16
BRANCH   1  22
ATOM     22  C   LIG    1        4.704  -3.069   0.113  0.00  0.00    -0.080 A 
ATOM     23  C   LIG    1        5.822  -2.442  -0.405  0.00  0.00    +0.020 A 
ATOM     24  C   LIG    1        6.978  -3.166  -0.632  0.00  0.00    +0.010 A 
ATOM     25  C   LIG    1        7.013  -4.518  -0.350  0.00  0.00    +0.010 A 
ATOM     26  C   LIG    1        5.893  -5.147   0.163  0.00  0.00    +0.020 A 
ATOM     27  C   LIG    1        4.739  -4.422   0.394  0.00  0.00    +0.010 A 
ENDBRANCH   1  22
BRANCH   1  29
ATOM     28  N   LIG    1        2.832  -2.387   2.897  0.00  0.00    -0.410 NA
ATOM     29  C   LIG    1        3.099  -2.340   1.794  0.00  0.00    +0.210 C 
ENDBRANCH   1  29
TORSDOF 3
