REMARK  Name = ZINCrH000004n0tT.0
REMARK                            x       y       z     vdW  Elec       q    Type
REMARK                         _______ _______ _______ _____ _____    ______ ____
ROOT
ATOM      1  C   LIG    1        1.173   3.960   0.053  0.00  0.00    +0.190 C 
ATOM      2  C   LIG    1        1.438   4.679   1.393  0.00  0.00    +0.030 C 
ATOM      3  C   LIG    1        0.566   5.951   1.343  0.00  0.00    +0.020 C 
ATOM      4  C   LIG    1       -0.151   5.893  -0.022  0.00  0.00    +0.160 C 
ATOM      5  N   LIG    1       -0.161   4.451  -0.380  0.00  0.00    -0.490 NA
ENDROOT
BRANCH   1   9
ATOM      6  C   LIG    1        1.086  -0.278   0.626  0.00  0.00    +0.170 A 
ATOM      7  C   LIG    1       -0.099   0.442   0.562  0.00  0.00    -0.120 A 
ATOM      8  C   LIG    1       -0.068   1.811   0.376  0.00  0.00    +0.130 A 
ATOM      9  C   LIG    1        1.143   2.466   0.255  0.00  0.00    -0.150 A 
ATOM     10  C   LIG    1        2.330   1.751   0.319  0.00  0.00    +0.170 A 
ATOM     11  C   LIG    1        2.301   0.378   0.505  0.00  0.00    -0.110 A 
BRANCH   6  13
ATOM     12  C   LIG    1       -0.233  -2.233   0.925  0.00  0.00    +0.250 C 
ATOM     13  O   LIG    1        1.054  -1.624   0.808  0.00  0.00    -0.320 OA
ENDBRANCH   6  13
BRANCH  10  14
ATOM     14  O   LIG    1        3.520   2.396   0.200  0.00  0.00    -0.310 OA
ATOM     15  C   LIG    1        4.702   1.597   0.275  0.00  0.00    +0.240 C 
ENDBRANCH  10  14
ENDBRANCH   1   9
BRANCH   5  16
ATOM     16  C   LIG    1       -0.346   4.268  -1.825  0.00  0.00    +0.210 C 
BRANCH  16  17
ATOM     17  C   LIG    1       -1.783   4.545  -2.186  0.00  0.00    +0.520 C 
ATOM     18  N   LIG    1       -2.188   4.438  -3.467  0.00  0.00    -0.680 N 
ATOM     19  H   LIG    1       -1.541   4.259  -4.167  0.00  0.00    +0.420 HD
ATOM     20  O   LIG    1       -2.574   4.863  -1.324  0.00  0.00    -0.490 OA
BRANCH  18  21
ATOM     21  C   LIG    1       -3.542   4.587  -3.787  0.00  0.00    +0.210 A 
ATOM     22  C   LIG    1       -4.518   4.162  -2.895  0.00  0.00    -0.010 A 
ATOM     23  C   LIG    1       -5.856   4.313  -3.212  0.00  0.00    +0.150 A 
ATOM     24  C   LIG    1       -6.223   4.880  -4.421  0.00  0.00    -0.060 A 
ATOM     25  C   LIG    1       -5.251   5.299  -5.314  0.00  0.00    +0.150 A 
ATOM     26  F   LIG    1       -5.612   5.851  -6.493  0.00  0.00    -0.130 F 
ATOM     27  F   LIG    1       -6.806   3.905  -2.342  0.00  0.00    -0.130 F 
ATOM     28  C   LIG    1       -3.912   5.154  -4.999  0.00  0.00    -0.050 A 
ENDBRANCH  18  21
ENDBRANCH  16  17
ENDBRANCH   5  16
TORSDOF 6
