REMARK  Name = ZINCpk00000y4p6K.0
REMARK                            x       y       z     vdW  Elec       q    Type
REMARK                         _______ _______ _______ _____ _____    ______ ____
ROOT
ATOM      1  C   LIG    1        2.280  -3.781  -1.482  0.00  0.00    +0.460 A 
ATOM      2  N   LIG    1        2.481  -4.375  -0.338  0.00  0.00    -0.580 NA
ATOM      3  C   LIG    1        2.881  -5.659  -0.267  0.00  0.00    +0.540 A 
ATOM      4  C   LIG    1        3.102  -6.388  -1.526  0.00  0.00    -0.200 A 
ATOM      5  C   LIG    1        3.520  -7.718  -1.546  0.00  0.00    +0.180 A 
ATOM      6  C   LIG    1        3.711  -8.353  -2.756  0.00  0.00    -0.000 A 
ATOM      7  C   LIG    1        3.485  -7.669  -3.956  0.00  0.00    +0.100 A 
ATOM      8  O   LIG    1        3.743  -8.517  -4.993  0.00  0.00    -0.280 OA
ATOM      9  C   LIG    1        3.731  -9.839  -4.423  0.00  0.00    +0.570 C 
ATOM     10  F   LIG    1        4.662 -10.661  -5.068  0.00  0.00    -0.110 F 
ATOM     11  F   LIG    1        2.449 -10.394  -4.498  0.00  0.00    -0.150 F 
ATOM     12  C   LIG    1        3.069  -6.349  -3.943  0.00  0.00    +0.030 A 
ATOM     13  O   LIG    1        4.110  -9.626  -3.051  0.00  0.00    -0.280 OA
ATOM     14  C   LIG    1        2.875  -5.700  -2.733  0.00  0.00    +0.200 A 
ATOM     15  O   LIG    1        3.060  -6.201   0.811  0.00  0.00    -0.470 OA
ATOM     16  N   LIG    1        2.460  -4.383  -2.670  0.00  0.00    -0.620 N 
ATOM     17  H   LIG    1        2.299  -3.889  -3.489  0.00  0.00    +0.430 HD
ENDROOT
BRANCH   1  18
ATOM     18  C   LIG    1        1.828  -2.343  -1.470  0.00  0.00    +0.150 C 
BRANCH  18  19
ATOM     19  C   LIG    1        1.689  -1.864  -0.024  0.00  0.00    +0.210 C 
BRANCH  19  24
ATOM     20  C   LIG    1        1.620   3.187   0.003  0.00  0.00    +0.200 C 
ATOM     21  C   LIG    1        1.208   1.738  -0.000  0.00  0.00    +0.180 A 
ATOM     22  N   LIG    1       -0.015   1.282   0.009  0.00  0.00    -0.290 NA
ATOM     23  N   LIG    1        0.002  -0.004   0.002  0.00  0.00    -0.280 NA
ATOM     24  C   LIG    1        1.237  -0.427  -0.012  0.00  0.00    +0.170 A 
ATOM     25  N   LIG    1        2.037   0.667  -0.014  0.00  0.00    -0.470 N 
ATOM     26  C   LIG    1        3.502   0.687  -0.028  0.00  0.00    +0.340 C 
ENDBRANCH  19  24
ENDBRANCH  18  19
ENDBRANCH   1  18
TORSDOF 3
