REMARK  Name = ZINCAx0000000ehc.0
REMARK                            x       y       z     vdW  Elec       q    Type
REMARK                         _______ _______ _______ _____ _____    ______ ____
ROOT
ATOM      1  N   LIG    1       -2.633   0.853   0.416  0.00  0.00    -0.520 N 
ATOM      2  H   LIG    1       -2.526  -0.078   0.667  0.00  0.00    +0.430 HD
ATOM      3  C   LIG    1       -3.833   1.453   0.547  0.00  0.00    +0.500 C 
ATOM      4  O   LIG    1       -3.967   2.616   0.233  0.00  0.00    -0.520 OA
ENDROOT
BRANCH   1   6
ATOM      5  C   LIG    1       -0.341   0.975  -0.213  0.00  0.00    +0.520 C 
ATOM      6  N   LIG    1       -1.540   1.574  -0.082  0.00  0.00    -0.520 N 
ATOM      7  H   LIG    1       -1.647   2.505  -0.333  0.00  0.00    +0.430 HD
ATOM      8  O   LIG    1       -0.207  -0.189   0.101  0.00  0.00    -0.510 OA
BRANCH   5  10
ATOM      9  C   LIG    1        1.199   2.869   0.220  0.00  0.00    +0.060 C 
ATOM     10  C   LIG    1        0.833   1.748  -0.755  0.00  0.00    +0.190 C 
BRANCH  10  11
ATOM     11  O   LIG    1        1.950   0.871  -0.913  0.00  0.00    -0.280 OA
BRANCH  11  12
ATOM     12  C   LIG    1        2.890   1.228  -1.827  0.00  0.00    +0.130 A 
ATOM     13  C   LIG    1        3.923   0.377  -2.098  0.00  0.00    -0.010 A 
ATOM     14  C   LIG    1        4.896   0.744  -3.043  0.00  0.00    -0.010 A 
ATOM     15  C   LIG    1        5.973  -0.105  -3.349  0.00  0.00    +0.020 A 
ATOM     16  C   LIG    1        6.897   0.283  -4.270  0.00  0.00    +0.030 A 
ATOM     17  C   LIG    1        6.792   1.513  -4.916  0.00  0.00    -0.010 A 
ATOM     18  C   LIG    1        5.763   2.362  -4.645  0.00  0.00    +0.040 A 
ATOM     19  C   LIG    1        4.790   1.996  -3.700  0.00  0.00    -0.080 A 
ATOM     20  C   LIG    1        3.713   2.847  -3.395  0.00  0.00    +0.070 A 
ATOM     21  C   LIG    1        2.785   2.459  -2.481  0.00  0.00    -0.070 A 
ENDBRANCH  11  12
ENDBRANCH  10  11
ENDBRANCH   5  10
ENDBRANCH   1   6
BRANCH   3  22
ATOM     22  C   LIG    1       -5.009   0.677   1.083  0.00  0.00    +0.360 C 
BRANCH  22  23
ATOM     23  N   LIG    1       -6.188   1.546   1.128  0.00  0.00    -0.600 N 
ATOM     24  C   LIG    1       -6.938   1.712   0.016  0.00  0.00    +0.580 C 
ATOM     25  C   LIG    1       -8.115   2.599   0.036  0.00  0.00    -0.170 A 
ATOM     26  C   LIG    1       -9.094   2.558  -0.952  0.00  0.00    +0.110 A 
ATOM     27  C   LIG    1      -10.160   3.432  -0.889  0.00  0.00    +0.000 A 
ATOM     28  C   LIG    1      -10.265   4.348   0.145  0.00  0.00    +0.080 A 
ATOM     29  C   LIG    1       -9.302   4.397   1.139  0.00  0.00    +0.000 A 
ATOM     30  C   LIG    1       -8.236   3.526   1.091  0.00  0.00    +0.200 A 
ATOM     31  N   LIG    1       -7.224   3.490   2.054  0.00  0.00    -0.560 N 
ATOM     32  C   LIG    1       -6.710   4.514   2.738  0.00  0.00    +0.530 C 
ATOM     33  C   LIG    1       -5.445   4.101   3.449  0.00  0.00    +0.090 C 
ATOM     34  C   LIG    1       -5.287   2.592   3.181  0.00  0.00    +0.060 C 
ATOM     35  O   LIG    1       -7.194   5.625   2.783  0.00  0.00    -0.500 OA
ATOM     36  O   LIG    1       -6.643   1.123  -1.006  0.00  0.00    -0.520 OA
ATOM     37  C   LIG    1       -6.536   2.228   2.373  0.00  0.00    +0.380 C 
ATOM     38  C   LIG    1       -7.453   1.336   3.212  0.00  0.00    +0.070 C 
ENDBRANCH  22  23
ENDBRANCH   3  22
TORSDOF 6
