REMARK  Name = ZINCpk00000eb0qj.0
REMARK                            x       y       z     vdW  Elec       q    Type
REMARK                         _______ _______ _______ _____ _____    ______ ____
ROOT
ATOM      1  C   LIG    1       -1.117   6.293  -2.113  0.00  0.00    +0.190 C 
ATOM      2  C   LIG    1       -1.935   6.397  -3.402  0.00  0.00    +0.080 C 
ENDROOT
BRANCH   1   5
ATOM      3  N   LIG    1       -0.846   8.741  -1.878  0.00  0.00    -0.670 N 
ATOM      4  H   LIG    1       -0.414   8.746  -2.746  0.00  0.00    +0.420 HD
ATOM      5  C   LIG    1       -1.246   7.575  -1.332  0.00  0.00    +0.520 C 
ATOM      6  O   LIG    1       -1.710   7.558  -0.211  0.00  0.00    -0.490 OA
BRANCH   3  11
ATOM      7  C   LIG    1       -1.689  13.613   0.907  0.00  0.00    +0.110 C 
ATOM      8  C   LIG    1       -1.466  12.319   0.167  0.00  0.00    -0.130 A 
ATOM      9  C   LIG    1       -1.170  11.165   0.868  0.00  0.00    +0.070 A 
ATOM     10  C   LIG    1       -0.964   9.978   0.193  0.00  0.00    +0.020 A 
ATOM     11  C   LIG    1       -1.055   9.943  -1.192  0.00  0.00    +0.170 A 
ATOM     12  C   LIG    1       -1.347  11.103  -1.896  0.00  0.00    -0.040 A 
ATOM     13  C   LIG    1       -1.557  12.289  -1.215  0.00  0.00    +0.120 A 
ATOM     14  F   LIG    1       -1.846  13.418  -1.898  0.00  0.00    -0.130 F 
ENDBRANCH   3  11
ENDBRANCH   1   5
BRANCH   1  15
ATOM     15  O   LIG    1       -1.612   5.187  -1.314  0.00  0.00    -0.330 OA
BRANCH  15  16
ATOM     16  C   LIG    1       -1.054   3.985  -1.524  0.00  0.00    +0.440 C 
ATOM     17  O   LIG    1       -0.179   3.861  -2.349  0.00  0.00    -0.470 OA
BRANCH  16  18
ATOM     18  C   LIG    1       -1.516   2.790  -0.731  0.00  0.00    +0.290 C 
ATOM     19  C   LIG    1       -1.240   3.017   0.770  0.00  0.00    +0.060 C 
ATOM     20  C   LIG    1       -0.792   1.613   1.259  0.00  0.00    +0.040 C 
ATOM     21  C   LIG    1       -0.012   1.091   0.027  0.00  0.00    +0.280 C 
ATOM     22  N   LIG    1       -0.760   1.597  -1.139  0.00  0.00    -1.000 NA
BRANCH  22  23
ATOM     23  S   LIG    1       -0.750   0.931  -2.655  0.00  0.00    +2.620 S 
ATOM     24  O   LIG    1        0.501   0.261  -2.735  0.00  0.00    -0.940 OA
ATOM     25  O   LIG    1       -1.054   2.019  -3.517  0.00  0.00    -0.930 OA
ATOM     26  C   LIG    1       -2.113  -0.265  -2.634  0.00  0.00    -0.290 C 
ENDBRANCH  22  23
ENDBRANCH  16  18
ENDBRANCH  15  16
ENDBRANCH   1  15
TORSDOF 6
