REMARK  Name = ZINCrH000004nN5b.0
REMARK                            x       y       z     vdW  Elec       q    Type
REMARK                         _______ _______ _______ _____ _____    ______ ____
ROOT
ATOM      1  C   LIG    1        5.171  -2.690   0.003  0.00  0.00    +0.130 A 
ATOM      2  C   LIG    1        6.151  -1.770  -0.056  0.00  0.00    -0.110 A 
ATOM      3  S   LIG    1        5.410  -0.172   0.005  0.00  0.00    +0.220 S 
ATOM      4  C   LIG    1        3.816  -0.914   0.106  0.00  0.00    +0.270 A 
ATOM      5  N   LIG    1        3.941  -2.205   0.094  0.00  0.00    -0.500 NA
ENDROOT
BRANCH   1   9
ATOM      6  C   LIG    1        5.969  -6.868  -0.081  0.00  0.00    +0.140 A 
ATOM      7  C   LIG    1        4.658  -6.413   0.010  0.00  0.00    +0.000 A 
ATOM      8  C   LIG    1        4.398  -5.059   0.037  0.00  0.00    +0.070 A 
ATOM      9  C   LIG    1        5.449  -4.146  -0.026  0.00  0.00    -0.030 A 
ATOM     10  C   LIG    1        6.762  -4.605  -0.122  0.00  0.00    +0.050 A 
ATOM     11  C   LIG    1        7.019  -5.959  -0.144  0.00  0.00    +0.010 A 
BRANCH   6  12
ATOM     12  N   LIG    1        6.230  -8.240  -0.110  0.00  0.00    -1.060 N 
ATOM     13  H   LIG    1        5.792  -8.830   0.523  0.00  0.00    +0.430 HD
BRANCH  12  15
ATOM     14  C   LIG    1        6.548  -8.450  -2.828  0.00  0.00    -0.280 C 
ATOM     15  S   LIG    1        7.289  -8.858  -1.223  0.00  0.00    +2.610 S 
ATOM     16  O   LIG    1        7.254 -10.260  -0.999  0.00  0.00    -0.950 OA
ATOM     17  O   LIG    1        8.483  -8.114  -1.022  0.00  0.00    -0.950 OA
ENDBRANCH  12  15
ENDBRANCH   6  12
ENDBRANCH   1   9
BRANCH   4  18
ATOM     18  N   LIG    1        2.614  -0.225   0.191  0.00  0.00    -0.620 N 
ATOM     19  H   LIG    1        1.778  -0.713   0.243  0.00  0.00    +0.420 HD
ATOM     20  C   LIG    1        2.609   1.123   0.201  0.00  0.00    +0.560 C 
ATOM     21  O   LIG    1        3.658   1.735   0.135  0.00  0.00    -0.480 OA
BRANCH  20  22
ATOM     22  C   LIG    1        1.332   1.855   0.291  0.00  0.00    -0.190 A 
ATOM     23  C   LIG    1        0.125   1.155   0.367  0.00  0.00    +0.130 A 
ATOM     24  C   LIG    1       -1.065   1.844   0.445  0.00  0.00    -0.010 A 
ATOM     25  C   LIG    1       -1.069   3.231   0.460  0.00  0.00    +0.170 A 
ATOM     26  C   LIG    1        0.123   3.934   0.386  0.00  0.00    -0.040 A 
ATOM     27  F   LIG    1       -2.240   3.900   0.543  0.00  0.00    -0.120 F 
ATOM     28  C   LIG    1        1.323   3.255   0.301  0.00  0.00    +0.200 A 
ATOM     29  F   LIG    1        2.485   3.940   0.228  0.00  0.00    -0.100 F 
ENDBRANCH  20  22
ENDBRANCH   4  18
TORSDOF 5
