REMARK  Name = ZINCqH0000006iFs.0
REMARK                            x       y       z     vdW  Elec       q    Type
REMARK                         _______ _______ _______ _____ _____    ______ ____
ROOT
ATOM      1  C   LIG    1       -2.127  -3.652   3.821  0.00  0.00    +0.530 C 
ATOM      2  N   LIG    1       -2.090  -4.688   4.682  0.00  0.00    -0.720 N 
ATOM      3  H   LIG    1       -1.448  -4.691   5.410  0.00  0.00    +0.400 HD
ATOM      4  O   LIG    1       -2.928  -3.648   2.911  0.00  0.00    -0.520 OA
ENDROOT
BRANCH   2   5
ATOM      5  C   LIG    1       -3.017  -5.809   4.519  0.00  0.00    +0.290 C 
ATOM      6  C   LIG    1       -4.345  -5.478   5.204  0.00  0.00    +0.040 C 
BRANCH   5   7
ATOM      7  C   LIG    1       -2.425  -7.046   5.144  0.00  0.00    -0.100 A 
ATOM      8  C   LIG    1       -1.739  -6.955   6.340  0.00  0.00    +0.000 A 
ATOM      9  C   LIG    1       -1.200  -8.091   6.916  0.00  0.00    +0.010 A 
ATOM     10  C   LIG    1       -1.338  -9.315   6.290  0.00  0.00    -0.080 A 
ATOM     11  C   LIG    1       -2.019  -9.405   5.090  0.00  0.00    -0.080 A 
ATOM     12  C   LIG    1       -2.169 -10.740   4.407  0.00  0.00    +0.090 C 
ATOM     13  C   LIG    1       -0.745 -10.552   6.914  0.00  0.00    +0.090 C 
ATOM     14  C   LIG    1       -2.563  -8.271   4.517  0.00  0.00    +0.020 A 
ENDBRANCH   5   7
ENDBRANCH   2   5
BRANCH   1  15
ATOM     15  C   LIG    1       -1.172  -2.498   3.989  0.00  0.00    +0.110 C 
BRANCH  15  16
ATOM     16  S   LIG    1       -1.468  -1.275   2.688  0.00  0.00    +0.060 S 
BRANCH  16  18
ATOM     17  N   LIG    1       -0.020   1.094   2.454  0.00  0.00    -0.440 N 
ATOM     18  C   LIG    1       -0.252  -0.073   3.114  0.00  0.00    +0.180 A 
ATOM     19  N   LIG    1        0.586  -0.153   4.121  0.00  0.00    -0.480 NA
ATOM     20  C   LIG    1        1.361   0.945   4.143  0.00  0.00    +0.010 A 
ATOM     21  C   LIG    1        2.445   1.240   5.146  0.00  0.00    +0.140 C 
ATOM     22  C   LIG    1        1.002   1.735   3.116  0.00  0.00    -0.010 A 
ATOM     23  C   LIG    1        1.606   3.068   2.758  0.00  0.00    +0.160 C 
BRANCH  17  24
ATOM     24  C   LIG    1       -0.729   1.579   1.267  0.00  0.00    +0.330 C 
BRANCH  24  25
ATOM     25  C   LIG    1       -0.013   1.086   0.008  0.00  0.00    +0.170 C 
BRANCH  25  27
ATOM     26  C   LIG    1       -0.114   1.152  -2.386  0.00  0.00    +0.210 C 
ATOM     27  O   LIG    1       -0.704   1.559  -1.150  0.00  0.00    -0.390 OA
ENDBRANCH  25  27
ENDBRANCH  24  25
ENDBRANCH  17  24
ENDBRANCH  16  18
ENDBRANCH  15  16
ENDBRANCH   1  15
TORSDOF 8
