REMARK  Name = ZINCkj00000y7xv8.1
REMARK                            x       y       z     vdW  Elec       q    Type
REMARK                         _______ _______ _______ _____ _____    ______ ____
ROOT
ATOM      1  C   LIG    1        1.875   1.461   3.846  0.00  0.00    +0.140 C 
ATOM      2  C   LIG    1        2.259   2.630   4.777  0.00  0.00    +0.080 C 
ATOM      3  C   LIG    1        1.195   3.708   4.441  0.00  0.00    +0.080 C 
ATOM      4  C   LIG    1        1.001   3.492   2.919  0.00  0.00    +0.260 C 
ATOM      5  N   LIG    1        1.095   2.028   2.731  0.00  0.00    -0.380 N 
ATOM      6  H   LIG    1        0.169   1.628   2.726  0.00  0.00    +0.430 HD
ENDROOT
BRANCH   1   7
ATOM      7  C   LIG    1        1.028   0.440   4.608  0.00  0.00    +0.310 C 
BRANCH   7  10
ATOM      8  C   LIG    1        2.741  -0.337   7.940  0.00  0.00    +0.120 C 
ATOM      9  C   LIG    1        1.821   0.256   6.904  0.00  0.00    +0.520 C 
ATOM     10  N   LIG    1        1.847  -0.203   5.637  0.00  0.00    -0.580 N 
ATOM     11  O   LIG    1        1.056   1.145   7.211  0.00  0.00    -0.530 OA
BRANCH  10  12
ATOM     12  C   LIG    1        2.695  -1.346   5.290  0.00  0.00    +0.210 C 
ATOM     13  C   LIG    1        2.897  -1.651   3.804  0.00  0.00    +0.020 C 
ATOM     14  C   LIG    1        2.017  -2.564   4.660  0.00  0.00    +0.040 C 
ENDBRANCH  10  12
ENDBRANCH   7  10
ENDBRANCH   1   7
BRANCH   5  15
ATOM     15  C   LIG    1        1.768   1.736   1.458  0.00  0.00    +0.260 C 
BRANCH  15  16
ATOM     16  C   LIG    1        0.891   2.212   0.297  0.00  0.00    +0.220 C 
BRANCH  16  17
ATOM     17  C   LIG    1        1.586   1.895  -1.029  0.00  0.00    +0.430 C 
ATOM     18  F   LIG    1        1.787   0.515  -1.132  0.00  0.00    -0.170 F 
ATOM     19  F   LIG    1        2.820   2.551  -1.077  0.00  0.00    -0.170 F 
ATOM     20  F   LIG    1        0.784   2.330  -2.090  0.00  0.00    -0.150 F 
ENDBRANCH  16  17
BRANCH  16  21
ATOM     21  O   LIG    1       -0.370   1.542   0.346  0.00  0.00    -0.520 OA
ATOM     22  H   LIG    1       -0.313   0.587   0.205  0.00  0.00    +0.400 HD
ENDBRANCH  16  21
ENDBRANCH  15  16
ENDBRANCH   5  15
TORSDOF 7
