REMARK  Name = ZINCkj00000y7xv8.0
REMARK                            x       y       z     vdW  Elec       q    Type
REMARK                         _______ _______ _______ _____ _____    ______ ____
ROOT
ATOM      1  C   LIG    1        3.903   0.204  -0.732  0.00  0.00    +0.140 C 
ATOM      2  C   LIG    1        5.434   0.193  -0.932  0.00  0.00    +0.090 C 
ATOM      3  C   LIG    1        5.730  -1.291  -1.274  0.00  0.00    +0.080 C 
ATOM      4  C   LIG    1        4.479  -1.678  -2.101  0.00  0.00    +0.270 C 
ATOM      5  N   LIG    1        3.360  -0.963  -1.450  0.00  0.00    -0.380 N 
ATOM      6  H   LIG    1        2.901  -1.580  -0.797  0.00  0.00    +0.430 HD
ENDROOT
BRANCH   1   7
ATOM      7  C   LIG    1        3.312   1.492  -1.311  0.00  0.00    +0.310 C 
BRANCH   7  10
ATOM      8  C   LIG    1        2.059   2.122   1.156  0.00  0.00    +0.110 C 
ATOM      9  C   LIG    1        3.158   2.992   0.603  0.00  0.00    +0.510 C 
ATOM     10  N   LIG    1        3.789   2.639  -0.534  0.00  0.00    -0.580 N 
ATOM     11  O   LIG    1        3.474   4.010   1.182  0.00  0.00    -0.500 OA
BRANCH  10  12
ATOM     12  C   LIG    1        4.951   3.404  -0.995  0.00  0.00    +0.180 C 
ATOM     13  C   LIG    1        4.800   4.922  -1.103  0.00  0.00    +0.020 C 
ATOM     14  C   LIG    1        5.644   4.316   0.020  0.00  0.00    +0.050 C 
ENDBRANCH  10  12
ENDBRANCH   7  10
ENDBRANCH   1   7
BRANCH   5  15
ATOM     15  C   LIG    1        2.401  -0.515  -2.468  0.00  0.00    +0.250 C 
BRANCH  15  16
ATOM     16  C   LIG    1        1.783  -1.734  -3.158  0.00  0.00    +0.220 C 
BRANCH  16  17
ATOM     17  C   LIG    1        0.664  -1.276  -4.095  0.00  0.00    +0.430 C 
ATOM     18  F   LIG    1       -0.272  -0.528  -3.374  0.00  0.00    -0.170 F 
ATOM     19  F   LIG    1        0.036  -2.395  -4.654  0.00  0.00    -0.150 F 
ATOM     20  F   LIG    1        1.205  -0.487  -5.116  0.00  0.00    -0.170 F 
ENDBRANCH  16  17
BRANCH  16  21
ATOM     21  O   LIG    1        2.788  -2.415  -3.911  0.00  0.00    -0.520 OA
ATOM     22  H   LIG    1        3.196  -1.874  -4.601  0.00  0.00    +0.400 HD
ENDBRANCH  16  21
ENDBRANCH  15  16
ENDBRANCH   5  15
TORSDOF 7
