REMARK  Name = ZINCrg00000AwsET.0
REMARK                            x       y       z     vdW  Elec       q    Type
REMARK                         _______ _______ _______ _____ _____    ______ ____
ROOT
ATOM      1  N   LIG    1        3.333   2.937   1.821  0.00  0.00    -0.720 N 
ATOM      2  H   LIG    1        3.707   2.199   1.315  0.00  0.00    +0.400 HD
ATOM      3  C   LIG    1        2.283   3.627   1.332  0.00  0.00    +0.520 C 
ATOM      4  O   LIG    1        1.815   4.549   1.966  0.00  0.00    -0.510 OA
ENDROOT
BRANCH   3   5
ATOM      5  C   LIG    1        1.691   3.252  -0.002  0.00  0.00    +0.350 C 
ATOM      6  C   LIG    1        1.196   1.826   0.038  0.00  0.00    -0.260 A 
ATOM      7  C   LIG    1       -0.118   1.482   0.053  0.00  0.00    +0.120 A 
ATOM      8  N   LIG    1       -0.189   0.141   0.098  0.00  0.00    -0.360 N 
ATOM      9  N   LIG    1        1.122  -0.359   0.106  0.00  0.00    -0.290 NA
ATOM     10  C   LIG    1       -1.417  -0.657   0.132  0.00  0.00    +0.360 C 
ATOM     11  C   LIG    1       -1.259   2.468   0.018  0.00  0.00    +0.110 C 
ATOM     12  C   LIG    1       -0.730   3.851   0.417  0.00  0.00    +0.330 C 
ATOM     13  C   LIG    1        1.950   0.656   0.070  0.00  0.00    +0.240 A 
ATOM     14  N   LIG    1        0.530   4.110  -0.296  0.00  0.00    -0.980 NA
BRANCH  14  15
ATOM     15  S   LIG    1        0.640   5.337  -1.403  0.00  0.00    +2.610 S 
ATOM     16  O   LIG    1        2.018   5.685  -1.404  0.00  0.00    -0.950 OA
ATOM     17  O   LIG    1       -0.350   6.269  -0.993  0.00  0.00    -0.940 OA
ATOM     18  C   LIG    1        0.177   4.568  -2.979  0.00  0.00    -0.280 C 
ENDBRANCH  14  15
ENDBRANCH   3   5
BRANCH   1  19
ATOM     19  C   LIG    1        3.909   3.301   3.118  0.00  0.00    +0.220 C 
ATOM     20  C   LIG    1        2.834   3.192   4.202  0.00  0.00    +0.050 C 
ATOM     21  C   LIG    1        4.429   4.739   3.060  0.00  0.00    +0.050 C 
BRANCH  19  26
ATOM     22  C   LIG    1        8.294  -0.146   4.442  0.00  0.00    +0.130 C 
ATOM     23  C   LIG    1        7.132   0.742   4.078  0.00  0.00    +0.130 A 
ATOM     24  C   LIG    1        6.168   0.280   3.203  0.00  0.00    -0.030 A 
ATOM     25  C   LIG    1        5.098   1.102   2.880  0.00  0.00    +0.060 A 
ATOM     26  C   LIG    1        5.046   2.368   3.443  0.00  0.00    -0.140 A 
ATOM     27  C   LIG    1        6.049   2.761   4.310  0.00  0.00    +0.280 A 
ATOM     28  N   LIG    1        7.047   1.950   4.599  0.00  0.00    -0.480 NA
ENDBRANCH  19  26
ENDBRANCH   1  19
TORSDOF 4
