REMARK  Name = ZINCrD000000Cba6.2
REMARK                            x       y       z     vdW  Elec       q    Type
REMARK                         _______ _______ _______ _____ _____    ______ ____
ROOT
ATOM      1  O   LIG    1        1.435  -0.848   0.091  0.00  0.00    -0.560 OA
ATOM      2  C   LIG    1        2.463  -0.200   0.080  0.00  0.00    +0.710 C 
ATOM      3  N   LIG    1        3.654  -0.826   0.167  0.00  0.00    -0.630 N 
ATOM      4  C   LIG    1        4.909  -0.063   0.265  0.00  0.00    +0.280 C 
ATOM      5  C   LIG    1        5.680  -0.585   1.485  0.00  0.00    +0.170 C 
ATOM      6  N   LIG    1        5.869  -2.041   1.373  0.00  0.00    -0.520 NA
ATOM      7  C   LIG    1        6.730  -2.499   2.474  0.00  0.00    +0.160 C 
ATOM      8  C   LIG    1        7.026  -3.991   2.329  0.00  0.00    +0.020 C 
ATOM      9  C   LIG    1        5.701  -4.761   2.360  0.00  0.00    +0.010 C 
ATOM     10  C   LIG    1        4.818  -4.259   1.218  0.00  0.00    +0.040 C 
ATOM     11  C   LIG    1        4.585  -2.751   1.361  0.00  0.00    +0.120 C 
ATOM     12  C   LIG    1        3.744  -2.291   0.162  0.00  0.00    +0.320 C 
ATOM     13  N   LIG    1        2.413   1.143  -0.020  0.00  0.00    -0.680 N 
ATOM     14  H   LIG    1        3.234   1.654  -0.099  0.00  0.00    +0.410 HD
ENDROOT
BRANCH  13  15
ATOM     15  C   LIG    1        1.181   1.798  -0.008  0.00  0.00    +0.240 A 
ATOM     16  C   LIG    1        1.042   3.050   0.593  0.00  0.00    -0.100 A 
ATOM     17  C   LIG    1       -0.191   3.664   0.589  0.00  0.00    +0.320 A 
ATOM     18  N   LIG    1       -1.233   3.090   0.017  0.00  0.00    -0.550 NA
ATOM     19  C   LIG    1       -1.145   1.903  -0.564  0.00  0.00    +0.340 A 
ATOM     20  C   LIG    1        0.061   1.219  -0.596  0.00  0.00    -0.030 A 
BRANCH  19  21
ATOM     21  O   LIG    1       -2.245   1.351  -1.133  0.00  0.00    -0.300 OA
BRANCH  21  22
ATOM     22  C   LIG    1       -3.458   2.105  -1.067  0.00  0.00    +0.270 C 
BRANCH  22  23
ATOM     23  C   LIG    1       -4.563   1.339  -1.747  0.00  0.00    -0.100 A 
ATOM     24  C   LIG    1       -4.802   1.520  -3.096  0.00  0.00    +0.020 A 
ATOM     25  C   LIG    1       -5.813   0.814  -3.721  0.00  0.00    +0.010 A 
ATOM     26  C   LIG    1       -6.592  -0.066  -2.994  0.00  0.00    +0.010 A 
ATOM     27  C   LIG    1       -6.357  -0.244  -1.643  0.00  0.00    +0.010 A 
ATOM     28  C   LIG    1       -5.342   0.458  -1.020  0.00  0.00    +0.030 A 
ENDBRANCH  22  23
ENDBRANCH  21  22
ENDBRANCH  19  21
ENDBRANCH  13  15
TORSDOF 4
