REMARK  Name = ZINCqH0000037Mk7.0
REMARK                            x       y       z     vdW  Elec       q    Type
REMARK                         _______ _______ _______ _____ _____    ______ ____
ROOT
ATOM      1  C   LIG    1       -0.364   3.752   8.678  0.00  0.00    +0.570 C 
ATOM      2  N   LIG    1       -1.104   4.741   9.217  0.00  0.00    -0.670 N 
ATOM      3  H   LIG    1       -1.720   5.244   8.661  0.00  0.00    +0.420 HD
ATOM      4  O   LIG    1        0.469   3.179   9.353  0.00  0.00    -0.510 OA
ENDROOT
BRANCH   2   5
ATOM      5  C   LIG    1       -0.984   5.043  10.578  0.00  0.00    +0.140 A 
ATOM      6  C   LIG    1        0.248   4.935  11.208  0.00  0.00    +0.130 A 
ATOM      7  C   LIG    1        0.364   5.233  12.552  0.00  0.00    +0.040 A 
ATOM      8  C   LIG    1       -0.747   5.638  13.271  0.00  0.00    +0.160 A 
ATOM      9  C   LIG    1       -1.978   5.747  12.644  0.00  0.00    -0.060 A 
ATOM     10  F   LIG    1       -0.632   5.929  14.585  0.00  0.00    -0.100 F 
ATOM     11  C   LIG    1       -2.097   5.455  11.300  0.00  0.00    +0.110 A 
BRANCH   9  12
ATOM     12  N   LIG    1       -3.164   6.181  13.415  0.00  0.00    +0.030 N 
ATOM     13  O   LIG    1       -3.059   6.442  14.600  0.00  0.00    -0.140 OA
ATOM     14  O   LIG    1       -4.247   6.276  12.864  0.00  0.00    -0.150 OA
ENDBRANCH   9  12
ENDBRANCH   2   5
BRANCH   1  18
ATOM     15  C   LIG    1       -0.938   2.641   4.618  0.00  0.00    +0.200 A 
ATOM     16  C   LIG    1       -1.698   3.666   5.171  0.00  0.00    +0.000 A 
ATOM     17  C   LIG    1       -1.519   4.025   6.489  0.00  0.00    +0.080 A 
ATOM     18  C   LIG    1       -0.563   3.366   7.267  0.00  0.00    -0.150 A 
ATOM     19  C   LIG    1        0.203   2.341   6.706  0.00  0.00    +0.120 A 
ATOM     20  C   LIG    1        0.015   1.984   5.389  0.00  0.00    +0.020 A 
BRANCH  15  27
ATOM     21  C   LIG    1       -3.651   2.661   3.176  0.00  0.00    +0.160 C 
ATOM     22  C   LIG    1       -2.308   2.272   2.613  0.00  0.00    +0.090 A 
ATOM     23  C   LIG    1       -2.061   1.861   1.347  0.00  0.00    -0.100 A 
ATOM     24  C   LIG    1       -0.691   1.597   1.239  0.00  0.00    +0.090 A 
ATOM     25  N   LIG    1       -0.131   1.848   2.394  0.00  0.00    -0.290 NA
ATOM     26  C   LIG    1        0.018   1.112   0.001  0.00  0.00    +0.160 C 
ATOM     27  N   LIG    1       -1.127   2.276   3.282  0.00  0.00    -0.340 N 
ENDBRANCH  15  27
ENDBRANCH   1  18
TORSDOF 4
