REMARK  Name = ZINCkj000005jZPz.0
REMARK                            x       y       z     vdW  Elec       q    Type
REMARK                         _______ _______ _______ _____ _____    ______ ____
ROOT
ATOM      1  C   LIG    1        1.962   5.617   0.595  0.00  0.00    +0.390 C 
ENDROOT
BRANCH   1   2
ATOM      2  N   LIG    1        1.888   7.040   0.255  0.00  0.00    -0.450 N 
ATOM      3  N   LIG    1        1.743   7.577  -1.032  0.00  0.00    -0.300 NA
ATOM      4  C   LIG    1        1.716   8.885  -0.921  0.00  0.00    +0.320 A 
ATOM      5  C   LIG    1        1.589   9.916  -1.886  0.00  0.00    +0.020 A 
ATOM      6  C   LIG    1        1.593  11.209  -1.480  0.00  0.00    +0.140 A 
ATOM      7  C   LIG    1        1.722  11.514  -0.110  0.00  0.00    +0.000 A 
ATOM      8  C   LIG    1        1.842  10.533   0.802  0.00  0.00    +0.300 A 
ATOM      9  N   LIG    1        1.841   9.213   0.416  0.00  0.00    -0.480 N 
ATOM     10  C   LIG    1        1.940   8.070   1.123  0.00  0.00    +0.650 A 
ATOM     11  O   LIG    1        2.059   7.983   2.333  0.00  0.00    -0.530 OA
ENDBRANCH   1   2
BRANCH   1  12
ATOM     12  C   LIG    1        0.554   5.080   0.857  0.00  0.00    +0.250 C 
BRANCH  12  18
ATOM     13  C   LIG    1        0.037   1.089   0.032  0.00  0.00    +0.070 C 
ATOM     14  C   LIG    1       -0.680   1.580   1.291  0.00  0.00    +0.070 C 
ATOM     15  S   LIG    1        0.232   1.032   2.767  0.00  0.00    -0.180 S 
ATOM     16  C   LIG    1        1.748   2.033   2.661  0.00  0.00    +0.140 C 
ATOM     17  C   LIG    1        1.348   3.499   2.464  0.00  0.00    +0.270 C 
ATOM     18  N   LIG    1        0.628   3.654   1.198  0.00  0.00    -0.380 N 
ATOM     19  H   LIG    1        1.130   3.166   0.471  0.00  0.00    +0.420 HD
ATOM     20  C   LIG    1       -0.729   3.112   1.292  0.00  0.00    +0.180 C 
ATOM     21  C   LIG    1       -1.381   3.598   2.588  0.00  0.00    +0.100 C 
ENDBRANCH  12  18
ENDBRANCH   1  12
TORSDOF 3
