REMARK  Name = ZINCkj000005jZPz.1
REMARK                            x       y       z     vdW  Elec       q    Type
REMARK                         _______ _______ _______ _____ _____    ______ ____
ROOT
ATOM      1  C   LIG    1       -0.696   2.537   5.775  0.00  0.00    +0.390 C 
ENDROOT
BRANCH   1   2
ATOM      2  N   LIG    1        0.161   2.694   6.953  0.00  0.00    -0.450 N 
ATOM      3  N   LIG    1        0.277   1.792   8.019  0.00  0.00    -0.300 NA
ATOM      4  C   LIG    1        1.140   2.288   8.875  0.00  0.00    +0.320 A 
ATOM      5  C   LIG    1        1.632   1.804  10.114  0.00  0.00    +0.020 A 
ATOM      6  C   LIG    1        2.538   2.542  10.801  0.00  0.00    +0.140 A 
ATOM      7  C   LIG    1        2.981   3.775  10.279  0.00  0.00    +0.000 A 
ATOM      8  C   LIG    1        2.512   4.228   9.104  0.00  0.00    +0.300 A 
ATOM      9  N   LIG    1        1.592   3.500   8.388  0.00  0.00    -0.480 N 
ATOM     10  C   LIG    1        0.986   3.731   7.206  0.00  0.00    +0.650 A 
ATOM     11  O   LIG    1        1.152   4.706   6.493  0.00  0.00    -0.530 OA
ENDBRANCH   1   2
BRANCH   1  12
ATOM     12  C   LIG    1        0.077   1.805   4.676  0.00  0.00    +0.240 C 
BRANCH  12  18
ATOM     13  C   LIG    1        0.241   0.859  -0.104  0.00  0.00    +0.120 C 
ATOM     14  C   LIG    1       -0.619   1.433   1.024  0.00  0.00    +0.030 C 
ATOM     15  S   LIG    1       -2.247   0.619   1.025  0.00  0.00    -0.190 S 
ATOM     16  C   LIG    1       -2.964   1.223   2.584  0.00  0.00    +0.140 C 
ATOM     17  C   LIG    1       -1.949   0.987   3.708  0.00  0.00    +0.280 C 
ATOM     18  N   LIG    1       -0.733   1.763   3.452  0.00  0.00    -0.380 N 
ATOM     19  H   LIG    1       -0.991   2.704   3.193  0.00  0.00    +0.420 HD
ATOM     20  C   LIG    1        0.057   1.167   2.373  0.00  0.00    +0.180 C 
ATOM     21  C   LIG    1        1.457   1.783   2.371  0.00  0.00    +0.110 C 
ENDBRANCH  12  18
ENDBRANCH   1  12
TORSDOF 3
