REMARK  Name = ZINCqH000000308n.0
REMARK                            x       y       z     vdW  Elec       q    Type
REMARK                         _______ _______ _______ _____ _____    ______ ____
ROOT
ATOM      1  C   LIG    1        3.648   2.184  -0.011  0.00  0.00    +0.070 C 
ENDROOT
BRANCH   1   2
ATOM      2  C   LIG    1        2.409   1.332   0.078  0.00  0.00    -0.080 A 
ATOM      3  C   LIG    1        1.164   1.929   0.158  0.00  0.00    +0.030 A 
ATOM      4  C   LIG    1        0.027   1.147   0.239  0.00  0.00    +0.010 A 
ATOM      5  C   LIG    1        0.134  -0.231   0.243  0.00  0.00    +0.030 A 
ATOM      6  C   LIG    1        1.379  -0.828   0.166  0.00  0.00    +0.010 A 
ATOM      7  C   LIG    1        2.516  -0.046   0.083  0.00  0.00    +0.040 A 
ENDBRANCH   1   2
BRANCH   1   9
ATOM      8  N   LIG    1        4.206   2.736   2.335  0.00  0.00    -0.600 N 
ATOM      9  C   LIG    1        3.689   3.136   1.156  0.00  0.00    +0.540 C 
ATOM     10  O   LIG    1        3.256   4.263   1.035  0.00  0.00    -0.520 OA
BRANCH   8  12
ATOM     11  C   LIG    1        2.848   3.360   4.271  0.00  0.00    +0.020 C 
ATOM     12  C   LIG    1        4.144   3.621   3.500  0.00  0.00    +0.270 C 
ENDBRANCH   8  12
BRANCH   8  13
ATOM     13  C   LIG    1        4.829   1.415   2.450  0.00  0.00    +0.260 C 
ATOM     14  C   LIG    1        6.295   1.504   2.019  0.00  0.00    +0.020 C 
ENDBRANCH   8  13
ENDBRANCH   1   9
BRANCH   1  15
ATOM     15  S   LIG    1        3.624   3.125  -1.557  0.00  0.00    +0.070 S 
BRANCH  15  16
ATOM     16  C   LIG    1        5.209   3.890  -1.475  0.00  0.00    +0.160 A 
ATOM     17  N   LIG    1        6.093   3.750  -0.512  0.00  0.00    -0.280 NA
ATOM     18  N   LIG    1        7.141   4.448  -0.769  0.00  0.00    -0.250 NA
ATOM     19  C   LIG    1        6.991   5.078  -1.914  0.00  0.00    +0.260 A 
ATOM     20  N   LIG    1        5.750   4.735  -2.403  0.00  0.00    -0.460 N 
ATOM     21  C   LIG    1        5.137   5.184  -3.656  0.00  0.00    +0.360 C 
BRANCH  19  22
ATOM     22  C   LIG    1        7.967   5.974  -2.553  0.00  0.00    +0.040 A 
ATOM     23  C   LIG    1        9.284   6.089  -2.223  0.00  0.00    +0.030 A 
ATOM     24  C   LIG    1        9.836   7.054  -3.088  0.00  0.00    -0.050 A 
ATOM     25  C   LIG    1        8.840   7.483  -3.889  0.00  0.00    +0.200 A 
ATOM     26  O   LIG    1        7.713   6.829  -3.563  0.00  0.00    -0.170 OA
ENDBRANCH  19  22
ENDBRANCH  15  16
ENDBRANCH   1  15
TORSDOF 7
