REMARK  Name = ZINCpk00000kNd2L.0
REMARK                            x       y       z     vdW  Elec       q    Type
REMARK                         _______ _______ _______ _____ _____    ______ ____
ROOT
ATOM      1  C   LIG    1       -0.383   3.189   5.266  0.00  0.00    +0.580 C 
ATOM      2  N   LIG    1       -0.372   2.504   4.105  0.00  0.00    -0.610 N 
ATOM      3  C   LIG    1        0.883   1.947   3.595  0.00  0.00    +0.280 C 
ATOM      4  O   LIG    1       -1.435   3.589   5.726  0.00  0.00    -0.520 OA
ENDROOT
BRANCH   1  11
ATOM      5  C   LIG    1        0.129   5.823   6.425  0.00  0.00    +0.150 C 
ATOM      6  C   LIG    1        1.141   4.712   6.539  0.00  0.00    +0.280 A 
ATOM      7  N   LIG    1        2.284   4.909   7.168  0.00  0.00    -0.570 NA
ATOM      8  C   LIG    1        3.181   3.937   7.272  0.00  0.00    +0.580 A 
ATOM      9  N   LIG    1        2.973   2.733   6.755  0.00  0.00    -0.580 NA
ATOM     10  C   LIG    1        1.852   2.454   6.116  0.00  0.00    +0.400 A 
ATOM     11  C   LIG    1        0.882   3.454   5.978  0.00  0.00    -0.310 A 
BRANCH   8  12
ATOM     12  N   LIG    1        4.363   4.184   7.937  0.00  0.00    -0.810 N 
ATOM     13  H   LIG    1        5.028   3.483   8.022  0.00  0.00    +0.420 HD
ATOM     14  H   LIG    1        4.529   5.060   8.321  0.00  0.00    +0.420 HD
ENDBRANCH   8  12
ENDBRANCH   1  11
BRANCH   2  15
ATOM     15  C   LIG    1       -1.616   2.317   3.354  0.00  0.00    +0.300 C 
BRANCH  15  16
ATOM     16  C   LIG    1       -2.299   1.027   3.812  0.00  0.00    -0.030 C 
ATOM     17  C   LIG    1       -1.455  -0.217   3.428  0.00  0.00    +0.030 C 
ATOM     18  C   LIG    1       -2.515  -1.333   3.317  0.00  0.00    +0.240 C 
ATOM     19  N   LIG    1       -3.812  -0.682   3.081  0.00  0.00    -0.620 N 
ATOM     20  C   LIG    1       -4.995  -1.313   2.949  0.00  0.00    +0.540 C 
ATOM     21  O   LIG    1       -5.991  -0.682   2.664  0.00  0.00    -0.540 OA
ATOM     22  C   LIG    1       -3.604   0.776   3.015  0.00  0.00    +0.260 C 
BRANCH  20  23
ATOM     23  C   LIG    1       -5.081  -2.804   3.154  0.00  0.00    -0.110 C 
ATOM     24  C   LIG    1       -6.511  -3.309   3.408  0.00  0.00    +0.050 C 
ATOM     25  C   LIG    1       -5.904  -4.257   4.457  0.00  0.00    +0.010 C 
ATOM     26  C   LIG    1       -4.332  -3.596   2.080  0.00  0.00    +0.070 C 
ATOM     27  C   LIG    1       -4.752  -3.248   4.589  0.00  0.00    +0.040 C 
ENDBRANCH  20  23
ENDBRANCH  15  16
ENDBRANCH   2  15
TORSDOF 5
