REMARK  Name = ZINCtV00000tRTey.1
REMARK                            x       y       z     vdW  Elec       q    Type
REMARK                         _______ _______ _______ _____ _____    ______ ____
ROOT
ATOM      1  C   LIG    1        1.345  -0.474   0.793  0.00  0.00    +0.010 C 
ATOM      2  C   LIG    1        2.466   0.228   0.021  0.00  0.00    +0.030 C 
ATOM      3  C   LIG    1        2.488   1.706   0.415  0.00  0.00    +0.120 C 
ATOM      4  C   LIG    1        1.082   2.268   0.302  0.00  0.00    -0.180 A 
ATOM      5  C   LIG    1       -0.026   1.520   0.230  0.00  0.00    -0.070 A 
ATOM      6  C   LIG    1       -1.243   2.297   0.136  0.00  0.00    -0.220 A 
ATOM      7  C   LIG    1       -2.580   1.824   0.037  0.00  0.00    +0.510 A 
ATOM      8  N   LIG    1       -3.520   2.766  -0.046  0.00  0.00    -0.560 NA
ATOM      9  C   LIG    1       -3.245   4.054  -0.043  0.00  0.00    +0.540 A 
ATOM     10  N   LIG    1       -2.023   4.550   0.041  0.00  0.00    -0.500 NA
ATOM     11  C   LIG    1       -1.008   3.679   0.128  0.00  0.00    +0.100 A 
ATOM     12  S   LIG    1        0.705   3.985   0.250  0.00  0.00    +0.180 S 
ATOM     13  C   LIG    1       -0.006  -0.003   0.253  0.00  0.00    +0.080 C 
ENDROOT
BRANCH   1  14
ATOM     14  C   LIG    1        1.468  -1.988   0.611  0.00  0.00    -0.060 C 
ATOM     15  C   LIG    1        1.367  -2.333  -0.876  0.00  0.00    +0.020 C 
ATOM     16  C   LIG    1        0.342  -2.688   1.375  0.00  0.00    +0.020 C 
BRANCH  14  18
ATOM     17  C   LIG    1        2.944  -3.972   0.971  0.00  0.00    +0.010 C 
ATOM     18  C   LIG    1        2.820  -2.458   1.153  0.00  0.00    +0.010 C 
ENDBRANCH  14  18
ENDBRANCH   1  14
BRANCH   7  19
ATOM     19  N   LIG    1       -2.886   0.475   0.032  0.00  0.00    -0.550 N 
ATOM     20  H   LIG    1       -2.178  -0.183  -0.051  0.00  0.00    +0.400 HD
BRANCH  19  21
ATOM     21  N   LIG    1       -4.218   0.058   0.149  0.00  0.00    -0.220 NA
ATOM     22  C   LIG    1       -4.506  -1.208   0.145  0.00  0.00    +0.130 C 
ATOM     23  C   LIG    1       -3.406  -2.229   0.015  0.00  0.00    +0.080 C 
BRANCH  22  24
ATOM     24  C   LIG    1       -5.908  -1.646   0.267  0.00  0.00    -0.050 A 
ATOM     25  C   LIG    1       -6.222  -3.007   0.258  0.00  0.00    +0.040 A 
ATOM     26  C   LIG    1       -7.535  -3.410   0.377  0.00  0.00    +0.000 A 
ATOM     27  C   LIG    1       -8.543  -2.469   0.496  0.00  0.00    -0.070 A 
ATOM     28  C   LIG    1       -8.240  -1.119   0.501  0.00  0.00    +0.000 A 
ATOM     29  C   LIG    1       -9.976  -2.917   0.621  0.00  0.00    +0.090 C 
ATOM     30  C   LIG    1       -6.931  -0.701   0.388  0.00  0.00    +0.070 A 
ENDBRANCH  22  24
ENDBRANCH  19  21
ENDBRANCH   7  19
TORSDOF 5
