REMARK  Name = ZINCtV00000tRTey.0
REMARK                            x       y       z     vdW  Elec       q    Type
REMARK                         _______ _______ _______ _____ _____    ______ ____
ROOT
ATOM      1  C   LIG    1       -0.013   1.086   0.008  0.00  0.00    +0.000 C 
ATOM      2  C   LIG    1       -0.733   1.581   1.266  0.00  0.00    +0.030 C 
ATOM      3  C   LIG    1       -2.065   0.840   1.399  0.00  0.00    +0.120 C 
ATOM      4  C   LIG    1       -2.805   0.916   0.076  0.00  0.00    -0.160 A 
ATOM      5  C   LIG    1       -2.235   1.248  -1.091  0.00  0.00    -0.070 A 
ATOM      6  C   LIG    1       -3.154   1.247  -2.205  0.00  0.00    -0.120 A 
ATOM      7  C   LIG    1       -2.883   1.549  -3.569  0.00  0.00    +0.360 A 
ATOM      8  N   LIG    1       -3.930   1.467  -4.395  0.00  0.00    -0.510 NA
ATOM      9  C   LIG    1       -5.136   1.133  -3.990  0.00  0.00    +0.510 A 
ATOM     10  N   LIG    1       -5.446   0.843  -2.737  0.00  0.00    -0.450 NA
ATOM     11  C   LIG    1       -4.465   0.895  -1.831  0.00  0.00    +0.070 A 
ATOM     12  S   LIG    1       -4.520   0.578  -0.117  0.00  0.00    +0.180 S 
ATOM     13  C   LIG    1       -0.755   1.594  -1.228  0.00  0.00    +0.130 C 
ENDROOT
BRANCH   1  14
ATOM     14  C   LIG    1        1.422   1.617  -0.003  0.00  0.00    -0.060 C 
ATOM     15  C   LIG    1        1.400   3.147   0.006  0.00  0.00    +0.030 C 
ATOM     16  C   LIG    1        2.139   1.125  -1.262  0.00  0.00    +0.020 C 
BRANCH  14  18
ATOM     17  C   LIG    1        3.597   1.642   1.226  0.00  0.00    +0.010 C 
ATOM     18  C   LIG    1        2.163   1.111   1.237  0.00  0.00    +0.010 C 
ENDBRANCH  14  18
ENDBRANCH   1  14
BRANCH   7  19
ATOM     19  N   LIG    1       -1.633   1.898  -4.007  0.00  0.00    -0.190 NA
ATOM     20  N   LIG    1       -1.444   2.153  -5.205  0.00  0.00    -0.140 NA
BRANCH  20  21
ATOM     21  C   LIG    1       -0.107   2.527  -5.673  0.00  0.00    +0.190 C 
ATOM     22  C   LIG    1        0.847   1.344  -5.492  0.00  0.00    +0.070 C 
BRANCH  21  23
ATOM     23  C   LIG    1       -0.171   2.901  -7.131  0.00  0.00    -0.080 A 
ATOM     24  C   LIG    1       -0.961   2.169  -7.998  0.00  0.00    +0.050 A 
ATOM     25  C   LIG    1       -1.024   2.516  -9.335  0.00  0.00    +0.000 A 
ATOM     26  C   LIG    1       -0.288   3.587  -9.807  0.00  0.00    -0.080 A 
ATOM     27  C   LIG    1        0.506   4.315  -8.941  0.00  0.00    +0.000 A 
ATOM     28  C   LIG    1       -0.352   3.961 -11.265  0.00  0.00    +0.090 C 
ATOM     29  C   LIG    1        0.564   3.972  -7.603  0.00  0.00    +0.020 A 
ENDBRANCH  21  23
ENDBRANCH  20  21
ENDBRANCH   7  19
TORSDOF 5
