REMARK  Name = ZINCvU0000000HDh.0
REMARK                            x       y       z     vdW  Elec       q    Type
REMARK                         _______ _______ _______ _____ _____    ______ ____
ROOT
ATOM      1  C   LIG    1        0.256  -3.005   0.165  0.00  0.00    +0.110 C 
ATOM      2  C   LIG    1       -0.189  -1.589  -0.094  0.00  0.00    +0.010 A 
ATOM      3  C   LIG    1        0.752  -0.591  -0.272  0.00  0.00    +0.020 A 
ATOM      4  C   LIG    1        0.348   0.707  -0.515  0.00  0.00    +0.100 A 
ATOM      5  C   LIG    1       -1.006   1.012  -0.570  0.00  0.00    +0.120 A 
ATOM      6  C   LIG    1       -1.949   0.007  -0.392  0.00  0.00    +0.110 A 
ATOM      7  C   LIG    1       -1.538  -1.289  -0.154  0.00  0.00    -0.660 A 
ENDROOT
BRANCH   5   8
ATOM      8  N   LIG    1       -1.419   2.326  -0.810  0.00  0.00    -0.670 N 
ATOM      9  H   LIG    1       -2.214   2.495  -1.340  0.00  0.00    +0.410 HD
ATOM     10  C   LIG    1       -0.710   3.357  -0.310  0.00  0.00    +0.560 C 
ATOM     11  O   LIG    1        0.335   3.150   0.274  0.00  0.00    -0.510 OA
BRANCH  10  12
ATOM     12  C   LIG    1       -1.203   4.741  -0.473  0.00  0.00    -0.110 A 
ATOM     13  C   LIG    1       -2.400   4.984  -1.149  0.00  0.00    +0.050 A 
ATOM     14  C   LIG    1       -2.858   6.277  -1.293  0.00  0.00    +0.080 A 
ATOM     15  C   LIG    1       -2.127   7.334  -0.778  0.00  0.00    -0.150 A 
ATOM     16  C   LIG    1       -0.937   7.101  -0.112  0.00  0.00    +0.080 A 
ATOM     17  C   LIG    1       -0.471   5.812   0.043  0.00  0.00    +0.090 A 
BRANCH  15  18
ATOM     18  C   LIG    1       -2.630   8.745  -0.944  0.00  0.00    +0.510 C 
ATOM     19  F   LIG    1       -2.201   9.523   0.136  0.00  0.00    -0.170 F 
ATOM     20  F   LIG    1       -4.029   8.739  -0.988  0.00  0.00    -0.170 F 
ATOM     21  F   LIG    1       -2.128   9.282  -2.135  0.00  0.00    -0.170 F 
ENDBRANCH  15  18
ENDBRANCH  10  12
ENDBRANCH   5   8
BRANCH   7  22
ATOM     22  S   LIG    1       -2.733  -2.564   0.072  0.00  0.00    +2.700 S 
ATOM     23  O   LIG    1       -2.348  -3.631  -0.783  0.00  0.00    -0.940 OA
ATOM     24  O   LIG    1       -4.006  -1.936   0.008  0.00  0.00    -0.950 OA
BRANCH  22  25
ATOM     25  N   LIG    1       -2.565  -3.123   1.622  0.00  0.00    -1.050 N 
ATOM     26  H   LIG    1       -2.339  -4.053   1.780  0.00  0.00    +0.430 HD
BRANCH  25  27
ATOM     27  C   LIG    1       -2.748  -2.255   2.703  0.00  0.00    +0.120 A 
ATOM     28  C   LIG    1       -3.706  -1.252   2.635  0.00  0.00    +0.030 A 
ATOM     29  C   LIG    1       -3.886  -0.396   3.704  0.00  0.00    +0.040 A 
ATOM     30  C   LIG    1       -3.113  -0.535   4.842  0.00  0.00    +0.040 A 
ATOM     31  C   LIG    1       -2.157  -1.532   4.914  0.00  0.00    +0.010 A 
ATOM     32  C   LIG    1       -1.975  -2.396   3.850  0.00  0.00    +0.080 A 
ATOM     33  F   LIG    1       -1.045  -3.374   3.923  0.00  0.00    -0.130 F 
ENDBRANCH  25  27
ENDBRANCH  22  25
ENDBRANCH   7  22
TORSDOF 6
