REMARK  Name = ZINCqH00000029Sm.0
REMARK                            x       y       z     vdW  Elec       q    Type
REMARK                         _______ _______ _______ _____ _____    ______ ____
ROOT
ATOM      1  C   LIG    1       -1.482   3.014   0.507  0.00  0.00    +0.230 A 
ATOM      2  N   LIG    1       -1.011   3.772  -0.436  0.00  0.00    -0.280 NA
ATOM      3  N   LIG    1       -1.466   4.945  -0.531  0.00  0.00    -0.240 NA
ATOM      4  C   LIG    1       -2.375   5.312   0.325  0.00  0.00    -0.070 A 
ATOM      5  S   LIG    1       -2.688   3.946   1.397  0.00  0.00    +0.240 S 
ENDROOT
BRANCH   1   7
ATOM      6  C   LIG    1       -1.571   1.069   1.864  0.00  0.00    +0.510 C 
ATOM      7  N   LIG    1       -1.105   1.699   0.767  0.00  0.00    -0.480 N 
ATOM      8  O   LIG    1       -2.318   1.647   2.624  0.00  0.00    -0.500 OA
BRANCH   7   9
ATOM      9  C   LIG    1       -0.203   1.000  -0.151  0.00  0.00    +0.190 C 
ATOM     10  C   LIG    1       -0.003   1.605  -1.542  0.00  0.00    +0.070 C 
ATOM     11  C   LIG    1        1.118   1.687  -0.503  0.00  0.00    +0.040 C 
ENDBRANCH   7   9
BRANCH   6  13
ATOM     12  C   LIG    1       -1.827  -0.829   3.440  0.00  0.00    +0.070 C 
ATOM     13  C   LIG    1       -1.164  -0.355   2.145  0.00  0.00    +0.090 C 
ENDBRANCH   6  13
ENDBRANCH   1   7
BRANCH   4  14
ATOM     14  S   LIG    1       -3.158   6.889   0.396  0.00  0.00    +0.060 S 
BRANCH  14  15
ATOM     15  C   LIG    1       -2.384   7.791  -0.975  0.00  0.00    +0.260 C 
BRANCH  15  16
ATOM     16  C   LIG    1       -2.958   9.182  -1.048  0.00  0.00    +0.170 A 
ATOM     17  N   LIG    1       -2.498  10.237  -0.435  0.00  0.00    -0.250 NA
ATOM     18  N   LIG    1       -3.231  11.255  -0.723  0.00  0.00    -0.270 NA
ATOM     19  C   LIG    1       -4.191  10.881  -1.536  0.00  0.00    +0.230 A 
ATOM     20  O   LIG    1       -4.032   9.562  -1.762  0.00  0.00    -0.210 OA
BRANCH  19  21
ATOM     21  C   LIG    1       -5.246  11.747  -2.105  0.00  0.00    -0.030 A 
ATOM     22  C   LIG    1       -6.204  11.211  -2.966  0.00  0.00    +0.050 A 
ATOM     23  C   LIG    1       -7.189  12.023  -3.489  0.00  0.00    +0.010 A 
ATOM     24  C   LIG    1       -7.222  13.369  -3.169  0.00  0.00    +0.040 A 
ATOM     25  C   LIG    1       -6.272  13.908  -2.320  0.00  0.00    +0.020 A 
ATOM     26  C   LIG    1       -5.285  13.105  -1.786  0.00  0.00    +0.080 A 
ENDBRANCH  19  21
ENDBRANCH  15  16
ENDBRANCH  14  15
ENDBRANCH   4  14
TORSDOF 7
