REMARK  Name = ZINCqH00000326T7.0
REMARK                            x       y       z     vdW  Elec       q    Type
REMARK                         _______ _______ _______ _____ _____    ______ ____
ROOT
ATOM      1  C   LIG    1        0.914  -5.070   0.074  0.00  0.00    +0.490 C 
ATOM      2  N   LIG    1       -0.362  -4.716   0.326  0.00  0.00    -0.660 N 
ATOM      3  H   LIG    1       -1.021  -5.395   0.539  0.00  0.00    +0.410 HD
ATOM      4  O   LIG    1        1.756  -4.216  -0.104  0.00  0.00    -0.490 OA
ENDROOT
BRANCH   2   5
ATOM      5  C   LIG    1       -0.737  -3.367   0.280  0.00  0.00    +0.120 A 
ATOM      6  C   LIG    1       -1.724  -2.891   1.132  0.00  0.00    +0.020 A 
ATOM      7  C   LIG    1       -2.094  -1.562   1.086  0.00  0.00    +0.020 A 
ATOM      8  C   LIG    1       -1.477  -0.701   0.188  0.00  0.00    +0.150 A 
ATOM      9  C   LIG    1       -0.493  -1.178  -0.668  0.00  0.00    -0.010 A 
ATOM     10  C   LIG    1       -0.121  -2.506  -0.619  0.00  0.00    +0.050 A 
BRANCH   8  11
ATOM     11  N   LIG    1       -1.853   0.648   0.141  0.00  0.00    -0.560 N 
ATOM     12  C   LIG    1       -1.178   1.668  -0.671  0.00  0.00    +0.260 C 
ATOM     13  C   LIG    1       -1.629   3.025  -0.087  0.00  0.00    +0.060 C 
ATOM     14  C   LIG    1       -2.989   2.657   0.551  0.00  0.00    +0.070 C 
ATOM     15  C   LIG    1       -2.881   1.174   0.829  0.00  0.00    +0.520 C 
ATOM     16  O   LIG    1       -3.614   0.550   1.567  0.00  0.00    -0.510 OA
ENDBRANCH   8  11
ENDBRANCH   2   5
BRANCH   1  18
ATOM     17  C   LIG    1        0.984  -7.190   1.359  0.00  0.00    +0.050 C 
ATOM     18  C   LIG    1        1.294  -6.527   0.015  0.00  0.00    +0.100 C 
ATOM     19  C   LIG    1        0.493  -7.218  -1.091  0.00  0.00    +0.110 C 
BRANCH  18  20
ATOM     20  O   LIG    1        2.690  -6.644  -0.264  0.00  0.00    -0.280 OA
BRANCH  20  21
ATOM     21  C   LIG    1        3.547  -6.086   0.632  0.00  0.00    +0.130 A 
ATOM     22  C   LIG    1        3.055  -5.322   1.680  0.00  0.00    -0.030 A 
ATOM     23  C   LIG    1        3.927  -4.759   2.592  0.00  0.00    +0.020 A 
ATOM     24  C   LIG    1        5.292  -4.948   2.454  0.00  0.00    +0.060 A 
ATOM     25  C   LIG    1        5.785  -5.706   1.405  0.00  0.00    +0.020 A 
ATOM     26  F   LIG    1        6.144  -4.393   3.344  0.00  0.00    -0.140 F 
ATOM     27  C   LIG    1        4.915  -6.274   0.495  0.00  0.00    +0.020 A 
ENDBRANCH  20  21
ENDBRANCH  18  20
ENDBRANCH   1  18
TORSDOF 5
