REMARK  Name = ZINCvU00000009Pb.0
REMARK                            x       y       z     vdW  Elec       q    Type
REMARK                         _______ _______ _______ _____ _____    ______ ____
ROOT
ATOM      1  C   LIG    1       -1.216  -0.886   0.188  0.00  0.00    +0.110 A 
ATOM      2  N   LIG    1       -2.347  -0.247   0.256  0.00  0.00    -0.460 NA
ATOM      3  C   LIG    1       -3.445  -0.943   0.061  0.00  0.00    +0.190 A 
ATOM      4  C   LIG    1       -3.214  -2.281  -0.192  0.00  0.00    -0.300 A 
ATOM      5  S   LIG    1       -1.472  -2.539  -0.160  0.00  0.00    +0.230 S 
ENDROOT
BRANCH   1  10
ATOM      6  C   LIG    1        2.507  -0.450   0.468  0.00  0.00    +0.130 A 
ATOM      7  C   LIG    1        2.598   0.908   0.740  0.00  0.00    -0.040 A 
ATOM      8  C   LIG    1        1.453   1.678   0.833  0.00  0.00    +0.060 A 
ATOM      9  C   LIG    1        0.213   1.101   0.654  0.00  0.00    +0.040 A 
ATOM     10  C   LIG    1        0.112  -0.264   0.379  0.00  0.00    -0.010 A 
ATOM     11  C   LIG    1        1.267  -1.039   0.286  0.00  0.00    +0.000 A 
BRANCH   6  13
ATOM     12  C   LIG    1        4.881  -0.529   0.576  0.00  0.00    +0.240 C 
ATOM     13  O   LIG    1        3.636  -1.202   0.378  0.00  0.00    -0.310 OA
ENDBRANCH   6  13
ENDBRANCH   1  10
BRANCH   3  14
ATOM     14  C   LIG    1       -4.801  -0.349   0.109  0.00  0.00    +0.020 A 
ATOM     15  C   LIG    1       -5.064   0.852  -0.550  0.00  0.00    +0.070 A 
ATOM     16  C   LIG    1       -6.331   1.397  -0.507  0.00  0.00    +0.100 A 
ATOM     17  C   LIG    1       -7.337   0.761   0.199  0.00  0.00    -0.030 A 
ATOM     18  C   LIG    1       -7.081  -0.427   0.860  0.00  0.00    +0.100 A 
ATOM     19  C   LIG    1       -5.820  -0.985   0.818  0.00  0.00    +0.100 A 
BRANCH  17  20
ATOM     20  N   LIG    1       -8.692   1.355   0.247  0.00  0.00    +0.030 N 
ATOM     21  O   LIG    1       -8.919   2.401  -0.334  0.00  0.00    -0.160 OA
ATOM     22  O   LIG    1       -9.579   0.797   0.867  0.00  0.00    -0.160 OA
ENDBRANCH  17  20
ENDBRANCH   3  14
BRANCH   4  23
ATOM     23  C   LIG    1       -4.233  -3.300  -0.446  0.00  0.00    +0.600 C 
ATOM     24  N   LIG    1       -3.878  -4.596  -0.548  0.00  0.00    -0.670 N 
ATOM     25  H   LIG    1       -2.960  -4.862  -0.387  0.00  0.00    +0.410 HD
ATOM     26  O   LIG    1       -5.401  -2.977  -0.564  0.00  0.00    -0.490 OA
BRANCH  24  27
ATOM     27  C   LIG    1       -4.835  -5.558  -0.888  0.00  0.00    +0.140 A 
ATOM     28  C   LIG    1       -6.141  -5.432  -0.432  0.00  0.00    +0.020 A 
ATOM     29  C   LIG    1       -7.084  -6.380  -0.774  0.00  0.00    +0.030 A 
ATOM     30  C   LIG    1       -6.728  -7.460  -1.561  0.00  0.00    +0.000 A 
ATOM     31  C   LIG    1       -5.428  -7.591  -2.013  0.00  0.00    +0.030 A 
ATOM     32  C   LIG    1       -4.480  -6.643  -1.679  0.00  0.00    -0.010 A 
ENDBRANCH  24  27
ENDBRANCH   4  23
TORSDOF 6
