REMARK  Name = ZINCpk000004AN4m.0
REMARK                            x       y       z     vdW  Elec       q    Type
REMARK                         _______ _______ _______ _____ _____    ______ ____
ROOT
ATOM      1  C   LIG    1       -0.610  -2.836  -1.713  0.00  0.00    +0.530 C 
ATOM      2  N   LIG    1       -0.448  -1.584  -1.239  0.00  0.00    -0.620 N 
ATOM      3  C   LIG    1       -1.308  -0.639  -0.500  0.00  0.00    +0.300 C 
ATOM      4  C   LIG    1        0.002  -0.004   0.002  0.00  0.00    -0.090 C 
ATOM      5  C   LIG    1        0.512  -0.601   1.315  0.00  0.00    +0.060 C 
ATOM      6  C   LIG    1       -0.019   1.526   0.010  0.00  0.00    +0.060 C 
ATOM      7  C   LIG    1        0.662  -0.608  -1.251  0.00  0.00    +0.320 C 
ATOM      8  O   LIG    1        0.298  -3.383  -2.301  0.00  0.00    -0.530 OA
ENDROOT
BRANCH   7   9
ATOM      9  C   LIG    1        0.651   0.310  -2.446  0.00  0.00    +0.210 A 
ATOM     10  N   LIG    1       -0.386   0.574  -3.193  0.00  0.00    -0.470 NA
ATOM     11  C   LIG    1       -0.028   1.431  -4.160  0.00  0.00    +0.150 A 
ATOM     12  C   LIG    1        1.283   1.703  -4.011  0.00  0.00    +0.130 A 
ATOM     13  N   LIG    1        1.714   0.992  -2.924  0.00  0.00    -0.450 N 
BRANCH  13  14
ATOM     14  C   LIG    1        3.074   0.974  -2.381  0.00  0.00    +0.320 C 
BRANCH  14  15
ATOM     15  C   LIG    1        3.837  -0.220  -2.956  0.00  0.00    +0.170 C 
BRANCH  15  16
ATOM     16  O   LIG    1        5.164  -0.238  -2.426  0.00  0.00    -0.390 OA
ATOM     17  C   LIG    1        5.966  -1.320  -2.903  0.00  0.00    +0.210 C 
ENDBRANCH  15  16
ENDBRANCH  14  15
ENDBRANCH  13  14
ENDBRANCH   7   9
BRANCH   1  18
ATOM     18  C   LIG    1       -1.919  -3.554  -1.511  0.00  0.00    +0.340 C 
BRANCH  18  20
ATOM     19  C   LIG    1       -2.200  -5.069  -3.399  0.00  0.00    +0.550 C 
ATOM     20  N   LIG    1       -1.842  -4.888  -2.112  0.00  0.00    -0.590 N 
ATOM     21  O   LIG    1       -2.587  -4.125  -4.061  0.00  0.00    -0.540 OA
BRANCH  19  23
ATOM     22  C   LIG    1       -2.475  -6.586  -5.273  0.00  0.00    +0.140 C 
ATOM     23  C   LIG    1       -2.122  -6.408  -4.003  0.00  0.00    -0.090 C 
ENDBRANCH  19  23
BRANCH  20  24
ATOM     24  C   LIG    1       -1.375  -6.025  -1.315  0.00  0.00    +0.270 C 
ATOM     25  C   LIG    1       -2.569  -6.686  -0.623  0.00  0.00    +0.020 C 
ENDBRANCH  20  24
ENDBRANCH  18  20
ENDBRANCH   1  18
TORSDOF 8
