REMARK  Name = ZINCpk00000FbMTV.1
REMARK                            x       y       z     vdW  Elec       q    Type
REMARK                         _______ _______ _______ _____ _____    ______ ____
ROOT
ATOM      1  C   LIG    1       -5.749   6.380  -1.992  0.00  0.00    +0.290 C 
ATOM      2  C   LIG    1       -4.677   5.360  -1.602  0.00  0.00    +0.170 C 
ATOM      3  N   LIG    1       -3.544   6.061  -0.980  0.00  0.00    -0.520 NA
ATOM      4  C   LIG    1       -3.982   6.811   0.206  0.00  0.00    +0.150 C 
ATOM      5  C   LIG    1       -5.062   7.816  -0.202  0.00  0.00    +0.250 C 
ATOM      6  O   LIG    1       -6.141   7.120  -0.832  0.00  0.00    -0.370 OA
ENDROOT
BRANCH   1  10
ATOM      7  C   LIG    1       -9.064   4.606  -5.300  0.00  0.00    +0.200 C 
ATOM      8  C   LIG    1       -8.370   4.900  -3.995  0.00  0.00    +0.290 A 
ATOM      9  N   LIG    1       -7.277   5.604  -3.848  0.00  0.00    -0.530 NA
ATOM     10  C   LIG    1       -6.946   5.660  -2.558  0.00  0.00    +0.230 A 
ATOM     11  N   LIG    1       -7.825   4.986  -1.865  0.00  0.00    -0.290 NA
ATOM     12  N   LIG    1       -8.766   4.485  -2.779  0.00  0.00    -0.480 N 
ATOM     13  H   LIG    1       -9.545   3.945  -2.575  0.00  0.00    +0.440 HD
ENDBRANCH   1  10
BRANCH   3  14
ATOM     14  C   LIG    1       -2.466   5.123  -0.641  0.00  0.00    +0.220 C 
BRANCH  14  15
ATOM     15  C   LIG    1       -1.236   5.895  -0.239  0.00  0.00    +0.520 C 
ATOM     16  N   LIG    1       -0.153   5.242   0.228  0.00  0.00    -0.560 N 
ATOM     17  C   LIG    1       -0.203   3.795   0.476  0.00  0.00    +0.270 C 
ATOM     18  C   LIG    1        0.463   3.527   1.832  0.00  0.00    +0.020 C 
ATOM     19  C   LIG    1        1.933   3.939   1.751  0.00  0.00    +0.080 C 
ATOM     20  C   LIG    1        2.059   5.341   1.216  0.00  0.00    -0.120 A 
ATOM     21  C   LIG    1        3.223   6.049   1.460  0.00  0.00    +0.020 A 
ATOM     22  C   LIG    1        3.371   7.336   0.979  0.00  0.00    -0.020 A 
ATOM     23  C   LIG    1        2.353   7.927   0.253  0.00  0.00    +0.020 A 
ATOM     24  C   LIG    1        1.191   7.226   0.001  0.00  0.00    +0.020 A 
ATOM     25  C   LIG    1        1.039   5.933   0.486  0.00  0.00    +0.150 A 
ATOM     26  O   LIG    1       -1.220   7.104  -0.335  0.00  0.00    -0.490 OA
ENDBRANCH  14  15
ENDBRANCH   3  14
TORSDOF 3
