REMARK  Name = ZINCpk00000FbMTV.0
REMARK                            x       y       z     vdW  Elec       q    Type
REMARK                         _______ _______ _______ _____ _____    ______ ____
ROOT
ATOM      1  C   LIG    1        7.089   4.569  -0.378  0.00  0.00    +0.290 C 
ATOM      2  C   LIG    1        5.731   3.981   0.013  0.00  0.00    +0.200 C 
ATOM      3  N   LIG    1        4.758   4.257  -1.054  0.00  0.00    -0.510 NA
ATOM      4  C   LIG    1        5.208   3.683  -2.331  0.00  0.00    +0.160 C 
ATOM      5  C   LIG    1        6.572   4.274  -2.698  0.00  0.00    +0.240 C 
ATOM      6  O   LIG    1        7.496   4.023  -1.636  0.00  0.00    -0.390 OA
ENDROOT
BRANCH   1  11
ATOM      7  C   LIG    1       11.210   2.853   1.988  0.00  0.00    +0.200 C 
ATOM      8  C   LIG    1        9.875   3.485   1.689  0.00  0.00    +0.180 A 
ATOM      9  N   LIG    1        9.069   4.037   2.555  0.00  0.00    -0.290 NA
ATOM     10  N   LIG    1        8.021   4.474   1.952  0.00  0.00    -0.280 NA
ATOM     11  C   LIG    1        8.110   4.221   0.675  0.00  0.00    +0.190 A 
ATOM     12  N   LIG    1        9.287   3.581   0.472  0.00  0.00    -0.560 N 
ATOM     13  H   LIG    1        9.638   3.260  -0.373  0.00  0.00    +0.430 HD
ENDBRANCH   1  11
BRANCH   3  14
ATOM     14  C   LIG    1        3.425   3.758  -0.693  0.00  0.00    +0.270 C 
BRANCH  14  15
ATOM     15  C   LIG    1        3.497   2.275  -0.434  0.00  0.00    +0.480 C 
ATOM     16  N   LIG    1        2.415   1.619   0.032  0.00  0.00    -0.550 N 
ATOM     17  C   LIG    1        1.202   2.355   0.412  0.00  0.00    +0.280 C 
ATOM     18  C   LIG    1        0.709   1.787   1.750  0.00  0.00    +0.020 C 
ATOM     19  C   LIG    1        0.326   0.320   1.552  0.00  0.00    +0.080 C 
ATOM     20  C   LIG    1        1.446  -0.433   0.885  0.00  0.00    -0.120 A 
ATOM     21  C   LIG    1        1.486  -1.812   0.997  0.00  0.00    +0.030 A 
ATOM     22  C   LIG    1        2.503  -2.531   0.398  0.00  0.00    -0.020 A 
ATOM     23  C   LIG    1        3.482  -1.878  -0.327  0.00  0.00    +0.020 A 
ATOM     24  C   LIG    1        3.447  -0.503  -0.447  0.00  0.00    +0.010 A 
ATOM     25  C   LIG    1        2.429   0.223   0.161  0.00  0.00    +0.150 A 
ATOM     26  O   LIG    1        4.527   1.672  -0.645  0.00  0.00    -0.510 OA
ENDBRANCH  14  15
ENDBRANCH   3  14
TORSDOF 3
