REMARK  Name = ZINCqH0000036TfN.0
REMARK                            x       y       z     vdW  Elec       q    Type
REMARK                         _______ _______ _______ _____ _____    ______ ____
ROOT
ATOM      1  C   LIG    1        1.252  -0.489   0.735  0.00  0.00    +0.020 C 
ATOM      2  C   LIG    1        0.003   0.001   0.001  0.00  0.00    +0.200 C 
ATOM      3  C   LIG    1        0.021  -0.518  -1.430  0.00  0.00    +0.290 C 
ATOM      4  N   LIG    1        1.212  -0.056  -2.144  0.00  0.00    -0.620 N 
ATOM      5  C   LIG    1        1.421   1.373  -2.399  0.00  0.00    +0.330 C 
ATOM      6  C   LIG    1        1.986   2.015  -1.145  0.00  0.00    -0.140 A 
ATOM      7  C   LIG    1        3.246   2.565  -1.139  0.00  0.00    +0.030 A 
ATOM      8  C   LIG    1        3.717   3.186   0.006  0.00  0.00    +0.000 A 
ATOM      9  C   LIG    1        2.917   3.254   1.132  0.00  0.00    +0.030 A 
ATOM     10  C   LIG    1        1.658   2.685   1.130  0.00  0.00    -0.010 A 
ATOM     11  C   LIG    1        1.190   2.040  -0.008  0.00  0.00    +0.120 A 
ATOM     12  C   LIG    1        2.124  -0.951  -2.572  0.00  0.00    +0.710 C 
ATOM     13  N   LIG    1        3.172  -0.542  -3.315  0.00  0.00    -0.730 N 
ATOM     14  H   LIG    1        3.311   0.404  -3.479  0.00  0.00    +0.390 HD
ATOM     15  O   LIG    1        2.002  -2.127  -2.288  0.00  0.00    -0.580 OA
ATOM     16  O   LIG    1       -0.020   1.433   0.004  0.00  0.00    -0.320 OA
ENDROOT
BRANCH  13  17
ATOM     17  C   LIG    1        4.102  -1.527  -3.874  0.00  0.00    +0.340 C 
BRANCH  17  18
ATOM     18  C   LIG    1        5.175  -0.816  -4.657  0.00  0.00    -0.090 A 
ATOM     19  C   LIG    1        5.098  -0.745  -6.014  0.00  0.00    +0.050 A 
ATOM     20  C   LIG    1        6.079  -0.092  -6.757  0.00  0.00    +0.010 A 
ATOM     21  C   LIG    1        7.145   0.494  -6.145  0.00  0.00    +0.040 A 
ATOM     22  C   LIG    1        7.258   0.440  -4.747  0.00  0.00    -0.110 A 
ATOM     23  C   LIG    1        8.344   1.033  -4.076  0.00  0.00    +0.080 A 
ATOM     24  C   LIG    1        8.380   0.953  -2.712  0.00  0.00    -0.030 A 
ATOM     25  C   LIG    1        7.366   0.287  -2.028  0.00  0.00    +0.300 A 
ATOM     26  N   LIG    1        6.359  -0.269  -2.656  0.00  0.00    -0.470 NA
ATOM     27  C   LIG    1        6.258  -0.219  -3.988  0.00  0.00    +0.140 A 
ENDBRANCH  17  18
ENDBRANCH  13  17
TORSDOF 2
