REMARK  Name = ZINCpe00000MBJtO.1
REMARK                            x       y       z     vdW  Elec       q    Type
REMARK                         _______ _______ _______ _____ _____    ______ ____
ROOT
ATOM      1  C   LIG    1        4.992   1.462   3.211  0.00  0.00    +0.520 C 
ATOM      2  N   LIG    1        4.328   0.803   2.241  0.00  0.00    -0.620 N 
ATOM      3  C   LIG    1        4.367  -0.666   2.160  0.00  0.00    +0.260 C 
ATOM      4  C   LIG    1        2.928  -1.182   2.050  0.00  0.00    +0.230 C 
ATOM      5  O   LIG    1        2.265  -0.505   0.980  0.00  0.00    -0.380 OA
ATOM      6  C   LIG    1        2.143   0.907   1.168  0.00  0.00    +0.140 C 
ATOM      7  C   LIG    1        3.542   1.531   1.233  0.00  0.00    +0.290 C 
ATOM      8  O   LIG    1        4.948   2.673   3.261  0.00  0.00    -0.520 OA
ENDROOT
BRANCH   1   9
ATOM      9  C   LIG    1        5.791   0.695   4.233  0.00  0.00    +0.110 C 
BRANCH   9  13
ATOM     10  C   LIG    1        7.607   3.430   6.969  0.00  0.00    +0.140 A 
ATOM     11  C   LIG    1        6.344   2.920   7.231  0.00  0.00    -0.020 A 
ATOM     12  C   LIG    1        5.759   2.036   6.346  0.00  0.00    +0.070 A 
ATOM     13  C   LIG    1        6.431   1.659   5.198  0.00  0.00    -0.110 A 
ATOM     14  C   LIG    1        7.693   2.161   4.936  0.00  0.00    +0.060 A 
ATOM     15  C   LIG    1        8.280   3.050   5.816  0.00  0.00    -0.080 A 
BRANCH  10  16
ATOM     16  O   LIG    1        8.184   4.299   7.839  0.00  0.00    -0.320 OA
BRANCH  16  18
ATOM     17  C   LIG    1        9.969   5.743   8.593  0.00  0.00    +0.070 C 
ATOM     18  C   LIG    1        9.486   4.784   7.504  0.00  0.00    +0.170 C 
ENDBRANCH  16  18
ENDBRANCH  10  16
ENDBRANCH   9  13
ENDBRANCH   1   9
BRANCH   6  19
ATOM     19  C   LIG    1        1.367   1.513  -0.003  0.00  0.00    +0.270 C 
BRANCH  19  20
ATOM     20  N   LIG    1       -0.012   1.005   0.008  0.00  0.00    -0.360 N 
ATOM     21  C   LIG    1       -0.699   1.479   1.216  0.00  0.00    +0.310 C 
ATOM     22  H   LIG    1        0.002  -0.004   0.002  0.00  0.00    +0.430 HD
BRANCH  20  23
ATOM     23  C   LIG    1       -0.722   1.492  -1.183  0.00  0.00    +0.160 C 
BRANCH  23  24
ATOM     24  C   LIG    1       -2.095   0.872  -1.236  0.00  0.00    +0.490 C 
ATOM     25  O   LIG    1       -2.852   1.146  -2.152  0.00  0.00    -0.640 OA
ATOM     26  O   LIG    1       -2.449   0.097  -0.364  0.00  0.00    -0.670 OA
ENDBRANCH  23  24
ENDBRANCH  20  23
ENDBRANCH  19  20
ENDBRANCH   6  19
TORSDOF 8
