REMARK  Name = ZINCpe00000MBJtO.0
REMARK                            x       y       z     vdW  Elec       q    Type
REMARK                         _______ _______ _______ _____ _____    ______ ____
ROOT
ATOM      1  C   LIG    1       -0.013   1.210  -0.041  0.00  0.00    +0.520 C 
ATOM      2  N   LIG    1       -1.161   1.915  -0.043  0.00  0.00    -0.620 N 
ATOM      3  C   LIG    1       -1.148   3.384  -0.124  0.00  0.00    +0.260 C 
ATOM      4  C   LIG    1       -2.104   3.815  -1.243  0.00  0.00    +0.240 C 
ATOM      5  O   LIG    1       -3.378   3.202  -1.035  0.00  0.00    -0.380 OA
ATOM      6  C   LIG    1       -3.357   1.774  -1.091  0.00  0.00    +0.140 C 
ATOM      7  C   LIG    1       -2.466   1.238   0.030  0.00  0.00    +0.280 C 
ATOM      8  O   LIG    1       -0.044  -0.000   0.026  0.00  0.00    -0.520 OA
ENDROOT
BRANCH   1   9
ATOM      9  C   LIG    1        1.311   1.926  -0.129  0.00  0.00    +0.110 C 
BRANCH   9  13
ATOM     10  C   LIG    1        4.483  -0.937  -0.090  0.00  0.00    +0.140 A 
ATOM     11  C   LIG    1        3.923  -0.537  -1.295  0.00  0.00    -0.020 A 
ATOM     12  C   LIG    1        2.898   0.389  -1.305  0.00  0.00    +0.070 A 
ATOM     13  C   LIG    1        2.430   0.916  -0.116  0.00  0.00    -0.110 A 
ATOM     14  C   LIG    1        2.990   0.524   1.086  0.00  0.00    +0.060 A 
ATOM     15  C   LIG    1        4.012  -0.406   1.102  0.00  0.00    -0.080 A 
BRANCH  10  16
ATOM     16  O   LIG    1        5.492  -1.847  -0.078  0.00  0.00    -0.320 OA
BRANCH  16  18
ATOM     17  C   LIG    1        7.140  -3.239   1.013  0.00  0.00    +0.070 C 
ATOM     18  C   LIG    1        6.021  -2.212   1.199  0.00  0.00    +0.170 C 
ENDBRANCH  16  18
ENDBRANCH  10  16
ENDBRANCH   9  13
ENDBRANCH   1   9
BRANCH   6  19
ATOM     19  C   LIG    1       -4.778   1.234  -0.919  0.00  0.00    +0.270 C 
BRANCH  19  20
ATOM     20  N   LIG    1       -5.601   1.649  -2.063  0.00  0.00    -0.360 N 
ATOM     21  C   LIG    1       -6.998   1.259  -1.828  0.00  0.00    +0.320 C 
ATOM     22  H   LIG    1       -5.545   2.650  -2.172  0.00  0.00    +0.430 HD
BRANCH  20  23
ATOM     23  C   LIG    1       -5.109   0.995  -3.283  0.00  0.00    +0.150 C 
BRANCH  23  24
ATOM     24  C   LIG    1       -5.873   1.513  -4.473  0.00  0.00    +0.490 C 
ATOM     25  O   LIG    1       -5.618   1.095  -5.590  0.00  0.00    -0.640 OA
ATOM     26  O   LIG    1       -6.747   2.349  -4.320  0.00  0.00    -0.670 OA
ENDBRANCH  23  24
ENDBRANCH  20  23
ENDBRANCH  19  20
ENDBRANCH   6  19
TORSDOF 8
