REMARK  Name = ZINCpk00000KfLH8.0
REMARK                            x       y       z     vdW  Elec       q    Type
REMARK                         _______ _______ _______ _____ _____    ______ ____
ROOT
ATOM      1  O   LIG    1        2.375  -1.929  -5.208  0.00  0.00    -0.530 OA
ATOM      2  C   LIG    1        1.628  -2.512  -4.446  0.00  0.00    +0.710 C 
ATOM      3  N   LIG    1        1.665  -3.835  -4.234  0.00  0.00    -0.680 N 
ATOM      4  H   LIG    1        2.287  -4.441  -4.667  0.00  0.00    +0.440 HD
ATOM      5  C   LIG    1        0.726  -4.220  -3.340  0.00  0.00    +0.550 C 
ATOM      6  C   LIG    1        0.016  -2.955  -2.952  0.00  0.00    +0.100 C 
ATOM      7  C   LIG    1       -1.492  -3.031  -3.237  0.00  0.00    +0.080 C 
ATOM      8  C   LIG    1       -2.083  -2.019  -2.229  0.00  0.00    +0.260 C 
ATOM      9  N   LIG    1       -1.089  -1.836  -1.159  0.00  0.00    -0.610 N 
ATOM     10  C   LIG    1       -1.221  -1.016  -0.097  0.00  0.00    +0.550 C 
ATOM     11  O   LIG    1       -0.375  -1.008   0.771  0.00  0.00    -0.520 OA
ATOM     12  C   LIG    1        0.076  -2.699  -1.440  0.00  0.00    +0.320 C 
ATOM     13  O   LIG    1        0.505  -5.343  -2.938  0.00  0.00    -0.450 OA
ATOM     14  N   LIG    1        0.669  -1.901  -3.719  0.00  0.00    -0.710 N 
ATOM     15  H   LIG    1        0.458  -0.955  -3.709  0.00  0.00    +0.440 HD
ENDROOT
BRANCH  10  16
ATOM     16  C   LIG    1       -2.420  -0.110   0.010  0.00  0.00    -0.040 C 
ATOM     17  C   LIG    1       -2.272   0.817   1.230  0.00  0.00    +0.050 C 
ATOM     18  C   LIG    1       -3.464   0.510   2.162  0.00  0.00    +0.020 C 
ATOM     19  C   LIG    1       -3.885  -0.930   1.780  0.00  0.00    +0.020 C 
ATOM     20  C   LIG    1       -3.696  -0.946   0.243  0.00  0.00    +0.050 C 
BRANCH  16  21
ATOM     21  C   LIG    1       -2.562   0.710  -1.246  0.00  0.00    -0.040 A 
ATOM     22  C   LIG    1       -1.607   1.656  -1.566  0.00  0.00    +0.010 A 
ATOM     23  C   LIG    1       -1.735   2.408  -2.719  0.00  0.00    +0.060 A 
ATOM     24  C   LIG    1       -2.819   2.214  -3.553  0.00  0.00    -0.010 A 
ATOM     25  C   LIG    1       -3.777   1.266  -3.235  0.00  0.00    +0.100 A 
ATOM     26  F   LIG    1       -4.837   1.076  -4.050  0.00  0.00    -0.140 F 
ATOM     27  C   LIG    1       -3.644   0.510  -2.083  0.00  0.00    -0.010 A 
ENDBRANCH  16  21
ENDBRANCH  10  16
TORSDOF 2
