REMARK  Name = ZINCqH0000004Mit.0
REMARK                            x       y       z     vdW  Elec       q    Type
REMARK                         _______ _______ _______ _____ _____    ______ ____
ROOT
ATOM      1  N   LIG    1       -1.638   2.483   1.399  0.00  0.00    -0.740 N 
ATOM      2  H   LIG    1       -1.066   2.200   2.130  0.00  0.00    +0.400 HD
ATOM      3  C   LIG    1       -2.750   3.202   1.654  0.00  0.00    +0.730 C 
ATOM      4  N   LIG    1       -3.066   3.527   2.923  0.00  0.00    -0.660 N 
ATOM      5  C   LIG    1       -2.483   3.289   4.254  0.00  0.00    +0.270 C 
ATOM      6  C   LIG    1       -3.167   4.578   4.717  0.00  0.00    -0.080 C 
ATOM      7  C   LIG    1       -3.773   4.494   6.115  0.00  0.00    +0.020 C 
ATOM      8  C   LIG    1       -2.659   4.686   7.151  0.00  0.00    +0.210 C 
ATOM      9  O   LIG    1       -1.978   5.915   6.888  0.00  0.00    -0.380 OA
ATOM     10  C   LIG    1       -1.308   5.960   5.627  0.00  0.00    +0.210 C 
ATOM     11  C   LIG    1       -2.342   5.844   4.500  0.00  0.00    +0.040 C 
ATOM     12  C   LIG    1       -4.150   4.269   3.587  0.00  0.00    +0.310 C 
ATOM     13  O   LIG    1       -3.467   3.557   0.739  0.00  0.00    -0.570 OA
ENDROOT
BRANCH  12  14
ATOM     14  C   LIG    1       -4.596   5.491   2.826  0.00  0.00    -0.090 A 
ATOM     15  C   LIG    1       -3.758   6.064   1.887  0.00  0.00    +0.040 A 
ATOM     16  C   LIG    1       -4.169   7.181   1.185  0.00  0.00    +0.000 A 
ATOM     17  C   LIG    1       -5.413   7.732   1.429  0.00  0.00    +0.010 A 
ATOM     18  C   LIG    1       -6.248   7.162   2.371  0.00  0.00    +0.000 A 
ATOM     19  C   LIG    1       -5.840   6.041   3.070  0.00  0.00    +0.010 A 
ENDBRANCH  12  14
BRANCH   1  20
ATOM     20  C   LIG    1       -1.294   2.130   0.020  0.00  0.00    +0.380 C 
BRANCH  20  23
ATOM     21  C   LIG    1        2.198   1.108  -0.013  0.00  0.00    +0.050 A 
ATOM     22  N   LIG    1        1.175   1.895   0.001  0.00  0.00    -0.460 NA
ATOM     23  C   LIG    1       -0.016   1.332   0.009  0.00  0.00    +0.050 A 
ATOM     24  C   LIG    1        0.002  -0.004   0.002  0.00  0.00    -0.060 A 
ATOM     25  S   LIG    1        1.686  -0.523  -0.017  0.00  0.00    +0.140 S 
BRANCH  21  27
ATOM     26  C   LIG    1        4.135   1.707   1.414  0.00  0.00    +0.040 C 
ATOM     27  C   LIG    1        3.635   1.561  -0.024  0.00  0.00    +0.140 C 
ENDBRANCH  21  27
ENDBRANCH  20  23
ENDBRANCH   1  20
TORSDOF 4
