REMARK  Name = ZINCvU0000000G4t.0
REMARK                            x       y       z     vdW  Elec       q    Type
REMARK                         _______ _______ _______ _____ _____    ______ ____
ROOT
ATOM      1  C   LIG    1       -1.434  -0.512   0.550  0.00  0.00    +0.110 C 
ENDROOT
BRANCH   1   2
ATOM      2  C   LIG    1       -1.426  -1.987   0.859  0.00  0.00    -0.160 A 
ATOM      3  C   LIG    1       -0.796  -2.945   0.161  0.00  0.00    +0.230 A 
ATOM      4  N   LIG    1       -1.015  -4.165   0.741  0.00  0.00    -0.590 N 
ATOM      5  H   LIG    1       -0.662  -5.008   0.416  0.00  0.00    +0.420 HD
ATOM      6  C   LIG    1       -1.810  -4.018   1.855  0.00  0.00    +0.100 A 
ATOM      7  C   LIG    1       -2.323  -4.910   2.790  0.00  0.00    -0.010 A 
ATOM      8  C   LIG    1       -3.109  -4.444   3.822  0.00  0.00    +0.030 A 
ATOM      9  C   LIG    1       -3.394  -3.091   3.938  0.00  0.00    -0.020 A 
ATOM     10  C   LIG    1       -2.901  -2.196   3.031  0.00  0.00    +0.050 A 
ATOM     11  C   LIG    1       -2.098  -2.646   1.981  0.00  0.00    -0.090 A 
ENDBRANCH   1   2
BRANCH   1  12
ATOM     12  C   LIG    1       -2.029  -0.288  -0.816  0.00  0.00    -0.060 A 
ATOM     13  C   LIG    1       -1.437  -0.853  -1.929  0.00  0.00    +0.030 A 
ATOM     14  C   LIG    1       -1.985  -0.652  -3.182  0.00  0.00    +0.020 A 
ATOM     15  C   LIG    1       -3.120   0.124  -3.324  0.00  0.00    +0.020 A 
ATOM     16  C   LIG    1       -3.711   0.695  -2.212  0.00  0.00    +0.020 A 
ATOM     17  C   LIG    1       -3.165   0.489  -0.957  0.00  0.00    -0.040 A 
ATOM     18 CL   LIG    1       -3.906   1.206   0.440  0.00  0.00    -0.070 Cl
ENDBRANCH   1  12
BRANCH   1  19
ATOM     19  C   LIG    1       -0.001   0.023   0.576  0.00  0.00    +0.280 C 
BRANCH  19  21
ATOM     20  C   LIG    1        1.138   2.168   0.384  0.00  0.00    +0.560 C 
ATOM     21  N   LIG    1       -0.018   1.477   0.395  0.00  0.00    -0.720 N 
ATOM     22  H   LIG    1       -0.862   1.941   0.279  0.00  0.00    +0.400 HD
ATOM     23  O   LIG    1        2.196   1.586   0.524  0.00  0.00    -0.530 OA
BRANCH  20  28
ATOM     24  C   LIG    1        2.291   5.729   0.016  0.00  0.00    +0.140 A 
ATOM     25  C   LIG    1        1.078   6.387  -0.145  0.00  0.00    +0.010 A 
ATOM     26  C   LIG    1       -0.107   5.676  -0.133  0.00  0.00    +0.040 A 
ATOM     27  C   LIG    1       -0.093   4.306   0.033  0.00  0.00    +0.030 A 
ATOM     28  C   LIG    1        1.121   3.635   0.200  0.00  0.00    -0.120 A 
ATOM     29  C   LIG    1        2.316   4.354   0.188  0.00  0.00    +0.090 A 
BRANCH  24  32
ATOM     30  C   LIG    1        5.921   6.632  -0.409  0.00  0.00    +0.110 C 
ATOM     31  C   LIG    1        4.607   5.899  -0.503  0.00  0.00    +0.510 C 
ATOM     32  N   LIG    1        3.488   6.454   0.003  0.00  0.00    -0.680 N 
ATOM     33  H   LIG    1        3.512   7.356   0.359  0.00  0.00    +0.410 HD
ATOM     34  O   LIG    1        4.557   4.810  -1.034  0.00  0.00    -0.520 OA
ENDBRANCH  24  32
ENDBRANCH  20  28
ENDBRANCH  19  21
ENDBRANCH   1  19
TORSDOF 6
