REMARK  Name = ZINCvU00000006c7.0
REMARK                            x       y       z     vdW  Elec       q    Type
REMARK                         _______ _______ _______ _____ _____    ______ ____
ROOT
ATOM      1  C   LIG    1        2.676   7.796  -0.601  0.00  0.00    +0.060 C 
ENDROOT
BRANCH   1   2
ATOM      2  C   LIG    1        3.496   7.858  -1.864  0.00  0.00    -0.100 A 
ATOM      3  C   LIG    1        2.871   8.018  -3.087  0.00  0.00    +0.030 A 
ATOM      4  C   LIG    1        3.623   8.080  -4.245  0.00  0.00    +0.010 A 
ATOM      5  C   LIG    1        5.000   7.972  -4.181  0.00  0.00    +0.020 A 
ATOM      6  C   LIG    1        5.624   7.806  -2.959  0.00  0.00    +0.010 A 
ATOM      7  C   LIG    1        4.872   7.749  -1.801  0.00  0.00    +0.060 A 
ENDBRANCH   1   2
BRANCH   1  10
ATOM      8  N   LIG    1        2.507  10.178   0.046  0.00  0.00    -0.660 N 
ATOM      9  H   LIG    1        3.461  10.166   0.225  0.00  0.00    +0.420 HD
ATOM     10  C   LIG    1        1.900   9.078  -0.443  0.00  0.00    +0.550 C 
ATOM     11  O   LIG    1        0.729   9.121  -0.755  0.00  0.00    -0.500 OA
BRANCH   8  16
ATOM     12  C   LIG    1       -0.509  14.875   1.054  0.00  0.00    +0.090 C 
ATOM     13  C   LIG    1        0.292  13.627   0.786  0.00  0.00    -0.100 A 
ATOM     14  C   LIG    1       -0.287  12.384   0.964  0.00  0.00    +0.030 A 
ATOM     15  C   LIG    1        0.445  11.239   0.720  0.00  0.00    +0.020 A 
ATOM     16  C   LIG    1        1.763  11.336   0.294  0.00  0.00    +0.140 A 
ATOM     17  C   LIG    1        2.343  12.586   0.121  0.00  0.00    -0.010 A 
ATOM     18  C   LIG    1        1.604  13.728   0.362  0.00  0.00    +0.030 A 
ENDBRANCH   8  16
ENDBRANCH   1  10
BRANCH   1  19
ATOM     19  S   LIG    1        1.525   6.402  -0.697  0.00  0.00    +0.130 S 
BRANCH  19  20
ATOM     20  C   LIG    1        2.669   5.062  -0.724  0.00  0.00    +0.200 A 
ATOM     21  N   LIG    1        3.981   5.152  -0.681  0.00  0.00    -0.320 NA
ATOM     22  N   LIG    1        4.513   3.984  -0.718  0.00  0.00    -0.030 NA
ATOM     23  N   LIG    1        3.603   3.074  -0.779  0.00  0.00    -0.060 NA
ATOM     24  N   LIG    1        2.363   3.737  -0.792  0.00  0.00    -0.310 N 
BRANCH  24  25
ATOM     25  C   LIG    1        1.087   3.158  -0.854  0.00  0.00    +0.110 A 
ATOM     26  C   LIG    1        0.157   3.623  -1.774  0.00  0.00    +0.040 A 
ATOM     27  C   LIG    1       -1.099   3.051  -1.833  0.00  0.00    -0.070 A 
ATOM     28  C   LIG    1       -1.428   2.013  -0.981  0.00  0.00    +0.050 A 
ATOM     29  C   LIG    1       -0.505   1.552  -0.060  0.00  0.00    +0.040 A 
ATOM     30  C   LIG    1       -2.109   3.555  -2.831  0.00  0.00    +0.100 C 
ATOM     31  C   LIG    1        0.752   2.119   0.004  0.00  0.00    -0.060 A 
ATOM     32  C   LIG    1        1.759   1.612   1.004  0.00  0.00    +0.100 C 
ENDBRANCH  24  25
ENDBRANCH  19  20
ENDBRANCH   1  19
TORSDOF 6
