REMARK  Name = ZINCrH000004t6BI.0
REMARK                            x       y       z     vdW  Elec       q    Type
REMARK                         _______ _______ _______ _____ _____    ______ ____
ROOT
ATOM      1  C   LIG    1        0.527   5.060   1.357  0.00  0.00    +0.560 C 
ATOM      2  N   LIG    1        1.760   5.584   1.203  0.00  0.00    -0.710 N 
ATOM      3  H   LIG    1        2.225   5.962   1.965  0.00  0.00    +0.410 HD
ATOM      4  O   LIG    1       -0.056   4.586   0.401  0.00  0.00    -0.540 OA
ENDROOT
BRANCH   1  11
ATOM      5  C   LIG    1       -1.849   5.370   7.654  0.00  0.00    +0.340 C 
ATOM      6  N   LIG    1       -2.131   4.941   6.282  0.00  0.00    -0.500 N 
ATOM      7  C   LIG    1       -3.267   4.332   5.846  0.00  0.00    +0.480 A 
ATOM      8  N   LIG    1       -3.184   4.089   4.571  0.00  0.00    -0.490 NA
ATOM      9  C   LIG    1       -1.986   4.527   4.102  0.00  0.00    +0.030 A 
ATOM     10  C   LIG    1       -1.388   4.521   2.843  0.00  0.00    +0.150 A 
ATOM     11  C   LIG    1       -0.115   5.062   2.687  0.00  0.00    -0.150 A 
ATOM     12  C   LIG    1        0.559   5.607   3.787  0.00  0.00    +0.060 A 
ATOM     13  C   LIG    1       -0.024   5.616   5.021  0.00  0.00    +0.020 A 
ATOM     14  C   LIG    1       -1.295   5.080   5.196  0.00  0.00    +0.070 A 
ENDBRANCH   1  11
BRANCH   2  15
ATOM     15  C   LIG    1        2.397   5.582  -0.116  0.00  0.00    +0.280 C 
BRANCH  15  16
ATOM     16  C   LIG    1        3.721   6.343  -0.044  0.00  0.00    +0.180 C 
BRANCH  16  17
ATOM     17  C   LIG    1        3.451   7.794   0.262  0.00  0.00    -0.070 A 
ATOM     18  C   LIG    1        3.595   8.267   1.553  0.00  0.00    +0.050 A 
ATOM     19  C   LIG    1        3.351   9.598   1.833  0.00  0.00    +0.010 A 
ATOM     20  C   LIG    1        2.953  10.456   0.824  0.00  0.00    +0.020 A 
ATOM     21  C   LIG    1        2.803   9.983  -0.466  0.00  0.00    +0.020 A 
ATOM     22  C   LIG    1        3.052   8.652  -0.748  0.00  0.00    -0.030 A 
ATOM     23 CL   LIG    1        2.865   8.058  -2.369  0.00  0.00    -0.070 Cl
ENDBRANCH  16  17
BRANCH  16  24
ATOM     24  N   LIG    1        4.560   5.768   1.016  0.00  0.00    -0.510 NA
ATOM     25  C   LIG    1        4.745   4.308   0.814  0.00  0.00    +0.170 C 
ATOM     26  C   LIG    1        6.014   3.993   1.645  0.00  0.00    +0.030 C 
ATOM     27  C   LIG    1        6.896   5.241   1.416  0.00  0.00    +0.010 C 
ATOM     28  C   LIG    1        5.918   6.353   0.993  0.00  0.00    +0.170 C 
ENDBRANCH  16  24
ENDBRANCH  15  16
ENDBRANCH   2  15
TORSDOF 5
