REMARK  Name = ZINCvU0000000Iyk.0
REMARK                            x       y       z     vdW  Elec       q    Type
REMARK                         _______ _______ _______ _____ _____    ______ ____
ROOT
ATOM      1  N   LIG    1        2.243  -7.067  -0.057  0.00  0.00    -0.610 N 
ATOM      2  C   LIG    1        1.163  -6.260  -0.042  0.00  0.00    +0.520 C 
ATOM      3  O   LIG    1        0.049  -6.739  -0.034  0.00  0.00    -0.510 OA
ATOM      4  C   LIG    1        3.589  -6.488  -0.067  0.00  0.00    +0.280 C 
ENDROOT
BRANCH   1   5
ATOM      5  C   LIG    1        2.070  -8.522  -0.063  0.00  0.00    +0.290 C 
BRANCH   5   6
ATOM      6  C   LIG    1        1.997  -9.020  -1.508  0.00  0.00    +0.070 C 
BRANCH   6  10
ATOM      7  C   LIG    1        1.500 -13.268  -1.527  0.00  0.00    +0.100 A 
ATOM      8  C   LIG    1        2.771 -12.716  -1.536  0.00  0.00    -0.030 A 
ATOM      9  C   LIG    1        2.928 -11.342  -1.535  0.00  0.00    +0.020 A 
ATOM     10  C   LIG    1        1.819 -10.517  -1.514  0.00  0.00    -0.080 A 
ATOM     11  C   LIG    1        0.548 -11.061  -1.505  0.00  0.00    -0.020 A 
ATOM     12  C   LIG    1        0.384 -12.437  -1.511  0.00  0.00    +0.100 A 
BRANCH   7  14
ATOM     13  C   LIG    1        2.534 -15.410  -1.549  0.00  0.00    +0.240 C 
ATOM     14  O   LIG    1        1.344 -14.619  -1.533  0.00  0.00    -0.310 OA
ENDBRANCH   7  14
BRANCH  12  15
ATOM     15  O   LIG    1       -0.866 -12.973  -1.502  0.00  0.00    -0.310 OA
ATOM     16  C   LIG    1       -1.964 -12.060  -1.485  0.00  0.00    +0.250 C 
ENDBRANCH  12  15
ENDBRANCH   6  10
ENDBRANCH   5   6
ENDBRANCH   1   5
BRANCH   2  17
ATOM     17  C   LIG    1        1.340  -4.764  -0.036  0.00  0.00    +0.220 C 
BRANCH  17  18
ATOM     18  O   LIG    1        0.058  -4.133  -0.021  0.00  0.00    -0.290 OA
BRANCH  18  19
ATOM     19  C   LIG    1        0.040  -2.774  -0.013  0.00  0.00    +0.140 A 
ATOM     20  C   LIG    1       -1.173  -2.098   0.002  0.00  0.00    +0.000 A 
ATOM     21  C   LIG    1       -1.195  -0.719   0.010  0.00  0.00    +0.080 A 
ATOM     22  C   LIG    1        0.002  -0.004   0.002  0.00  0.00    -0.090 A 
ATOM     23  C   LIG    1        1.218  -0.686  -0.019  0.00  0.00    +0.070 A 
ATOM     24  C   LIG    1        1.233  -2.065  -0.021  0.00  0.00    -0.080 A 
BRANCH  22  25
ATOM     25  C   LIG    1       -0.018   1.479   0.010  0.00  0.00    -0.020 A 
ATOM     26  C   LIG    1       -1.233   2.162   0.020  0.00  0.00    +0.020 A 
ATOM     27  C   LIG    1       -1.246   3.542   0.033  0.00  0.00    +0.050 A 
ATOM     28  C   LIG    1       -0.056   4.248   0.025  0.00  0.00    -0.100 A 
ATOM     29  C   LIG    1        1.153   3.575   0.010  0.00  0.00    +0.050 A 
ATOM     30  I   LIG    1       -0.084   6.343   0.036  0.00  0.00    -0.040 I 
ATOM     31  C   LIG    1        1.178   2.195   0.003  0.00  0.00    +0.020 A 
ENDBRANCH  22  25
ENDBRANCH  18  19
ENDBRANCH  17  18
ENDBRANCH   2  17
TORSDOF 9
