REMARK  Name = ZINCrD00000dTsif.0
REMARK                            x       y       z     vdW  Elec       q    Type
REMARK                         _______ _______ _______ _____ _____    ______ ____
ROOT
ATOM      1  N   LIG    1        2.433   1.144  -0.009  0.00  0.00    -0.470 N 
ATOM      2  C   LIG    1        1.177   1.673  -0.000  0.00  0.00    +0.460 A 
ATOM      3  N   LIG    1        1.305   2.983   0.006  0.00  0.00    -0.310 NA
ATOM      4  N   LIG    1        2.549   3.304  -0.004  0.00  0.00    -0.230 NA
ATOM      5  C   LIG    1        3.291   2.220  -0.017  0.00  0.00    +0.200 A 
ENDROOT
BRANCH   5   6
ATOM      6  C   LIG    1        4.766   2.166  -0.031  0.00  0.00    +0.260 A 
ATOM      7  C   LIG    1        5.522   3.345  -0.032  0.00  0.00    -0.020 A 
ATOM      8  C   LIG    1        6.901   3.238  -0.045  0.00  0.00    +0.190 A 
ATOM      9  N   LIG    1        7.456   2.036  -0.056  0.00  0.00    -0.520 NA
ATOM     10  C   LIG    1        6.718   0.944  -0.055  0.00  0.00    +0.510 A 
ATOM     11  N   LIG    1        5.402   0.994  -0.038  0.00  0.00    -0.520 NA
BRANCH   8  12
ATOM     12  C   LIG    1        7.760   4.476  -0.047  0.00  0.00    +0.050 C 
ATOM     13  C   LIG    1        7.089   5.565   0.792  0.00  0.00    +0.050 C 
ATOM     14  C   LIG    1        7.935   4.973  -1.483  0.00  0.00    +0.050 C 
ENDBRANCH   8  12
ENDBRANCH   5   6
BRANCH   1  16
ATOM     15  C   LIG    1        2.911  -0.768  -1.458  0.00  0.00    +0.050 C 
ATOM     16  C   LIG    1        2.794  -0.276  -0.014  0.00  0.00    +0.310 C 
ENDBRANCH   1  16
BRANCH   2  17
ATOM     17  N   LIG    1       -0.011   0.966   0.007  0.00  0.00    -0.600 N 
ATOM     18  H   LIG    1        0.002  -0.004   0.002  0.00  0.00    +0.420 HD
BRANCH  17  19
ATOM     19  C   LIG    1       -1.233   1.649   0.017  0.00  0.00    +0.330 A 
ATOM     20  N   LIG    1       -2.425   1.099   0.020  0.00  0.00    -0.320 NA
ATOM     21  N   LIG    1       -3.379   2.124   0.031  0.00  0.00    -0.350 N 
ATOM     22  C   LIG    1       -2.725   3.305   0.034  0.00  0.00    +0.260 A 
ATOM     23  C   LIG    1       -1.398   3.044   0.031  0.00  0.00    -0.080 A 
BRANCH  21  24
ATOM     24  C   LIG    1       -4.833   1.946   0.037  0.00  0.00    +0.260 C 
ATOM     25  C   LIG    1       -5.542   1.970   1.393  0.00  0.00    +0.100 C 
ATOM     26  C   LIG    1       -5.691   3.150   0.430  0.00  0.00    +0.210 C 
ATOM     27  F   LIG    1       -6.922   3.305  -0.216  0.00  0.00    -0.140 F 
ATOM     28  F   LIG    1       -5.027   4.337   0.757  0.00  0.00    -0.150 F 
ENDBRANCH  21  24
ENDBRANCH  17  19
ENDBRANCH   2  17
TORSDOF 6
