REMARK  Name = ZINCkj000005jls4.0
REMARK                            x       y       z     vdW  Elec       q    Type
REMARK                         _______ _______ _______ _____ _____    ______ ____
ROOT
ATOM      1  C   LIG    1       -1.506   1.072   2.659  0.00  0.00    +0.170 C 
ATOM      2  C   LIG    1       -1.533  -0.459   2.660  0.00  0.00    +0.040 C 
ATOM      3  C   LIG    1       -0.307  -0.987   3.411  0.00  0.00    +0.290 C 
ATOM      4  N   LIG    1       -0.276  -0.382   4.750  0.00  0.00    -0.620 N 
ATOM      5  C   LIG    1       -0.337   1.081   4.866  0.00  0.00    +0.320 C 
ATOM      6  C   LIG    1       -0.194  -1.155   5.851  0.00  0.00    +0.600 C 
ATOM      7  O   LIG    1       -0.167  -0.643   6.954  0.00  0.00    -0.510 OA
ATOM      8  C   LIG    1       -1.563   1.586   4.099  0.00  0.00    +0.030 C 
ENDROOT
BRANCH   1  12
ATOM      9  C   LIG    1       -5.103   1.088   0.380  0.00  0.00    +0.030 C 
ATOM     10  C   LIG    1       -3.814   1.620  -0.250  0.00  0.00    +0.220 C 
ATOM     11  C   LIG    1       -2.608   1.087   0.528  0.00  0.00    +0.240 C 
ATOM     12  N   LIG    1       -2.663   1.581   1.911  0.00  0.00    -0.380 N 
ATOM     13  C   LIG    1       -2.635   3.050   1.906  0.00  0.00    +0.230 C 
ATOM     14  C   LIG    1       -3.841   3.579   1.126  0.00  0.00    +0.250 C 
ATOM     15  H   LIG    1       -3.514   1.262   2.349  0.00  0.00    +0.420 HD
ATOM     16  O   LIG    1       -3.813   3.049  -0.202  0.00  0.00    -0.350 OA
ENDBRANCH   1  12
BRANCH   6  17
ATOM     17  C   LIG    1       -0.137  -2.615   5.719  0.00  0.00    -0.070 A 
ATOM     18  C   LIG    1       -0.595  -3.535   6.639  0.00  0.00    +0.060 A 
ATOM     19  C   LIG    1       -0.345  -4.805   6.109  0.00  0.00    -0.050 A 
ATOM     20  C   LIG    1        0.255  -4.642   4.906  0.00  0.00    +0.210 A 
ATOM     21  N   LIG    1        0.388  -3.317   4.658  0.00  0.00    -0.550 N 
ATOM     22  H   LIG    1        0.786  -2.927   3.864  0.00  0.00    +0.420 HD
ENDBRANCH   6  17
TORSDOF 2
