REMARK  Name = ZINCkj000005jls4.1
REMARK                            x       y       z     vdW  Elec       q    Type
REMARK                         _______ _______ _______ _____ _____    ______ ____
ROOT
ATOM      1  C   LIG    1        0.456   2.510   2.075  0.00  0.00    +0.170 C 
ATOM      2  C   LIG    1       -0.245   3.050   3.323  0.00  0.00    +0.040 C 
ATOM      3  C   LIG    1       -0.018   2.084   4.490  0.00  0.00    +0.290 C 
ATOM      4  N   LIG    1        1.426   1.872   4.654  0.00  0.00    -0.620 N 
ATOM      5  C   LIG    1        2.213   1.440   3.491  0.00  0.00    +0.320 C 
ATOM      6  C   LIG    1        2.018   2.071   5.848  0.00  0.00    +0.600 C 
ATOM      7  O   LIG    1        3.216   1.889   5.971  0.00  0.00    -0.510 OA
ATOM      8  C   LIG    1        1.961   2.413   2.335  0.00  0.00    +0.030 C 
ENDROOT
BRANCH   1  12
ATOM      9  C   LIG    1        1.279   3.278  -2.693  0.00  0.00    +0.110 C 
ATOM     10  C   LIG    1        0.630   3.846  -1.429  0.00  0.00    +0.160 C 
ATOM     11  C   LIG    1        0.885   2.899  -0.254  0.00  0.00    +0.230 C 
ATOM     12  N   LIG    1        0.212   3.418   0.946  0.00  0.00    -0.380 N 
ATOM     13  C   LIG    1       -1.233   3.511   0.694  0.00  0.00    +0.230 C 
ATOM     14  C   LIG    1       -1.483   4.457  -0.483  0.00  0.00    +0.260 C 
ATOM     15  H   LIG    1        0.575   4.333   1.165  0.00  0.00    +0.420 HD
ATOM     16  O   LIG    1       -0.780   3.977  -1.632  0.00  0.00    -0.350 OA
ENDBRANCH   1  12
BRANCH   6  17
ATOM     17  C   LIG    1        1.220   2.505   6.999  0.00  0.00    -0.070 A 
ATOM     18  C   LIG    1        1.667   3.260   8.063  0.00  0.00    +0.060 A 
ATOM     19  C   LIG    1        0.580   3.443   8.923  0.00  0.00    -0.050 A 
ATOM     20  C   LIG    1       -0.486   2.803   8.386  0.00  0.00    +0.210 A 
ATOM     21  N   LIG    1       -0.111   2.229   7.217  0.00  0.00    -0.550 N 
ATOM     22  H   LIG    1       -0.684   1.710   6.632  0.00  0.00    +0.420 HD
ENDBRANCH   6  17
TORSDOF 2
