REMARK  Name = ZINC9u0000000C7m.0
REMARK                            x       y       z     vdW  Elec       q    Type
REMARK                         _______ _______ _______ _____ _____    ______ ____
ROOT
ATOM      1  C   LIG    1       -0.018   1.496   0.010  0.00  0.00    -0.130 C 
ATOM      2  C   LIG    1        1.044   2.236   0.004  0.00  0.00    -0.020 C 
ATOM      3  C   LIG    1        2.444   1.697  -0.022  0.00  0.00    +0.070 C 
ATOM      4  C   LIG    1        2.448   0.221   0.383  0.00  0.00    +0.020 C 
ATOM      5  C   LIG    1        1.378  -0.510  -0.437  0.00  0.00    +0.010 C 
ATOM      6  C   LIG    1        0.002  -0.004   0.002  0.00  0.00    +0.070 C 
ENDROOT
BRANCH   1   7
ATOM      7  C   LIG    1       -1.359   2.185   0.020  0.00  0.00    +0.240 C 
BRANCH   7   9
ATOM      8  N   LIG    1       -2.241   2.405  -2.424  0.00  0.00    -0.430 NA
ATOM      9  C   LIG    1       -1.857   2.309  -1.359  0.00  0.00    +0.210 C 
ENDBRANCH   7   9
ENDBRANCH   1   7
TORSDOF 2
