REMARK  Name = ZINCrH000004pVuz.0
REMARK                            x       y       z     vdW  Elec       q    Type
REMARK                         _______ _______ _______ _____ _____    ______ ____
ROOT
ATOM      1  C   LIG    1        2.460   4.521  -0.464  0.00  0.00    +0.540 C 
ATOM      2  N   LIG    1        1.348   3.762  -0.515  0.00  0.00    -0.660 N 
ATOM      3  H   LIG    1        0.476   4.169  -0.392  0.00  0.00    +0.430 HD
ATOM      4  O   LIG    1        3.541   4.032  -0.717  0.00  0.00    -0.490 OA
ENDROOT
BRANCH   1  15
ATOM      5  C   LIG    1        4.483   5.817   1.231  0.00  0.00    +0.100 C 
ATOM      6  C   LIG    1        3.005   6.207   1.282  0.00  0.00    +0.160 C 
ATOM      7  O   LIG    1        2.882   7.595   1.610  0.00  0.00    -0.290 OA
ATOM      8  C   LIG    1        1.664   8.166   1.407  0.00  0.00    +0.050 A 
ATOM      9  C   LIG    1        1.368   9.376   2.018  0.00  0.00    +0.030 A 
ATOM     10  C   LIG    1        0.136   9.969   1.819  0.00  0.00    +0.030 A 
ATOM     11  C   LIG    1       -0.805   9.360   1.009  0.00  0.00    +0.030 A 
ATOM     12  C   LIG    1       -0.517   8.155   0.397  0.00  0.00    +0.030 A 
ATOM     13  C   LIG    1        0.717   7.553   0.595  0.00  0.00    +0.050 A 
ATOM     14  O   LIG    1        0.984   6.364  -0.011  0.00  0.00    -0.310 OA
ATOM     15  C   LIG    1        2.361   5.978  -0.092  0.00  0.00    +0.170 C 
ENDBRANCH   1  15
BRANCH   2  16
ATOM     16  C   LIG    1        1.451   2.384  -0.748  0.00  0.00    +0.200 A 
ATOM     17  C   LIG    1        0.467   1.727  -1.475  0.00  0.00    -0.030 A 
ATOM     18  C   LIG    1        0.567   0.367  -1.704  0.00  0.00    +0.120 A 
ATOM     19  C   LIG    1        1.654  -0.342  -1.208  0.00  0.00    -0.000 A 
ATOM     20  C   LIG    1        2.639   0.316  -0.481  0.00  0.00    +0.180 A 
ATOM     21  F   LIG    1        3.696  -0.373   0.003  0.00  0.00    -0.110 F 
ATOM     22  F   LIG    1       -0.390  -0.271  -2.412  0.00  0.00    -0.120 F 
ATOM     23  C   LIG    1        2.537   1.675  -0.252  0.00  0.00    +0.000 A 
BRANCH  19  24
ATOM     24  N   LIG    1        1.757  -1.721  -1.440  0.00  0.00    -0.470 N 
ATOM     25  C   LIG    1        0.542  -2.433  -0.967  0.00  0.00    +0.180 C 
ATOM     26  C   LIG    1        0.587  -3.770  -1.748  0.00  0.00    +0.040 C 
ATOM     27  C   LIG    1        1.125  -3.343  -3.133  0.00  0.00    +0.020 C 
ATOM     28  C   LIG    1        1.855  -2.009  -2.888  0.00  0.00    +0.180 C 
ENDBRANCH  19  24
ENDBRANCH   2  16
TORSDOF 3
