REMARK  Name = ZINCpe00000xW8Z9.0
REMARK                            x       y       z     vdW  Elec       q    Type
REMARK                         _______ _______ _______ _____ _____    ______ ____
ROOT
ATOM      1  C   LIG    1        0.292 -10.386  -5.215  0.00  0.00    +0.210 C 
ATOM      2  C   LIG    1        1.793 -10.520  -5.504  0.00  0.00    +0.010 C 
ATOM      3  C   LIG    1        2.031 -11.737  -6.403  0.00  0.00    +0.000 C 
ATOM      4  C   LIG    1        1.648 -11.397  -7.839  0.00  0.00    +0.000 C 
ATOM      5  C   LIG    1        2.195 -10.007  -8.190  0.00  0.00    +0.020 C 
ATOM      6  C   LIG    1        1.007  -9.060  -8.418  0.00  0.00    +0.280 C 
ATOM      7  N   LIG    1        0.366  -8.831  -7.114  0.00  0.00    -0.590 N 
ATOM      8  C   LIG    1        0.493  -7.639  -6.497  0.00  0.00    +0.570 C 
ATOM      9  O   LIG    1       -0.062  -7.444  -5.436  0.00  0.00    -0.530 OA
ATOM     10  C   LIG    1       -0.412  -9.904  -6.490  0.00  0.00    +0.290 C 
ENDROOT
BRANCH   1  12
ATOM     11  C   LIG    1        0.650  -9.611  -2.933  0.00  0.00    +0.510 C 
ATOM     12  N   LIG    1        0.082  -9.414  -4.140  0.00  0.00    -0.720 N 
ATOM     13  H   LIG    1       -0.465  -8.629  -4.295  0.00  0.00    +0.410 HD
ATOM     14  O   LIG    1        1.335 -10.593  -2.739  0.00  0.00    -0.550 OA
BRANCH  11  15
ATOM     15  C   LIG    1        0.434  -8.612  -1.827  0.00  0.00    +0.040 C 
BRANCH  15  16
ATOM     16  C   LIG    1        1.183  -9.069  -0.573  0.00  0.00    +0.040 C 
BRANCH  16  17
ATOM     17  C   LIG    1        0.964  -8.054   0.551  0.00  0.00    +0.030 C 
BRANCH  17  19
ATOM     18  C   LIG    1        1.645  -7.674   3.042  0.00  0.00    +0.040 C 
ATOM     19  C   LIG    1        1.700  -8.505   1.786  0.00  0.00    +0.350 C 
ATOM     20  O   LIG    1        2.335  -9.532   1.769  0.00  0.00    -0.450 OA
ENDBRANCH  17  19
ENDBRANCH  16  17
ENDBRANCH  15  16
ENDBRANCH  11  15
ENDBRANCH   1  12
BRANCH   8  21
ATOM     21  C   LIG    1        1.324  -6.550  -7.124  0.00  0.00    -0.190 C 
ATOM     22  C   LIG    1        0.747  -5.133  -7.126  0.00  0.00    +0.090 C 
ATOM     23  C   LIG    1        0.813  -5.934  -8.428  0.00  0.00    +0.080 C 
BRANCH  21  24
ATOM     24  C   LIG    1        2.815  -6.694  -6.960  0.00  0.00    +0.560 C 
ATOM     25  O   LIG    1        3.440  -7.418  -7.705  0.00  0.00    -0.520 OA
ATOM     26  N   LIG    1        3.454  -6.019  -5.984  0.00  0.00    -0.840 N 
ATOM     27  H   LIG    1        4.421  -6.058  -5.920  0.00  0.00    +0.410 HD
ATOM     28  H   LIG    1        2.946  -5.494  -5.345  0.00  0.00    +0.410 HD
ENDBRANCH  21  24
ENDBRANCH   8  21
TORSDOF 7
