REMARK  Name = ZINCqH0000005sx9.0
REMARK                            x       y       z     vdW  Elec       q    Type
REMARK                         _______ _______ _______ _____ _____    ______ ____
ROOT
ATOM      1  N   LIG    1        4.888   0.111  -0.144  0.00  0.00    -0.660 N 
ATOM      2  H   LIG    1        4.849   1.066   0.020  0.00  0.00    +0.410 HD
ATOM      3  C   LIG    1        3.749  -0.601  -0.255  0.00  0.00    +0.560 C 
ATOM      4  O   LIG    1        3.796  -1.809  -0.378  0.00  0.00    -0.490 OA
ENDROOT
BRANCH   3   5
ATOM      5  C   LIG    1        2.441   0.089  -0.229  0.00  0.00    -0.070 A 
ATOM      6  C   LIG    1        2.353   1.451   0.030  0.00  0.00    +0.010 A 
ATOM      7  C   LIG    1        1.104   2.068   0.047  0.00  0.00    +0.180 A 
ATOM      8  N   LIG    1       -0.001   1.401  -0.174  0.00  0.00    -0.440 NA
ATOM      9  C   LIG    1        0.007   0.089  -0.429  0.00  0.00    +0.130 A 
ATOM     10  C   LIG    1       -1.190  -0.610  -0.665  0.00  0.00    +0.040 A 
ATOM     11  C   LIG    1       -1.153  -1.946  -0.923  0.00  0.00    +0.040 A 
ATOM     12  C   LIG    1        0.056  -2.637  -0.958  0.00  0.00    +0.020 A 
ATOM     13  C   LIG    1        1.236  -1.993  -0.735  0.00  0.00    +0.060 A 
ATOM     14  C   LIG    1        1.234  -0.618  -0.467  0.00  0.00    -0.070 A 
BRANCH   7  15
ATOM     15  C   LIG    1        1.023   3.546   0.328  0.00  0.00    +0.020 C 
ATOM     16  C   LIG    1        2.250   4.216   0.948  0.00  0.00    +0.040 C 
ATOM     17  C   LIG    1        0.995   3.986   1.793  0.00  0.00    +0.050 C 
ENDBRANCH   7  15
ENDBRANCH   3   5
BRANCH   1  22
ATOM     18  C   LIG    1        7.530  -2.447   0.105  0.00  0.00    -0.120 A 
ATOM     19  C   LIG    1        8.591  -1.783  -0.512  0.00  0.00    +0.030 A 
ATOM     20  C   LIG    1        8.414  -0.503  -0.999  0.00  0.00    +0.030 A 
ATOM     21  C   LIG    1        7.188   0.122  -0.882  0.00  0.00    +0.020 A 
ATOM     22  C   LIG    1        6.126  -0.529  -0.264  0.00  0.00    +0.130 A 
ATOM     23  C   LIG    1        6.293  -1.814   0.228  0.00  0.00    +0.090 A 
BRANCH  18  27
ATOM     24  C   LIG    1        9.097  -5.786   1.026  0.00  0.00    +0.290 C 
ATOM     25  N   LIG    1        8.912  -4.428   0.508  0.00  0.00    -0.730 N 
ATOM     26  H   LIG    1        9.650  -3.968   0.079  0.00  0.00    +0.400 HD
ATOM     27  C   LIG    1        7.716  -3.818   0.628  0.00  0.00    +0.560 C 
ATOM     28  O   LIG    1        6.791  -4.395   1.165  0.00  0.00    -0.530 OA
ENDBRANCH  18  27
ENDBRANCH   1  22
TORSDOF 4
