REMARK  Name = ZINCvU0000000A11.0
REMARK                            x       y       z     vdW  Elec       q    Type
REMARK                         _______ _______ _______ _____ _____    ______ ____
ROOT
ATOM      1  C   LIG    1        7.190   2.173  -0.476  0.00  0.00    +0.520 C 
ATOM      2  O   LIG    1        7.364   0.971  -0.490  0.00  0.00    -0.490 OA
ENDROOT
BRANCH   1   3
ATOM      3  C   LIG    1        8.345   3.088  -0.584  0.00  0.00    -0.070 A 
ATOM      4  C   LIG    1        8.192   4.462  -0.465  0.00  0.00    +0.080 A 
ATOM      5  C   LIG    1        9.318   5.292  -0.570  0.00  0.00    +0.190 A 
ATOM      6  N   LIG    1       10.525   4.816  -0.789  0.00  0.00    -0.430 NA
ATOM      7  C   LIG    1       10.764   3.511  -0.922  0.00  0.00    +0.130 A 
ATOM      8  C   LIG    1       12.066   3.031  -1.155  0.00  0.00    +0.060 A 
ATOM      9  C   LIG    1       12.278   1.693  -1.286  0.00  0.00    +0.040 A 
ATOM     10  C   LIG    1       11.226   0.785  -1.193  0.00  0.00    +0.030 A 
ATOM     11  C   LIG    1        9.951   1.213  -0.967  0.00  0.00    +0.050 A 
ATOM     12  C   LIG    1        9.697   2.582  -0.828  0.00  0.00    -0.050 A 
BRANCH   5  13
ATOM     13  C   LIG    1        9.141   6.759  -0.434  0.00  0.00    -0.010 A 
ATOM     14  C   LIG    1        7.878   7.312  -0.206  0.00  0.00    -0.010 A 
ATOM     15  C   LIG    1        7.759   8.681  -0.081  0.00  0.00    +0.260 A 
ATOM     16  N   LIG    1        8.815   9.465  -0.184  0.00  0.00    -0.480 NA
ATOM     17  C   LIG    1       10.023   8.984  -0.403  0.00  0.00    +0.260 A 
ATOM     18  C   LIG    1       10.233   7.626  -0.536  0.00  0.00    +0.020 A 
ENDBRANCH   5  13
ENDBRANCH   1   3
BRANCH   1  19
ATOM     19  O   LIG    1        5.944   2.672  -0.361  0.00  0.00    -0.320 OA
BRANCH  19  20
ATOM     20  C   LIG    1        4.857   1.715  -0.260  0.00  0.00    +0.270 C 
BRANCH  20  23
ATOM     21  N   LIG    1        2.394   1.763  -0.032  0.00  0.00    -0.660 N 
ATOM     22  H   LIG    1        2.412   0.797   0.050  0.00  0.00    +0.420 HD
ATOM     23  C   LIG    1        3.548   2.452  -0.140  0.00  0.00    +0.520 C 
ATOM     24  O   LIG    1        3.533   3.665  -0.140  0.00  0.00    -0.490 OA
BRANCH  21  29
ATOM     25  C   LIG    1       -2.566   4.518  -0.056  0.00  0.00    +0.090 C 
ATOM     26  C   LIG    1       -1.249   3.786  -0.049  0.00  0.00    -0.090 A 
ATOM     27  C   LIG    1       -0.141   4.355  -0.649  0.00  0.00    +0.050 A 
ATOM     28  C   LIG    1        1.068   3.687  -0.645  0.00  0.00    +0.050 A 
ATOM     29  C   LIG    1        1.171   2.443  -0.037  0.00  0.00    +0.150 A 
ATOM     30  C   LIG    1        0.055   1.874   0.566  0.00  0.00    -0.060 A 
ATOM     31 CL   LIG    1        0.177   0.318   1.327  0.00  0.00    -0.060 Cl
ATOM     32  C   LIG    1       -1.153   2.545   0.553  0.00  0.00    +0.050 A 
ENDBRANCH  21  29
ENDBRANCH  20  23
ENDBRANCH  19  20
ENDBRANCH   1  19
TORSDOF 6
