REMARK  Name = ZINCrg00000a92Kx.0
REMARK                            x       y       z     vdW  Elec       q    Type
REMARK                         _______ _______ _______ _____ _____    ______ ____
ROOT
ATOM      1  C   LIG    1        1.179  -1.907  -0.073  0.00  0.00    +0.610 C 
ATOM      2  N   LIG    1       -0.033  -2.496  -0.043  0.00  0.00    -0.630 N 
ATOM      3  C   LIG    1       -1.431  -2.042  -0.071  0.00  0.00    +0.260 C 
ATOM      4  C   LIG    1       -1.805  -3.312   0.700  0.00  0.00    +0.080 C 
ATOM      5  C   LIG    1       -0.539  -3.874   0.039  0.00  0.00    +0.320 C 
ATOM      6  O   LIG    1        2.185  -2.589  -0.115  0.00  0.00    -0.540 OA
ENDROOT
BRANCH   1  11
ATOM      7  C   LIG    1        0.432   1.719  -0.687  0.00  0.00    -0.150 A 
ATOM      8  C   LIG    1        1.483   2.331  -0.022  0.00  0.00    +0.090 A 
ATOM      9  C   LIG    1        2.437   1.573   0.626  0.00  0.00    -0.080 A 
ATOM     10  C   LIG    1        2.348   0.187   0.617  0.00  0.00    +0.270 A 
ATOM     11  C   LIG    1        1.285  -0.437  -0.056  0.00  0.00    -0.220 A 
ATOM     12  C   LIG    1        0.328   0.345  -0.707  0.00  0.00    +0.090 A 
BRANCH  10  13
ATOM     13  N   LIG    1        3.306  -0.578   1.269  0.00  0.00    -0.860 N 
ATOM     14  H   LIG    1        4.000  -0.145   1.791  0.00  0.00    +0.400 HD
ATOM     15  H   LIG    1        3.283  -1.546   1.202  0.00  0.00    +0.410 HD
ENDBRANCH  10  13
BRANCH   7  16
ATOM     16  C   LIG    1       -0.598   2.559  -1.396  0.00  0.00    +0.070 C 
BRANCH  16  18
ATOM     17  C   LIG    1       -2.786   3.740  -1.152  0.00  0.00    +0.000 C 
ATOM     18  C   LIG    1       -1.740   2.886  -0.432  0.00  0.00    +0.000 C 
ENDBRANCH  16  18
ENDBRANCH   7  16
ENDBRANCH   1  11
BRANCH   4  19
ATOM     19  O   LIG    1       -1.716  -3.183   2.121  0.00  0.00    -0.520 OA
ATOM     20  H   LIG    1       -2.516  -2.829   2.534  0.00  0.00    +0.380 HD
ENDBRANCH   4  19
BRANCH   4  21
ATOM     21  C   LIG    1       -3.103  -3.974   0.233  0.00  0.00    +0.280 C 
BRANCH  21  22
ATOM     22  N   LIG    1       -4.247  -3.284   0.834  0.00  0.00    -0.720 N 
ATOM     23  H   LIG    1       -4.102  -2.531   1.427  0.00  0.00    +0.400 HD
ATOM     24  C   LIG    1       -5.501  -3.697   0.564  0.00  0.00    +0.510 C 
ATOM     25  O   LIG    1       -5.683  -4.640  -0.178  0.00  0.00    -0.530 OA
BRANCH  24  26
ATOM     26  C   LIG    1       -6.678  -2.987   1.182  0.00  0.00    +0.090 C 
ATOM     27  C   LIG    1       -7.926  -3.175   0.298  0.00  0.00    +0.050 C 
ATOM     28  C   LIG    1       -8.293  -1.739  -0.150  0.00  0.00    +0.010 C 
ATOM     29  C   LIG    1       -6.955  -0.983   0.055  0.00  0.00    +0.200 C 
ATOM     30  C   LIG    1       -6.943  -3.544   2.582  0.00  0.00    +0.090 C 
ATOM     31  O   LIG    1       -6.413  -1.577   1.259  0.00  0.00    -0.360 OA
ENDBRANCH  24  26
ENDBRANCH  21  22
ENDBRANCH   4  21
TORSDOF 8
