REMARK  Name = ZINCrH000004u8iJ.0
REMARK                            x       y       z     vdW  Elec       q    Type
REMARK                         _______ _______ _______ _____ _____    ______ ____
ROOT
ATOM      1  C   LIG    1        0.647   0.310  -0.883  0.00  0.00    -0.150 A 
ATOM      2  C   LIG    1        1.749   0.427  -1.734  0.00  0.00    +0.110 A 
ATOM      3  C   LIG    1        2.595   1.507  -1.619  0.00  0.00    -0.010 A 
ATOM      4  C   LIG    1        2.356   2.479  -0.653  0.00  0.00    +0.180 A 
ATOM      5  C   LIG    1        1.263   2.364   0.200  0.00  0.00    +0.020 A 
ATOM      6  C   LIG    1        0.413   1.286   0.090  0.00  0.00    +0.070 A 
ENDROOT
BRANCH   1   8
ATOM      7  O   LIG    1       -0.058  -1.694  -1.851  0.00  0.00    -0.530 OA
ATOM      8  C   LIG    1       -0.265  -0.844  -1.007  0.00  0.00    +0.570 C 
ATOM      9  N   LIG    1       -1.327  -0.955  -0.186  0.00  0.00    -0.730 N 
ATOM     10  H   LIG    1       -1.493  -0.276   0.488  0.00  0.00    +0.410 HD
BRANCH   9  11
ATOM     11  C   LIG    1       -2.232  -2.100  -0.309  0.00  0.00    +0.320 C 
BRANCH  11  12
ATOM     12  C   LIG    1       -3.346  -1.985   0.734  0.00  0.00    +0.450 C 
ATOM     13  F   LIG    1       -2.785  -1.970   2.015  0.00  0.00    -0.180 F 
ATOM     14  F   LIG    1       -4.211  -3.078   0.616  0.00  0.00    -0.170 F 
ATOM     15  F   LIG    1       -4.061  -0.801   0.523  0.00  0.00    -0.180 F 
ENDBRANCH  11  12
ENDBRANCH   9  11
ENDBRANCH   1   8
BRANCH   4  16
ATOM     16  N   LIG    1        3.215   3.572  -0.538  0.00  0.00    -0.670 N 
ATOM     17  H   LIG    1        4.168   3.456  -0.677  0.00  0.00    +0.420 HD
ATOM     18  C   LIG    1        2.721   4.788  -0.235  0.00  0.00    +0.560 C 
ATOM     19  O   LIG    1        1.543   4.918   0.023  0.00  0.00    -0.500 OA
BRANCH  18  20
ATOM     20  C   LIG    1        3.632   5.989  -0.216  0.00  0.00    -0.120 C 
ATOM     21  C   LIG    1        3.196   7.219  -1.013  0.00  0.00    +0.090 C 
ATOM     22  C   LIG    1        4.351   6.351  -1.517  0.00  0.00    +0.060 C 
BRANCH  20  23
ATOM     23  C   LIG    1        4.372   6.222   1.076  0.00  0.00    -0.060 A 
ATOM     24  C   LIG    1        5.750   6.118   1.111  0.00  0.00    +0.060 A 
ATOM     25  C   LIG    1        6.430   6.337   2.294  0.00  0.00    -0.010 A 
ATOM     26  C   LIG    1        5.730   6.649   3.447  0.00  0.00    +0.100 A 
ATOM     27  C   LIG    1        4.350   6.748   3.412  0.00  0.00    -0.010 A 
ATOM     28  F   LIG    1        6.394   6.859   4.605  0.00  0.00    -0.140 F 
ATOM     29  C   LIG    1        3.672   6.534   2.227  0.00  0.00    +0.070 A 
ENDBRANCH  20  23
ENDBRANCH  18  20
ENDBRANCH   4  16
TORSDOF 6
