REMARK  Name = ZINCqH00000505vb.0
REMARK                            x       y       z     vdW  Elec       q    Type
REMARK                         _______ _______ _______ _____ _____    ______ ____
ROOT
ATOM      1  C   LIG    1        3.711  -0.707  -0.038  0.00  0.00    +0.260 C 
ENDROOT
BRANCH   1   2
ATOM      2  C   LIG    1        2.396   0.029  -0.022  0.00  0.00    -0.120 A 
ATOM      3  C   LIG    1        1.208  -0.679  -0.013  0.00  0.00    +0.030 A 
ATOM      4  C   LIG    1        0.002  -0.004   0.002  0.00  0.00    +0.010 A 
ATOM      5  C   LIG    1       -0.017   1.378   0.010  0.00  0.00    +0.030 A 
ATOM      6  C   LIG    1        1.171   2.086   0.002  0.00  0.00    +0.010 A 
ATOM      7  C   LIG    1        2.377   1.411  -0.015  0.00  0.00    +0.040 A 
ENDBRANCH   1   2
BRANCH   1  10
ATOM      8  N   LIG    1        3.543  -1.597   2.264  0.00  0.00    -0.620 N 
ATOM      9  H   LIG    1        2.722  -2.041   1.998  0.00  0.00    +0.420 HD
ATOM     10  C   LIG    1        4.224  -0.851   1.371  0.00  0.00    +0.540 C 
ATOM     11  O   LIG    1        5.250  -0.296   1.703  0.00  0.00    -0.480 OA
BRANCH   8  15
ATOM     12  C   LIG    1        6.244  -1.254   6.440  0.00  0.00    +0.190 C 
ATOM     13  C   LIG    1        5.207  -1.574   5.395  0.00  0.00    -0.020 A 
ATOM     14  C   LIG    1        5.197  -1.153   4.110  0.00  0.00    -0.040 A 
ATOM     15  C   LIG    1        4.018  -1.730   3.569  0.00  0.00    +0.250 A 
ATOM     16  N   LIG    1        3.469  -2.415   4.537  0.00  0.00    -0.390 NA
ATOM     17  O   LIG    1        4.117  -2.339   5.556  0.00  0.00    +0.100 OA
ENDBRANCH   8  15
ENDBRANCH   1  10
BRANCH   1  18
ATOM     18  O   LIG    1        4.673   0.039  -0.830  0.00  0.00    -0.310 OA
BRANCH  18  19
ATOM     19  C   LIG    1        4.732  -0.243  -2.146  0.00  0.00    +0.550 C 
ATOM     20  O   LIG    1        4.000  -1.089  -2.620  0.00  0.00    -0.500 OA
BRANCH  19  21
ATOM     21  C   LIG    1        5.684   0.474  -3.010  0.00  0.00    -0.230 A 
ATOM     22  C   LIG    1        5.871   0.304  -4.352  0.00  0.00    +0.100 A 
ATOM     23  O   LIG    1        6.824   1.149  -4.755  0.00  0.00    -0.170 OA
ATOM     24  C   LIG    1        7.289   1.874  -3.726  0.00  0.00    -0.010 A 
ATOM     25  C   LIG    1        8.370   2.921  -3.812  0.00  0.00    +0.180 C 
ATOM     26  C   LIG    1        5.127  -0.670  -5.229  0.00  0.00    +0.200 C 
ATOM     27  C   LIG    1        6.637   1.520  -2.608  0.00  0.00    -0.010 A 
ENDBRANCH  19  21
ENDBRANCH  18  19
ENDBRANCH   1  18
TORSDOF 6
