REMARK  Name = ZINCvU0000000Dxu.0
REMARK                            x       y       z     vdW  Elec       q    Type
REMARK                         _______ _______ _______ _____ _____    ______ ____
ROOT
ATOM      1  C   LIG    1       -1.832   3.693  -8.191  0.00  0.00    +0.250 C 
ATOM      2  C   LIG    1       -1.699   5.003  -8.967  0.00  0.00    +0.170 C 
ATOM      3  N   LIG    1       -2.992   5.699  -8.975  0.00  0.00    -0.530 NA
ATOM      4  C   LIG    1       -3.406   6.069  -7.614  0.00  0.00    +0.170 C 
ATOM      5  C   LIG    1       -3.613   4.798  -6.784  0.00  0.00    +0.270 C 
ATOM      6  N   LIG    1       -2.390   3.985  -6.862  0.00  0.00    -0.620 N 
ATOM      7  C   LIG    1       -1.793   3.524  -5.745  0.00  0.00    +0.710 C 
ATOM      8  N   LIG    1       -2.354   3.747  -4.540  0.00  0.00    -0.690 N 
ATOM      9  H   LIG    1       -3.209   4.200  -4.480  0.00  0.00    +0.400 HD
ATOM     10  O   LIG    1       -0.748   2.908  -5.825  0.00  0.00    -0.560 OA
ENDROOT
BRANCH   8  11
ATOM     11  C   LIG    1       -1.702   3.324  -3.376  0.00  0.00    +0.160 A 
ATOM     12  C   LIG    1       -0.980   2.138  -3.373  0.00  0.00    +0.030 A 
ATOM     13  C   LIG    1       -0.342   1.727  -2.221  0.00  0.00    +0.030 A 
ATOM     14  C   LIG    1       -0.418   2.491  -1.067  0.00  0.00    -0.090 A 
ATOM     15  C   LIG    1        0.291   2.004   0.172  0.00  0.00    +0.070 C 
ATOM     16  C   LIG    1        0.435   3.154   1.170  0.00  0.00    +0.220 C 
ATOM     17  O   LIG    1       -0.838   3.789   1.320  0.00  0.00    -0.370 OA
ATOM     18  C   LIG    1       -1.232   4.531   0.166  0.00  0.00    +0.280 C 
ATOM     19  C   LIG    1       -1.133   3.671  -1.067  0.00  0.00    -0.100 A 
ATOM     20  C   LIG    1       -1.777   4.087  -2.220  0.00  0.00    -0.020 A 
ENDBRANCH   8  11
BRANCH   1  21
ATOM     21  C   LIG    1       -0.454   3.045  -8.040  0.00  0.00    +0.060 C 
BRANCH  21  23
ATOM     22  C   LIG    1        1.611   2.368  -9.272  0.00  0.00    +0.010 C 
ATOM     23  C   LIG    1        0.155   2.813  -9.424  0.00  0.00    -0.040 C 
ATOM     24  C   LIG    1       -0.637   1.728 -10.155  0.00  0.00    +0.000 C 
ENDBRANCH  21  23
ENDBRANCH   1  21
BRANCH   3  25
ATOM     25  C   LIG    1       -2.950   6.878  -9.851  0.00  0.00    +0.230 C 
BRANCH  25  26
ATOM     26  C   LIG    1       -4.345   7.417 -10.035  0.00  0.00    -0.080 A 
ATOM     27  C   LIG    1       -5.130   6.963 -11.079  0.00  0.00    +0.050 A 
ATOM     28  C   LIG    1       -6.411   7.453 -11.245  0.00  0.00    +0.020 A 
ATOM     29  C   LIG    1       -6.905   8.406 -10.372  0.00  0.00    -0.030 A 
ATOM     30  C   LIG    1       -6.118   8.865  -9.331  0.00  0.00    +0.020 A 
ATOM     31 CL   LIG    1       -8.512   9.027 -10.584  0.00  0.00    -0.070 Cl
ATOM     32  C   LIG    1       -4.838   8.370  -9.163  0.00  0.00    +0.030 A 
ENDBRANCH  25  26
ENDBRANCH   3  25
TORSDOF 5
