REMARK  Name = ZINCrD000000Armb.0
REMARK                            x       y       z     vdW  Elec       q    Type
REMARK                         _______ _______ _______ _____ _____    ______ ____
ROOT
ATOM      1  O   LIG    1       -2.006   8.355  -0.240  0.00  0.00    -0.480 OA
ATOM      2  C   LIG    1       -0.898   8.847  -0.196  0.00  0.00    +0.510 C 
ATOM      3  N   LIG    1       -0.754  10.187  -0.210  0.00  0.00    -0.660 N 
ATOM      4  H   LIG    1        0.133  10.579  -0.232  0.00  0.00    +0.410 HD
ENDROOT
BRANCH   3   5
ATOM      5  C   LIG    1       -1.881  11.009  -0.192  0.00  0.00    +0.160 A 
ATOM      6  C   LIG    1       -3.086  10.549  -0.678  0.00  0.00    +0.030 A 
ATOM      7  C   LIG    1       -4.215  11.362  -0.658  0.00  0.00    +0.060 A 
ATOM      8  C   LIG    1       -4.161  12.633  -0.172  0.00  0.00    +0.030 A 
ATOM      9  C   LIG    1       -2.950  13.144   0.327  0.00  0.00    +0.140 A 
ATOM     10  N   LIG    1       -2.875  14.389   0.809  0.00  0.00    -0.470 NA
ATOM     11  C   LIG    1       -1.749  14.872   1.276  0.00  0.00    +0.290 A 
ATOM     12  C   LIG    1       -0.580  14.117   1.295  0.00  0.00    -0.030 A 
ATOM     13  C   LIG    1       -0.588  12.836   0.817  0.00  0.00    +0.070 A 
ATOM     14  C   LIG    1       -1.796  12.322   0.317  0.00  0.00    -0.120 A 
ENDBRANCH   3   5
BRANCH   2  15
ATOM     15  C   LIG    1        0.318   7.959  -0.127  0.00  0.00    +0.240 C 
BRANCH  15  16
ATOM     16  O   LIG    1       -0.092   6.590  -0.125  0.00  0.00    -0.290 OA
BRANCH  16  17
ATOM     17  C   LIG    1        0.890   5.652  -0.066  0.00  0.00    +0.160 A 
ATOM     18  C   LIG    1        2.221   6.043  -0.010  0.00  0.00    -0.110 A 
ATOM     19  C   LIG    1        3.221   5.091   0.051  0.00  0.00    +0.080 A 
ATOM     20  C   LIG    1        2.899   3.748   0.062  0.00  0.00    -0.060 A 
ATOM     21  C   LIG    1        1.569   3.350   0.001  0.00  0.00    +0.210 A 
ATOM     22  C   LIG    1        0.564   4.305  -0.060  0.00  0.00    -0.020 A 
BRANCH  21  23
ATOM     23  N   LIG    1        1.243   1.990   0.007  0.00  0.00    -0.560 N 
ATOM     24  C   LIG    1        2.228   0.902  -0.045  0.00  0.00    +0.260 C 
ATOM     25  C   LIG    1        1.470  -0.362   0.417  0.00  0.00    +0.060 C 
ATOM     26  C   LIG    1        0.009  -0.002   0.059  0.00  0.00    +0.070 C 
ATOM     27  C   LIG    1       -0.011   1.510   0.060  0.00  0.00    +0.510 C 
ATOM     28  O   LIG    1       -1.014   2.191   0.099  0.00  0.00    -0.500 OA
ENDBRANCH  21  23
ENDBRANCH  16  17
ENDBRANCH  15  16
ENDBRANCH   2  15
TORSDOF 5
