REMARK  Name = ZINCqH0000003Fic.0
REMARK                            x       y       z     vdW  Elec       q    Type
REMARK                         _______ _______ _______ _____ _____    ______ ____
ROOT
ATOM      1  C   LIG    1       -3.240   3.810   6.799  0.00  0.00    +0.250 C 
ENDROOT
BRANCH   1   2
ATOM      2  C   LIG    1       -2.490   3.156   5.668  0.00  0.00    -0.070 A 
ATOM      3  C   LIG    1       -1.382   2.373   5.938  0.00  0.00    +0.030 A 
ATOM      4  C   LIG    1       -0.690   1.771   4.907  0.00  0.00    +0.080 A 
ATOM      5  C   LIG    1       -1.111   1.953   3.589  0.00  0.00    -0.120 A 
ATOM      6  C   LIG    1       -2.227   2.748   3.322  0.00  0.00    +0.030 A 
ATOM      7  C   LIG    1       -2.912   3.341   4.363  0.00  0.00    +0.030 A 
BRANCH   5   8
ATOM      8  C   LIG    1       -0.374   1.312   2.479  0.00  0.00    +0.570 C 
ATOM      9  N   LIG    1       -0.680   1.616   1.202  0.00  0.00    -0.620 N 
ATOM     10  C   LIG    1       -1.785   2.484   0.769  0.00  0.00    +0.250 C 
ATOM     11  C   LIG    1       -1.734   2.563  -0.771  0.00  0.00    +0.030 C 
ATOM     12  C   LIG    1       -0.260   2.196  -1.088  0.00  0.00    +0.040 C 
ATOM     13  C   LIG    1        0.039   1.138   0.003  0.00  0.00    +0.250 C 
ATOM     14  O   LIG    1        0.507   0.509   2.718  0.00  0.00    -0.530 OA
ENDBRANCH   5   8
ENDBRANCH   1   2
BRANCH   1  15
ATOM     15  O   LIG    1       -2.685   5.102   7.054  0.00  0.00    -0.290 OA
BRANCH  15  21
ATOM     16  C   LIG    1       -2.758   7.099   8.352  0.00  0.00    +0.110 A 
ATOM     17  C   LIG    1       -3.333   7.841   9.366  0.00  0.00    +0.010 A 
ATOM     18  C   LIG    1       -4.409   7.317  10.088  0.00  0.00    -0.030 A 
ATOM     19  C   LIG    1       -4.898   6.045   9.781  0.00  0.00    +0.080 A 
ATOM     20  C   LIG    1       -4.323   5.312   8.765  0.00  0.00    -0.030 A 
ATOM     21  C   LIG    1       -3.251   5.830   8.052  0.00  0.00    +0.130 A 
BRANCH  18  22
ATOM     22  C   LIG    1       -5.009   8.082  11.139  0.00  0.00    +0.250 C 
ATOM     23  N   LIG    1       -5.485   8.689  11.973  0.00  0.00    -0.410 NA
ENDBRANCH  18  22
BRANCH  16  24
ATOM     24  O   LIG    1       -1.711   7.606   7.648  0.00  0.00    -0.300 OA
BRANCH  24  26
ATOM     25  C   LIG    1       -0.083   9.310   7.114  0.00  0.00    +0.070 C 
ATOM     26  C   LIG    1       -1.258   8.912   8.010  0.00  0.00    +0.170 C 
ENDBRANCH  24  26
ENDBRANCH  16  24
ENDBRANCH  15  21
ENDBRANCH   1  15
TORSDOF 7
