REMARK  Name = ZINCtV00000tRTO6.0
REMARK                            x       y       z     vdW  Elec       q    Type
REMARK                         _______ _______ _______ _____ _____    ______ ____
ROOT
ATOM      1  C   LIG    1       -4.183   5.330   0.067  0.00  0.00    +0.290 A 
ATOM      2  N   LIG    1       -4.698   4.123   0.047  0.00  0.00    -0.450 NA
ATOM      3  C   LIG    1       -3.711   3.209   0.038  0.00  0.00    +0.070 A 
ATOM      4  C   LIG    1       -3.719   1.739   0.030  0.00  0.00    +0.010 A 
ATOM      5  C   LIG    1       -4.927   1.034   0.034  0.00  0.00    +0.040 A 
ATOM      6  C   LIG    1       -4.916  -0.331   0.027  0.00  0.00    +0.020 A 
ATOM      7  C   LIG    1       -3.718  -1.032   0.017  0.00  0.00    +0.020 A 
ATOM      8  C   LIG    1       -2.523  -0.369   0.014  0.00  0.00    +0.030 A 
ATOM      9  C   LIG    1       -2.503   1.028   0.020  0.00  0.00    -0.040 A 
ATOM     10  C   LIG    1       -1.230   1.761   0.017  0.00  0.00    -0.020 A 
ATOM     11  C   LIG    1       -0.013   1.076   0.008  0.00  0.00    +0.030 A 
ATOM     12  C   LIG    1        1.168   1.783   0.001  0.00  0.00    +0.020 A 
ATOM     13  C   LIG    1        1.160   3.172   0.007  0.00  0.00    +0.020 A 
ATOM     14  C   LIG    1       -0.017   3.863   0.021  0.00  0.00    +0.010 A 
ATOM     15  C   LIG    1       -1.235   3.172   0.030  0.00  0.00    -0.010 A 
ATOM     16  C   LIG    1       -2.503   3.897   0.045  0.00  0.00    +0.040 A 
ATOM     17  N   LIG    1       -2.818   5.239   0.054  0.00  0.00    -0.410 N 
ENDROOT
BRANCH   1  21
ATOM     18  C   LIG    1       -6.405   8.950   0.102  0.00  0.00    +0.030 A 
ATOM     19  C   LIG    1       -7.035   7.758  -0.208  0.00  0.00    +0.010 A 
ATOM     20  C   LIG    1       -6.319   6.579  -0.221  0.00  0.00    +0.070 A 
ATOM     21  C   LIG    1       -4.957   6.590   0.079  0.00  0.00    -0.020 A 
ATOM     22  C   LIG    1       -4.328   7.795   0.396  0.00  0.00    +0.020 A 
ATOM     23  C   LIG    1       -5.054   8.968   0.399  0.00  0.00    +0.010 A 
ENDBRANCH   1  21
BRANCH  17  24
ATOM     24  C   LIG    1       -1.912   6.307   0.051  0.00  0.00    +0.110 A 
ATOM     25  C   LIG    1       -1.069   6.507   1.137  0.00  0.00    +0.020 A 
ATOM     26  C   LIG    1       -0.173   7.558   1.129  0.00  0.00    +0.030 A 
ATOM     27  C   LIG    1       -0.122   8.417   0.046  0.00  0.00    +0.030 A 
ATOM     28  C   LIG    1       -0.964   8.223  -1.034  0.00  0.00    +0.040 A 
ATOM     29  C   LIG    1       -1.858   7.171  -1.034  0.00  0.00    +0.030 A 
ENDBRANCH  17  24
TORSDOF 2
