REMARK  Name = ZINCpk000005aRkb.0
REMARK                            x       y       z     vdW  Elec       q    Type
REMARK                         _______ _______ _______ _____ _____    ______ ____
ROOT
ATOM      1  N   LIG    1       -4.409   5.626   0.610  0.00  0.00    -0.440 N 
ATOM      2  C   LIG    1       -3.955   6.901   0.615  0.00  0.00    +0.370 A 
ATOM      3  N   LIG    1       -3.022   7.020  -0.294  0.00  0.00    -0.470 NA
ATOM      4  C   LIG    1       -2.850   5.845  -0.902  0.00  0.00    -0.020 A 
ATOM      5  C   LIG    1       -1.894   5.481  -2.007  0.00  0.00    +0.210 C 
ATOM      6  C   LIG    1       -2.416   6.018  -3.341  0.00  0.00    +0.020 C 
ATOM      7  C   LIG    1       -1.400   5.702  -4.442  0.00  0.00    +0.220 C 
ATOM      8  O   LIG    1       -0.136   6.272  -4.100  0.00  0.00    -0.380 OA
ATOM      9  C   LIG    1        0.423   5.766  -2.886  0.00  0.00    +0.220 C 
ATOM     10  C   LIG    1       -0.518   6.084  -1.720  0.00  0.00    +0.020 C 
ATOM     11  N   LIG    1       -1.787   4.016  -2.073  0.00  0.00    -0.520 NA
ATOM     12  C   LIG    1       -3.112   3.381  -2.136  0.00  0.00    +0.230 C 
ATOM     13  C   LIG    1       -3.815   3.520  -0.778  0.00  0.00    +0.080 C 
ATOM     14  C   LIG    1       -3.712   4.961  -0.348  0.00  0.00    -0.020 A 
ENDROOT
BRANCH   1  16
ATOM     15  C   LIG    1       -4.808   4.404   2.691  0.00  0.00    +0.030 C 
ATOM     16  C   LIG    1       -5.453   5.068   1.473  0.00  0.00    +0.290 C 
ENDBRANCH   1  16
BRANCH  11  17
ATOM     17  C   LIG    1       -1.007   3.493  -0.943  0.00  0.00    +0.180 C 
BRANCH  17  18
ATOM     18  C   LIG    1       -0.736   2.003  -1.156  0.00  0.00    +0.190 C 
BRANCH  18  19
ATOM     19  N   LIG    1        0.044   1.481  -0.026  0.00  0.00    -0.540 NA
ATOM     20  C   LIG    1        1.389   2.073   0.004  0.00  0.00    +0.160 C 
ATOM     21  C   LIG    1        2.146   1.548   1.227  0.00  0.00    +0.220 C 
ATOM     22  O   LIG    1        2.184   0.119   1.181  0.00  0.00    -0.380 OA
ATOM     23  C   LIG    1        0.891  -0.491   1.151  0.00  0.00    +0.160 C 
ATOM     24  C   LIG    1        1.044  -2.011   1.068  0.00  0.00    +0.050 C 
ATOM     25  C   LIG    1        0.122   0.013  -0.073  0.00  0.00    +0.150 C 
ENDBRANCH  18  19
ENDBRANCH  17  18
ENDBRANCH  11  17
TORSDOF 4
