REMARK  Name = ZINCqH00000507K5.0
REMARK                            x       y       z     vdW  Elec       q    Type
REMARK                         _______ _______ _______ _____ _____    ______ ____
ROOT
ATOM      1  O   LIG    1        2.537  -0.243   0.077  0.00  0.00    -0.320 OA
ENDROOT
BRANCH   1   2
ATOM      2  C   LIG    1        2.484   1.100  -0.016  0.00  0.00    +0.520 C 
ATOM      3  O   LIG    1        3.510   1.742  -0.114  0.00  0.00    -0.490 OA
BRANCH   2  13
ATOM      4  C   LIG    1       -2.511   0.973  -0.016  0.00  0.00    +0.140 C 
ATOM      5  C   LIG    1       -1.226   1.761   0.001  0.00  0.00    +0.150 A 
ATOM      6  N   LIG    1       -1.282   3.069   0.031  0.00  0.00    -0.450 NA
ATOM      7  C   LIG    1       -0.178   3.821   0.041  0.00  0.00    +0.130 A 
ATOM      8  C   LIG    1       -0.260   5.225   0.067  0.00  0.00    +0.050 A 
ATOM      9  C   LIG    1        0.881   5.968   0.077  0.00  0.00    +0.030 A 
ATOM     10  C   LIG    1        2.134   5.360   0.062  0.00  0.00    +0.020 A 
ATOM     11  C   LIG    1        2.251   4.002   0.038  0.00  0.00    +0.050 A 
ATOM     12  C   LIG    1        1.099   3.207   0.026  0.00  0.00    -0.060 A 
ATOM     13  C   LIG    1        1.178   1.791   0.000  0.00  0.00    -0.070 A 
ATOM     14  C   LIG    1       -0.013   1.076  -0.009  0.00  0.00    +0.060 A 
ENDBRANCH   2  13
ENDBRANCH   1   2
BRANCH   1  15
ATOM     15  C   LIG    1        3.854  -0.855   0.054  0.00  0.00    +0.270 C 
BRANCH  15  16
ATOM     16  C   LIG    1        3.715  -2.351   0.168  0.00  0.00    +0.520 C 
ATOM     17  N   LIG    1        4.814  -3.131   0.169  0.00  0.00    -0.730 N 
ATOM     18  H   LIG    1        5.694  -2.730   0.095  0.00  0.00    +0.400 HD
ATOM     19  O   LIG    1        2.615  -2.853   0.260  0.00  0.00    -0.510 OA
BRANCH  17  20
ATOM     20  C   LIG    1        4.679  -4.586   0.279  0.00  0.00    +0.270 C 
BRANCH  20  21
ATOM     21  C   LIG    1        6.066  -5.230   0.255  0.00  0.00    +0.060 C 
BRANCH  21  22
ATOM     22  C   LIG    1        5.928  -6.726   0.369  0.00  0.00    -0.120 C 
ATOM     23  C   LIG    1        5.908  -7.419  -0.724  0.00  0.00    -0.040 C 
ATOM     24  C   LIG    1        5.771  -8.913  -0.770  0.00  0.00    +0.050 C 
ATOM     25  C   LIG    1        6.072  -9.514   0.604  0.00  0.00    +0.010 C 
ATOM     26  C   LIG    1        5.265  -8.745   1.658  0.00  0.00    +0.020 C 
ATOM     27  C   LIG    1        5.815  -7.320   1.743  0.00  0.00    +0.060 C 
ENDBRANCH  21  22
ENDBRANCH  20  21
ENDBRANCH  17  20
ENDBRANCH  15  16
ENDBRANCH   1  15
TORSDOF 7
