REMARK  Name = ZINCvU0000000ACz.0
REMARK                            x       y       z     vdW  Elec       q    Type
REMARK                         _______ _______ _______ _____ _____    ______ ____
ROOT
ATOM      1  C   LIG    1       -0.067   3.052  -0.511  0.00  0.00    -0.250 A 
ATOM      2  C   LIG    1        0.572   4.193  -0.973  0.00  0.00    +0.350 A 
ATOM      3  N   LIG    1       -0.363   5.142  -1.151  0.00  0.00    -0.300 N 
ATOM      4  N   LIG    1       -1.619   4.640  -0.800  0.00  0.00    -0.280 NA
ATOM      5  C   LIG    1       -1.494   3.393  -0.410  0.00  0.00    +0.170 A 
ENDROOT
BRANCH   3   6
ATOM      6  C   LIG    1       -0.114   6.441  -1.613  0.00  0.00    +0.150 A 
ATOM      7  C   LIG    1        1.181   6.831  -1.927  0.00  0.00    +0.000 A 
ATOM      8  C   LIG    1        1.423   8.111  -2.387  0.00  0.00    +0.040 A 
ATOM      9  C   LIG    1        0.378   9.006  -2.526  0.00  0.00    +0.010 A 
ATOM     10  C   LIG    1       -0.912   8.622  -2.209  0.00  0.00    +0.030 A 
ATOM     11  C   LIG    1       -1.161   7.342  -1.754  0.00  0.00    +0.030 A 
ENDBRANCH   3   6
BRANCH   5  12
ATOM     12  C   LIG    1       -2.583   2.498   0.045  0.00  0.00    -0.020 A 
ATOM     13  C   LIG    1       -2.543   1.136  -0.255  0.00  0.00    +0.040 A 
ATOM     14  C   LIG    1       -3.558   0.307   0.176  0.00  0.00    +0.010 A 
ATOM     15  C   LIG    1       -4.620   0.826   0.895  0.00  0.00    +0.020 A 
ATOM     16  C   LIG    1       -4.669   2.176   1.191  0.00  0.00    +0.010 A 
ATOM     17  C   LIG    1       -3.656   3.014   0.770  0.00  0.00    +0.050 A 
ENDBRANCH   5  12
BRANCH   1  19
ATOM     18  C   LIG    1        1.509   1.233  -1.021  0.00  0.00    -0.170 C 
ATOM     19  C   LIG    1        0.554   1.771  -0.183  0.00  0.00    +0.290 C 
BRANCH  18  20
ATOM     20  C   LIG    1        1.765   1.845  -2.333  0.00  0.00    +0.580 C 
ATOM     21  N   LIG    1        2.790   1.409  -3.091  0.00  0.00    -0.670 N 
ATOM     22  H   LIG    1        3.410   0.753  -2.738  0.00  0.00    +0.410 HD
ATOM     23  O   LIG    1        1.052   2.746  -2.733  0.00  0.00    -0.500 OA
BRANCH  21  24
ATOM     24  C   LIG    1        2.959   1.903  -4.389  0.00  0.00    +0.150 A 
ATOM     25  C   LIG    1        1.850   2.226  -5.161  0.00  0.00    +0.030 A 
ATOM     26  C   LIG    1        2.020   2.718  -6.440  0.00  0.00    +0.050 A 
ATOM     27  C   LIG    1        3.294   2.880  -6.957  0.00  0.00    -0.050 A 
ATOM     28  C   LIG    1        4.400   2.554  -6.192  0.00  0.00    +0.050 A 
ATOM     29 CL   LIG    1        3.503   3.493  -8.568  0.00  0.00    -0.070 Cl
ATOM     30  C   LIG    1        4.236   2.066  -4.911  0.00  0.00    +0.010 A 
ENDBRANCH  21  24
ENDBRANCH  18  20
BRANCH  18  32
ATOM     31  N   LIG    1        2.839  -0.839  -0.290  0.00  0.00    -0.400 NA
ATOM     32  C   LIG    1        2.251   0.078  -0.614  0.00  0.00    +0.250 C 
ENDBRANCH  18  32
ENDBRANCH   1  19
TORSDOF 6
