REMARK  Name = ZINCtV000002LIzN.0
REMARK                            x       y       z     vdW  Elec       q    Type
REMARK                         _______ _______ _______ _____ _____    ______ ____
ROOT
ATOM      1  C   LIG    1       -0.018   1.468   0.010  0.00  0.00    +0.240 C 
ENDROOT
BRANCH   1   2
ATOM      2  C   LIG    1       -0.723   1.954   1.250  0.00  0.00    +0.020 A 
ATOM      3  N   LIG    1       -1.785   2.683   1.253  0.00  0.00    -0.440 NA
ATOM      4  C   LIG    1       -2.281   3.024   2.433  0.00  0.00    +0.100 A 
ATOM      5  C   LIG    1       -1.582   2.545   3.482  0.00  0.00    -0.060 A 
ATOM      6  S   LIG    1       -0.231   1.608   2.850  0.00  0.00    +0.220 S 
BRANCH   4   7
ATOM      7  C   LIG    1       -3.497   3.860   2.587  0.00  0.00    -0.020 A 
ATOM      8  C   LIG    1       -3.970   4.178   3.859  0.00  0.00    +0.050 A 
ATOM      9  C   LIG    1       -5.099   4.959   3.997  0.00  0.00    +0.030 A 
ATOM     10  C   LIG    1       -5.768   5.417   2.874  0.00  0.00    -0.030 A 
ATOM     11  C   LIG    1       -5.305   5.100   1.609  0.00  0.00    +0.030 A 
ATOM     12 CL   LIG    1       -7.192   6.394   3.055  0.00  0.00    -0.070 Cl
ATOM     13  C   LIG    1       -4.174   4.324   1.461  0.00  0.00    +0.070 A 
ENDBRANCH   4   7
ENDBRANCH   1   2
BRANCH   1  15
ATOM     14  N   LIG    1        0.018  -1.140  -0.004  0.00  0.00    -0.370 NA
ATOM     15  C   LIG    1        0.002  -0.004   0.002  0.00  0.00    +0.210 C 
ENDBRANCH   1  15
BRANCH   1  16
ATOM     16  C   LIG    1        1.396   1.989  -0.001  0.00  0.00    +0.430 C 
ATOM     17  O   LIG    1        1.974   2.193   1.045  0.00  0.00    -0.410 OA
BRANCH  16  18
ATOM     18  C   LIG    1        2.076   2.252  -1.284  0.00  0.00    +0.050 A 
ATOM     19  C   LIG    1        3.381   2.739  -1.286  0.00  0.00    +0.050 A 
ATOM     20  C   LIG    1        4.011   2.977  -2.510  0.00  0.00    -0.000 A 
ATOM     21  C   LIG    1        3.295   2.723  -3.683  0.00  0.00    +0.020 A 
ATOM     22  C   LIG    1        1.999   2.244  -3.594  0.00  0.00    +0.280 A 
ATOM     23  N   LIG    1        1.435   2.026  -2.427  0.00  0.00    -0.450 NA
BRANCH  20  24
ATOM     24  C   LIG    1        5.402   3.490  -2.564  0.00  0.00    -0.060 A 
ATOM     25  C   LIG    1        6.100   3.744  -1.385  0.00  0.00    +0.030 A 
ATOM     26  C   LIG    1        7.395   4.217  -1.440  0.00  0.00    +0.010 A 
ATOM     27  C   LIG    1        7.997   4.450  -2.663  0.00  0.00    +0.020 A 
ATOM     28  C   LIG    1        7.307   4.205  -3.837  0.00  0.00    +0.010 A 
ATOM     29  C   LIG    1        6.013   3.727  -3.793  0.00  0.00    +0.030 A 
ENDBRANCH  20  24
ENDBRANCH  16  18
ENDBRANCH   1  16
TORSDOF 6
