REMARK  Name = ZINCkj000005lgMS.0
REMARK                            x       y       z     vdW  Elec       q    Type
REMARK                         _______ _______ _______ _____ _____    ______ ____
ROOT
ATOM      1  C   LIG    1        2.880  -1.718  -2.710  0.00  0.00    -0.020 C 
ATOM      2  C   LIG    1        1.729  -2.648  -2.318  0.00  0.00    +0.050 C 
ATOM      3  C   LIG    1        1.190  -2.233  -0.947  0.00  0.00    +0.180 C 
ATOM      4  N   LIG    1        0.722  -0.842  -1.004  0.00  0.00    -0.540 NA
ATOM      5  C   LIG    1        1.822   0.075  -1.333  0.00  0.00    +0.170 C 
ATOM      6  C   LIG    1        2.380  -0.272  -2.715  0.00  0.00    +0.040 C 
ENDROOT
BRANCH   1   7
ATOM      7  C   LIG    1        3.385  -2.091  -4.106  0.00  0.00    +0.190 C 
ATOM      8  F   LIG    1        3.721  -3.449  -4.133  0.00  0.00    -0.180 F 
BRANCH   7  12
ATOM      9  N   LIG    1        4.701  -0.665  -5.640  0.00  0.00    -0.840 N 
ATOM     10  H   LIG    1        5.484  -0.134  -5.853  0.00  0.00    +0.410 HD
ATOM     11  H   LIG    1        3.990  -0.764  -6.292  0.00  0.00    +0.410 HD
ATOM     12  C   LIG    1        4.601  -1.266  -4.438  0.00  0.00    +0.500 C 
ATOM     13  O   LIG    1        5.491  -1.142  -3.622  0.00  0.00    -0.520 OA
ENDBRANCH   7  12
ENDBRANCH   1   7
BRANCH   4  14
ATOM     14  C   LIG    1        0.072  -0.453   0.254  0.00  0.00    +0.200 C 
BRANCH  14  15
ATOM     15  C   LIG    1       -0.176   1.057   0.255  0.00  0.00    +0.030 C 
BRANCH  15  16
ATOM     16  C   LIG    1       -0.854   1.462   1.565  0.00  0.00    +0.250 C 
BRANCH  16  17
ATOM     17  N   LIG    1       -1.092   2.912   1.566  0.00  0.00    -0.380 N 
ATOM     18  C   LIG    1        0.195   3.618   1.550  0.00  0.00    +0.250 C 
ATOM     19  C   LIG    1       -0.048   5.126   1.469  0.00  0.00    +0.050 C 
ATOM     20  C   LIG    1       -0.862   5.573   2.686  0.00  0.00    +0.030 C 
ATOM     21  C   LIG    1       -2.169   4.777   2.734  0.00  0.00    +0.050 C 
ATOM     22  C   LIG    1       -1.848   3.281   2.768  0.00  0.00    +0.250 C 
ATOM     23  H   LIG    1       -1.622   3.165   0.746  0.00  0.00    +0.420 HD
ENDBRANCH  16  17
ENDBRANCH  15  16
ENDBRANCH  14  15
ENDBRANCH   4  14
TORSDOF 6
