REMARK  Name = ZINCrD000000A5Yg.0
REMARK                            x       y       z     vdW  Elec       q    Type
REMARK                         _______ _______ _______ _____ _____    ______ ____
ROOT
ATOM      1  C   LIG    1       -1.142   0.718  -2.132  0.00  0.00    +0.490 C 
ATOM      2  N   LIG    1       -0.975   1.520  -1.062  0.00  0.00    -0.580 N 
ATOM      3  C   LIG    1       -0.621   0.955   0.248  0.00  0.00    +0.280 C 
ATOM      4  C   LIG    1       -1.641   1.437   1.286  0.00  0.00    +0.040 C 
ATOM      5  C   LIG    1       -1.734   2.956   1.237  0.00  0.00    -0.040 C 
ATOM      6  C   LIG    1       -0.385   3.587   1.634  0.00  0.00    +0.250 C 
ATOM      7  O   LIG    1       -0.788   4.752   2.376  0.00  0.00    -0.300 OA
ATOM      8  C   LIG    1       -2.013   4.532   2.930  0.00  0.00    +0.110 A 
ATOM      9  C   LIG    1       -2.651   5.194   3.975  0.00  0.00    -0.010 A 
ATOM     10  C   LIG    1       -3.914   4.808   4.376  0.00  0.00    +0.050 A 
ATOM     11  C   LIG    1       -4.557   3.760   3.743  0.00  0.00    -0.020 A 
ATOM     12  C   LIG    1       -3.928   3.095   2.706  0.00  0.00    +0.060 A 
ATOM     13  C   LIG    1       -2.162   3.443  -0.141  0.00  0.00    +0.050 C 
ATOM     14  C   LIG    1       -2.667   3.475   2.306  0.00  0.00    -0.160 A 
ATOM     15  C   LIG    1       -1.142   2.975  -1.185  0.00  0.00    +0.280 C 
ATOM     16  O   LIG    1       -1.589   1.170  -3.166  0.00  0.00    -0.520 OA
ENDROOT
BRANCH   1  18
ATOM     17  O   LIG    1       -0.184  -1.146  -1.071  0.00  0.00    -0.430 OA
ATOM     18  C   LIG    1       -0.776  -0.726  -2.046  0.00  0.00    +0.420 C 
BRANCH  18  19
ATOM     19  C   LIG    1       -1.129  -1.636  -3.135  0.00  0.00    -0.280 A 
ATOM     20  C   LIG    1       -1.802  -1.316  -4.299  0.00  0.00    +0.370 A 
ATOM     21  N   LIG    1       -1.937  -2.418  -5.059  0.00  0.00    -0.570 N 
ATOM     22  H   LIG    1       -2.374  -2.440  -5.924  0.00  0.00    +0.420 HD
ATOM     23  C   LIG    1       -1.375  -3.514  -4.435  0.00  0.00    +0.070 A 
ATOM     24  C   LIG    1       -1.260  -4.853  -4.792  0.00  0.00    +0.000 A 
ATOM     25  C   LIG    1       -0.630  -5.740  -3.945  0.00  0.00    +0.030 A 
ATOM     26  C   LIG    1       -0.107  -5.311  -2.735  0.00  0.00    +0.000 A 
ATOM     27  C   LIG    1       -0.212  -3.987  -2.363  0.00  0.00    +0.050 A 
ATOM     28  C   LIG    1       -0.845  -3.082  -3.209  0.00  0.00    -0.050 A 
ENDBRANCH  18  19
ENDBRANCH   1  18
TORSDOF 2
