REMARK  Name = ZINCrg00001JduOo.0
REMARK                            x       y       z     vdW  Elec       q    Type
REMARK                         _______ _______ _______ _____ _____    ______ ____
ROOT
ATOM      1  C   LIG    1        2.186   3.609  -2.458  0.00  0.00    +0.510 C 
ATOM      2  N   LIG    1        1.769   2.658  -3.325  0.00  0.00    -0.590 N 
ATOM      3  C   LIG    1        2.122   1.246  -2.998  0.00  0.00    +0.250 C 
ATOM      4  C   LIG    1        0.849   0.464  -2.595  0.00  0.00    +0.250 C 
ATOM      5  N   LIG    1       -0.312   1.297  -2.459  0.00  0.00    -0.600 N 
ATOM      6  C   LIG    1       -1.013   1.791  -3.671  0.00  0.00    +0.290 C 
ATOM      7  C   LIG    1       -0.471   3.082  -4.103  0.00  0.00    +0.020 C 
ATOM      8  C   LIG    1       -0.775   1.621  -1.236  0.00  0.00    +0.520 C 
ATOM      9  O   LIG    1       -1.764   2.314  -1.125  0.00  0.00    -0.520 OA
ATOM     10  C   LIG    1        1.019   3.017  -4.482  0.00  0.00    +0.190 C 
ATOM     11  C   LIG    1        1.417   4.374  -5.071  0.00  0.00    +0.020 C 
ATOM     12  C   LIG    1        2.829   4.312  -5.651  0.00  0.00    +0.210 C 
ATOM     13  O   LIG    1        2.893   3.281  -6.641  0.00  0.00    -0.380 OA
ATOM     14  C   LIG    1        2.603   1.978  -6.125  0.00  0.00    +0.200 C 
ATOM     15  C   LIG    1        1.174   1.955  -5.583  0.00  0.00    +0.010 C 
ATOM     16  O   LIG    1        1.988   4.780  -2.701  0.00  0.00    -0.500 OA
ENDROOT
BRANCH   1  17
ATOM     17  C   LIG    1        2.898   3.212  -1.190  0.00  0.00    +0.190 C 
BRANCH  17  19
ATOM     18  C   LIG    1        3.918   4.119   0.781  0.00  0.00    +0.220 C 
ATOM     19  O   LIG    1        3.236   4.385  -0.447  0.00  0.00    -0.360 OA
ENDBRANCH  17  19
ENDBRANCH   1  17
BRANCH   8  20
ATOM     20  C   LIG    1       -0.065   1.120  -0.004  0.00  0.00    +0.040 C 
BRANCH  20  21
ATOM     21  C   LIG    1       -0.790   1.627   1.244  0.00  0.00    +0.290 C 
ATOM     22  C   LIG    1       -0.687   3.152   1.310  0.00  0.00    +0.060 C 
BRANCH  21  23
ATOM     23  N   LIG    1       -0.172   1.044   2.438  0.00  0.00    -0.370 N 
ATOM     24  C   LIG    1        0.914   1.520   3.083  0.00  0.00    +0.220 A 
ATOM     25  C   LIG    1        1.161   0.703   4.133  0.00  0.00    -0.120 A 
ATOM     26  C   LIG    1        0.200  -0.313   4.123  0.00  0.00    +0.230 A 
ATOM     27  N   LIG    1       -0.600  -0.110   3.108  0.00  0.00    -0.300 NA
ENDBRANCH  21  23
ENDBRANCH  20  21
ENDBRANCH   8  20
TORSDOF 5
