REMARK  Name = ZINCqH0000038D2H.0
REMARK                            x       y       z     vdW  Elec       q    Type
REMARK                         _______ _______ _______ _____ _____    ______ ____
ROOT
ATOM      1  N   LIG    1       -1.191   1.870   0.018  0.00  0.00    -0.740 N 
ATOM      2  H   LIG    1       -1.204   2.840   0.023  0.00  0.00    +0.400 HD
ATOM      3  C   LIG    1       -0.014   1.212   0.009  0.00  0.00    +0.710 C 
ATOM      4  N   LIG    1        1.143   1.901   0.001  0.00  0.00    -0.740 N 
ATOM      5  H   LIG    1        1.130   2.871   0.007  0.00  0.00    +0.400 HD
ATOM      6  O   LIG    1        0.002  -0.004   0.002  0.00  0.00    -0.580 OA
ENDROOT
BRANCH   4   7
ATOM      7  C   LIG    1        2.422   1.186  -0.015  0.00  0.00    +0.310 C 
ATOM      8  C   LIG    1        2.819   0.820   1.417  0.00  0.00    +0.040 C 
BRANCH   7   9
ATOM      9  C   LIG    1        3.483   2.068  -0.621  0.00  0.00    -0.100 A 
ATOM     10  C   LIG    1        3.342   3.442  -0.587  0.00  0.00    +0.040 A 
ATOM     11  C   LIG    1        4.317   4.253  -1.138  0.00  0.00    +0.050 A 
ATOM     12  C   LIG    1        5.430   3.690  -1.733  0.00  0.00    +0.020 A 
ATOM     13  C   LIG    1        5.572   2.314  -1.774  0.00  0.00    +0.080 A 
ATOM     14  F   LIG    1        6.660   1.763  -2.356  0.00  0.00    -0.120 F 
ATOM     15  C   LIG    1        4.597   1.501  -1.216  0.00  0.00    +0.080 A 
ATOM     16  F   LIG    1        4.734   0.158  -1.254  0.00  0.00    -0.120 F 
ENDBRANCH   7   9
ENDBRANCH   4   7
BRANCH   1  17
ATOM     17  C   LIG    1       -2.449   1.120   0.020  0.00  0.00    +0.410 C 
BRANCH  17  21
ATOM     18  C   LIG    1       -5.635   3.765   2.617  0.00  0.00    +0.160 C 
ATOM     19  C   LIG    1       -5.101   3.323   1.278  0.00  0.00    +0.230 A 
ATOM     20  N   LIG    1       -4.093   2.478   1.199  0.00  0.00    -0.510 NA
ATOM     21  C   LIG    1       -3.608   2.084   0.030  0.00  0.00    +0.310 A 
ATOM     22  N   LIG    1       -4.096   2.491  -1.117  0.00  0.00    -0.490 NA
ATOM     23  C   LIG    1       -5.125   3.346  -1.146  0.00  0.00    +0.160 A 
ATOM     24  C   LIG    1       -5.676   3.806  -2.351  0.00  0.00    +0.040 A 
ATOM     25  C   LIG    1       -6.724   4.676  -2.323  0.00  0.00    +0.060 A 
ATOM     26  C   LIG    1       -7.259   5.119  -1.115  0.00  0.00    +0.020 A 
ATOM     27  C   LIG    1       -6.749   4.694   0.075  0.00  0.00    +0.060 A 
ATOM     28  C   LIG    1       -5.671   3.798   0.083  0.00  0.00    -0.160 A 
ENDBRANCH  17  21
ENDBRANCH   1  17
TORSDOF 4
