REMARK  Name = ZINCvU0000000Fsh.0
REMARK                            x       y       z     vdW  Elec       q    Type
REMARK                         _______ _______ _______ _____ _____    ______ ____
ROOT
ATOM      1  C   LIG    1       -3.670   5.837  -2.056  0.00  0.00    +0.520 C 
ATOM      2  N   LIG    1       -2.494   5.626  -1.434  0.00  0.00    -0.660 N 
ATOM      3  H   LIG    1       -2.477   5.221  -0.553  0.00  0.00    +0.410 HD
ATOM      4  O   LIG    1       -3.688   6.249  -3.197  0.00  0.00    -0.510 OA
ENDROOT
BRANCH   2   5
ATOM      5  C   LIG    1       -1.296   5.989  -2.060  0.00  0.00    +0.150 A 
ATOM      6  C   LIG    1       -1.290   6.989  -3.023  0.00  0.00    +0.010 A 
ATOM      7  C   LIG    1       -0.106   7.345  -3.639  0.00  0.00    +0.030 A 
ATOM      8  C   LIG    1        1.072   6.706  -3.299  0.00  0.00    -0.010 A 
ATOM      9  C   LIG    1        1.070   5.713  -2.335  0.00  0.00    +0.040 A 
ATOM     10  C   LIG    1       -0.111   5.349  -1.719  0.00  0.00    -0.100 A 
BRANCH  10  11
ATOM     11  C   LIG    1       -0.113   4.264  -0.674  0.00  0.00    +0.130 C 
BRANCH  11  12
ATOM     12  C   LIG    1       -0.469   2.948  -1.317  0.00  0.00    -0.080 A 
ATOM     13  C   LIG    1        0.527   2.136  -1.827  0.00  0.00    +0.010 A 
ATOM     14  C   LIG    1        0.200   0.929  -2.416  0.00  0.00    +0.000 A 
ATOM     15  C   LIG    1       -1.122   0.533  -2.495  0.00  0.00    +0.000 A 
ATOM     16  C   LIG    1       -2.118   1.348  -1.990  0.00  0.00    +0.000 A 
ATOM     17  C   LIG    1       -1.791   2.553  -1.397  0.00  0.00    -0.010 A 
ENDBRANCH  11  12
ENDBRANCH  10  11
ENDBRANCH   2   5
BRANCH   1  18
ATOM     18  C   LIG    1       -4.964   5.562  -1.335  0.00  0.00    +0.260 C 
BRANCH  18  19
ATOM     19  N   LIG    1       -6.091   5.870  -2.219  0.00  0.00    -0.710 N 
ATOM     20  H   LIG    1       -5.982   6.509  -2.940  0.00  0.00    +0.410 HD
ATOM     21  C   LIG    1       -7.280   5.264  -2.030  0.00  0.00    +0.570 C 
ATOM     22  O   LIG    1       -7.418   4.463  -1.126  0.00  0.00    -0.530 OA
BRANCH  21  23
ATOM     23  C   LIG    1       -8.418   5.574  -2.922  0.00  0.00    -0.120 A 
ATOM     24  C   LIG    1       -8.264   6.498  -3.957  0.00  0.00    +0.060 A 
ATOM     25  C   LIG    1       -9.328   6.779  -4.789  0.00  0.00    +0.040 A 
ATOM     26  C   LIG    1      -10.548   6.155  -4.593  0.00  0.00    -0.060 A 
ATOM     27  C   LIG    1      -10.708   5.242  -3.564  0.00  0.00    +0.040 A 
ATOM     28 BR   LIG    1      -12.003   6.552  -5.734  0.00  0.00    -0.040 Br
ATOM     29  C   LIG    1       -9.650   4.948  -2.729  0.00  0.00    +0.100 A 
ENDBRANCH  21  23
ENDBRANCH  18  19
BRANCH  18  30
ATOM     30  C   LIG    1       -5.046   6.437  -0.082  0.00  0.00    +0.070 C 
BRANCH  30  31
ATOM     31  C   LIG    1       -6.298   6.070   0.716  0.00  0.00    +0.100 C 
BRANCH  31  33
ATOM     32  C   LIG    1       -7.918   6.533   3.002  0.00  0.00    +0.140 C 
ATOM     33  S   LIG    1       -6.395   7.107   2.201  0.00  0.00    -0.270 S 
ENDBRANCH  31  33
ENDBRANCH  30  31
ENDBRANCH  18  30
ENDBRANCH   1  18
TORSDOF 9
