REMARK  Name = ZINC480000004T66.0
REMARK                            x       y       z     vdW  Elec       q    Type
REMARK                         _______ _______ _______ _____ _____    ______ ____
ROOT
ATOM      1  C   LIG    1       -1.208   3.131   0.025  0.00  0.00    +0.140 C 
ATOM      2  C   LIG    1       -1.187   1.624   0.017  0.00  0.00    +0.290 C 
ATOM      3  S   LIG    1       -2.561   0.805   0.019  0.00  0.00    -0.460 S 
ENDROOT
BRANCH   2   4
ATOM      4  N   LIG    1       -0.011   0.966   0.007  0.00  0.00    -0.780 N 
ATOM      5  H   LIG    1        0.822   1.462   0.002  0.00  0.00    +0.400 HD
ATOM      6  H   LIG    1        0.002  -0.004   0.002  0.00  0.00    +0.420 HD
ENDBRANCH   2   4
TORSDOF 1
