REMARK  Name = ZINCrD0000072uRF.0
REMARK                            x       y       z     vdW  Elec       q    Type
REMARK                         _______ _______ _______ _____ _____    ______ ____
ROOT
ATOM      1  N   LIG    1       -6.497   6.034   2.560  0.00  0.00    -0.680 N 
ATOM      2  H   LIG    1       -7.376   5.772   2.873  0.00  0.00    +0.410 HD
ATOM      3  C   LIG    1       -5.771   5.187   1.803  0.00  0.00    +0.510 C 
ATOM      4  O   LIG    1       -4.708   5.546   1.340  0.00  0.00    -0.500 OA
ENDROOT
BRANCH   1   9
ATOM      5  C   LIG    1       -4.681   9.234   2.323  0.00  0.00    -0.120 A 
ATOM      6  C   LIG    1       -4.967   9.785   3.573  0.00  0.00    +0.030 A 
ATOM      7  C   LIG    1       -5.753   9.091   4.470  0.00  0.00    +0.030 A 
ATOM      8  C   LIG    1       -6.265   7.852   4.133  0.00  0.00    +0.010 A 
ATOM      9  C   LIG    1       -5.981   7.292   2.894  0.00  0.00    +0.140 A 
ATOM     10  C   LIG    1       -5.192   7.981   1.986  0.00  0.00    +0.080 A 
BRANCH   5  13
ATOM     11  C   LIG    1       -2.927  12.058   0.484  0.00  0.00    +0.300 C 
ATOM     12  N   LIG    1       -3.848  11.322   1.355  0.00  0.00    -0.620 N 
ATOM     13  C   LIG    1       -3.838   9.975   1.361  0.00  0.00    +0.560 C 
ATOM     14  O   LIG    1       -3.137   9.369   0.574  0.00  0.00    -0.520 OA
ATOM     15  C   LIG    1       -4.779  12.052   2.219  0.00  0.00    +0.280 C 
ENDBRANCH   5  13
ENDBRANCH   1   9
BRANCH   3  16
ATOM     16  C   LIG    1       -6.279   3.795   1.532  0.00  0.00    +0.140 C 
BRANCH  16  17
ATOM     17  C   LIG    1       -5.288   3.058   0.668  0.00  0.00    -0.050 A 
ATOM     18  C   LIG    1       -5.397   3.117  -0.709  0.00  0.00    +0.050 A 
ATOM     19  C   LIG    1       -4.490   2.442  -1.509  0.00  0.00    -0.030 A 
ATOM     20  C   LIG    1       -3.473   1.707  -0.923  0.00  0.00    +0.080 A 
ATOM     21  O   LIG    1       -2.573   1.036  -1.700  0.00  0.00    -0.310 OA
ATOM     22  C   LIG    1       -1.234   1.536  -1.678  0.00  0.00    +0.230 C 
ATOM     23  C   LIG    1       -0.466   0.970  -0.494  0.00  0.00    -0.010 C 
ATOM     24  C   LIG    1       -1.038   1.429   0.838  0.00  0.00    +0.230 C 
ATOM     25  O   LIG    1       -2.358   0.920   1.026  0.00  0.00    -0.310 OA
ATOM     26  C   LIG    1       -3.364   1.648   0.459  0.00  0.00    +0.080 A 
ATOM     27 CL   LIG    1       -4.628   2.517  -3.238  0.00  0.00    -0.050 Cl
ATOM     28  C   LIG    1       -4.272   2.324   1.256  0.00  0.00    +0.040 A 
ENDBRANCH  16  17
ENDBRANCH   3  16
TORSDOF 4
