REMARK  Name = ZINCpk00000kASrB.0
REMARK                            x       y       z     vdW  Elec       q    Type
REMARK                         _______ _______ _______ _____ _____    ______ ____
ROOT
ATOM      1  C   LIG    1       -1.305  -1.837  -0.011  0.00  0.00    +0.070 C 
ATOM      2  C   LIG    1       -0.120  -2.798   0.098  0.00  0.00    +0.240 C 
ATOM      3  C   LIG    1       -0.332  -3.987  -0.845  0.00  0.00    +0.170 C 
ATOM      4  N   LIG    1        0.875  -4.824  -0.852  0.00  0.00    -0.530 NA
ATOM      5  C   LIG    1        2.031  -4.087  -1.379  0.00  0.00    +0.180 C 
ATOM      6  C   LIG    1        2.339  -2.904  -0.464  0.00  0.00    +0.290 C 
ATOM      7  N   LIG    1        1.116  -2.104  -0.295  0.00  0.00    -0.580 N 
ENDROOT
BRANCH   7   8
ATOM      8  C   LIG    1        1.126  -0.730  -0.509  0.00  0.00    +0.410 A 
ATOM      9  N   LIG    1        0.001  -0.057  -0.449  0.00  0.00    -0.330 NA
ATOM     10  N   LIG    1       -0.010   1.324  -0.660  0.00  0.00    -0.280 N 
ATOM     11  C   LIG    1       -0.982   2.260  -0.668  0.00  0.00    +0.410 A 
ATOM     12  N   LIG    1       -0.419   3.416  -0.922  0.00  0.00    -0.270 NA
ATOM     13  N   LIG    1        0.849   3.266  -1.084  0.00  0.00    -0.250 NA
ATOM     14  C   LIG    1        1.159   1.988  -0.932  0.00  0.00    +0.110 A 
ATOM     15  C   LIG    1        2.365   1.264  -0.998  0.00  0.00    +0.190 A 
ATOM     16  C   LIG    1        2.344  -0.078  -0.787  0.00  0.00    -0.030 A 
ENDBRANCH   7   8
BRANCH   4  17
ATOM     17  C   LIG    1        0.651  -6.064  -1.609  0.00  0.00    +0.240 C 
BRANCH  17  18
ATOM     18  C   LIG    1        1.812  -7.000  -1.392  0.00  0.00    -0.110 A 
ATOM     19  C   LIG    1        2.814  -7.120  -2.340  0.00  0.00    +0.040 A 
ATOM     20  C   LIG    1        3.867  -7.986  -2.105  0.00  0.00    +0.110 A 
ATOM     21  N   LIG    1        3.921  -8.703  -0.999  0.00  0.00    -0.430 NA
ATOM     22  C   LIG    1        2.985  -8.623  -0.074  0.00  0.00    +0.210 A 
ATOM     23 CL   LIG    1        5.132  -8.136  -3.285  0.00  0.00    -0.040 Cl
ATOM     24  C   LIG    1        1.900  -7.772  -0.235  0.00  0.00    +0.200 A 
BRANCH  24  25
ATOM     25  N   LIG    1        0.910  -7.690   0.748  0.00  0.00    -0.850 N 
ATOM     26  H   LIG    1        0.978  -8.231   1.551  0.00  0.00    +0.400 HD
ATOM     27  H   LIG    1        0.155  -7.093   0.628  0.00  0.00    +0.400 HD
ENDBRANCH  24  25
ENDBRANCH  17  18
ENDBRANCH   4  17
TORSDOF 4
