REMARK  Name = ZINCpe000000UOgW.0
REMARK                            x       y       z     vdW  Elec       q    Type
REMARK                         _______ _______ _______ _____ _____    ______ ____
ROOT
ATOM      1  C   LIG    1        0.486  -6.632   4.812  0.00  0.00    +0.190 C 
ATOM      2  N   LIG    1        1.282  -5.957   3.777  0.00  0.00    -0.520 NA
ATOM      3  C   LIG    1        1.950  -6.935   2.905  0.00  0.00    +0.230 C 
ATOM      4  C   LIG    1        0.906  -7.928   2.395  0.00  0.00    +0.080 C 
ATOM      5  C   LIG    1       -0.272  -7.184   1.811  0.00  0.00    +0.170 A 
ATOM      6  N   LIG    1       -1.092  -7.853   1.028  0.00  0.00    -0.460 NA
ATOM      7  C   LIG    1       -2.163  -7.291   0.467  0.00  0.00    +0.140 A 
ATOM      8  C   LIG    1       -3.021  -8.032  -0.367  0.00  0.00    +0.050 A 
ATOM      9  C   LIG    1       -4.107  -7.430  -0.923  0.00  0.00    +0.040 A 
ATOM     10  C   LIG    1       -4.387  -6.087  -0.682  0.00  0.00    +0.030 A 
ATOM     11  C   LIG    1       -3.578  -5.338   0.119  0.00  0.00    +0.030 A 
ATOM     12  C   LIG    1       -2.452  -5.925   0.708  0.00  0.00    -0.070 A 
ATOM     13  C   LIG    1       -1.583  -5.185   1.547  0.00  0.00    -0.070 A 
ATOM     14  C   LIG    1       -0.480  -5.838   2.091  0.00  0.00    -0.130 A 
ATOM     15  C   LIG    1        0.447  -5.053   2.979  0.00  0.00    +0.270 C 
ENDROOT
BRANCH  13  16
ATOM     16  C   LIG    1       -1.837  -3.756   1.833  0.00  0.00    +0.570 C 
ATOM     17  N   LIG    1       -1.312  -2.805   1.035  0.00  0.00    -0.710 N 
ATOM     18  H   LIG    1       -0.767  -3.058   0.273  0.00  0.00    +0.400 HD
ATOM     19  O   LIG    1       -2.519  -3.439   2.788  0.00  0.00    -0.510 OA
BRANCH  17  20
ATOM     20  C   LIG    1       -1.563  -1.390   1.318  0.00  0.00    +0.250 C 
ATOM     21  C   LIG    1       -0.466  -0.821   2.252  0.00  0.00    +0.050 C 
ATOM     22  C   LIG    1        0.700  -0.530   1.273  0.00  0.00    +0.140 C 
ATOM     23  C   LIG    1        0.002  -0.004   0.002  0.00  0.00    +0.130 C 
ATOM     24  C   LIG    1       -1.436  -0.551   0.030  0.00  0.00    +0.070 C 
BRANCH  23  25
ATOM     25  O   LIG    1       -0.017   1.425   0.010  0.00  0.00    -0.550 OA
ATOM     26  H   LIG    1        0.861   1.830   0.004  0.00  0.00    +0.380 HD
ENDBRANCH  23  25
BRANCH  22  27
ATOM     27  O   LIG    1        1.571   0.465   1.814  0.00  0.00    -0.550 OA
ATOM     28  H   LIG    1        2.286   0.728   1.218  0.00  0.00    +0.380 HD
ENDBRANCH  22  27
ENDBRANCH  17  20
ENDBRANCH  13  16
TORSDOF 4
