REMARK  Name = ZINCpe000000SBaN.0
REMARK                            x       y       z     vdW  Elec       q    Type
REMARK                         _______ _______ _______ _____ _____    ______ ____
ROOT
ATOM      1  C   LIG    1       -0.047   1.107  -2.471  0.00  0.00    +0.520 C 
ATOM      2  N   LIG    1       -0.524   1.433  -3.689  0.00  0.00    -0.720 N 
ATOM      3  H   LIG    1       -1.321   1.980  -3.768  0.00  0.00    +0.410 HD
ATOM      4  O   LIG    1        0.949   0.422  -2.373  0.00  0.00    -0.540 OA
ENDROOT
BRANCH   2   5
ATOM      5  C   LIG    1        0.162   0.960  -4.895  0.00  0.00    +0.280 C 
ATOM      6  C   LIG    1        1.298   1.929  -5.300  0.00  0.00    +0.240 C 
ATOM      7  O   LIG    1        1.244   1.899  -6.737  0.00  0.00    -0.300 OA
ATOM      8  C   LIG    1       -0.024   1.605  -7.133  0.00  0.00    +0.120 A 
ATOM      9  C   LIG    1       -0.641   1.798  -8.367  0.00  0.00    -0.100 A 
ATOM     10  C   LIG    1        0.126   2.429  -9.500  0.00  0.00    +0.100 C 
ATOM     11  C   LIG    1       -1.953   1.414  -8.555  0.00  0.00    -0.040 A 
ATOM     12  C   LIG    1       -2.611   1.627  -9.894  0.00  0.00    +0.100 C 
ATOM     13  C   LIG    1       -2.666   0.834  -7.523  0.00  0.00    -0.020 A 
ATOM     14  C   LIG    1       -2.062   0.642  -6.293  0.00  0.00    +0.070 A 
ATOM     15  C   LIG    1       -0.754   1.029  -6.101  0.00  0.00    -0.200 A 
ENDBRANCH   2   5
BRANCH   1  16
ATOM     16  C   LIG    1       -0.753   1.593  -1.232  0.00  0.00    +0.080 C 
BRANCH  16  17
ATOM     17  C   LIG    1       -0.013   1.086   0.008  0.00  0.00    +0.070 C 
BRANCH  17  20
ATOM     18  N   LIG    1       -0.242   1.246   2.466  0.00  0.00    -0.730 N 
ATOM     19  H   LIG    1        0.555   0.699   2.544  0.00  0.00    +0.410 HD
ATOM     20  C   LIG    1       -0.718   1.572   1.248  0.00  0.00    +0.520 C 
ATOM     21  O   LIG    1       -1.714   2.256   1.150  0.00  0.00    -0.540 OA
BRANCH  18  22
ATOM     22  C   LIG    1       -0.927   1.718   3.671  0.00  0.00    +0.270 C 
BRANCH  22  23
ATOM     23  C   LIG    1       -0.187   1.212   4.911  0.00  0.00    +0.270 C 
BRANCH  23  26
ATOM     24  C   LIG    1       -1.102   1.844   8.574  0.00  0.00    +0.100 C 
ATOM     25  C   LIG    1       -0.397   1.358   7.334  0.00  0.00    +0.510 C 
ATOM     26  N   LIG    1       -0.873   1.684   6.116  0.00  0.00    -0.730 N 
ATOM     27  H   LIG    1       -1.670   2.231   6.037  0.00  0.00    +0.400 HD
ATOM     28  O   LIG    1        0.600   0.674   7.432  0.00  0.00    -0.540 OA
ENDBRANCH  23  26
ENDBRANCH  22  23
ENDBRANCH  18  22
ENDBRANCH  17  20
ENDBRANCH  16  17
ENDBRANCH   1  16
TORSDOF 7
