REMARK  Name = ZINCrD000000ArtS.0
REMARK                            x       y       z     vdW  Elec       q    Type
REMARK                         _______ _______ _______ _____ _____    ______ ____
ROOT
ATOM      1  O   LIG    1        0.381  -2.713   0.141  0.00  0.00    -0.490 OA
ATOM      2  C   LIG    1       -0.699  -2.162   0.110  0.00  0.00    +0.520 C 
ATOM      3  N   LIG    1       -0.768  -0.816   0.096  0.00  0.00    -0.670 N 
ATOM      4  H   LIG    1       -1.631  -0.374   0.137  0.00  0.00    +0.410 HD
ENDROOT
BRANCH   3   5
ATOM      5  C   LIG    1        0.405  -0.056   0.024  0.00  0.00    +0.170 A 
ATOM      6  C   LIG    1        1.558  -0.495   0.661  0.00  0.00    +0.000 A 
ATOM      7  C   LIG    1        2.716   0.255   0.590  0.00  0.00    +0.060 A 
ATOM      8  C   LIG    1        2.732   1.443  -0.115  0.00  0.00    -0.040 A 
ATOM      9  C   LIG    1        1.581   1.888  -0.755  0.00  0.00    +0.180 A 
ATOM     10  C   LIG    1        0.416   1.137  -0.685  0.00  0.00    -0.020 A 
BRANCH   9  11
ATOM     11  N   LIG    1        1.597   3.091  -1.469  0.00  0.00    -0.560 N 
ATOM     12  C   LIG    1        2.799   3.902  -1.698  0.00  0.00    +0.260 C 
ATOM     13  C   LIG    1        2.436   4.853  -2.862  0.00  0.00    +0.060 C 
ATOM     14  C   LIG    1        0.898   4.941  -2.728  0.00  0.00    +0.070 C 
ATOM     15  C   LIG    1        0.513   3.655  -2.029  0.00  0.00    +0.520 C 
ATOM     16  O   LIG    1       -0.610   3.200  -1.981  0.00  0.00    -0.510 OA
ENDBRANCH   9  11
ENDBRANCH   3   5
BRANCH   2  17
ATOM     17  C   LIG    1       -1.963  -2.981   0.087  0.00  0.00    +0.240 C 
BRANCH  17  18
ATOM     18  O   LIG    1       -1.631  -4.371   0.108  0.00  0.00    -0.270 OA
BRANCH  18  19
ATOM     19  C   LIG    1       -2.664  -5.253   0.091  0.00  0.00    +0.160 A 
ATOM     20  C   LIG    1       -3.952  -4.800   0.061  0.00  0.00    -0.070 A 
ATOM     21  C   LIG    1       -5.024  -5.689   0.040  0.00  0.00    +0.060 A 
ATOM     22  C   LIG    1       -4.818  -7.035   0.057  0.00  0.00    -0.010 A 
ATOM     23  C   LIG    1       -3.508  -7.539   0.092  0.00  0.00    -0.070 A 
ATOM     24  C   LIG    1       -3.255  -8.923   0.111  0.00  0.00    +0.070 A 
ATOM     25  C   LIG    1       -1.955  -9.341   0.145  0.00  0.00    -0.020 A 
ATOM     26  C   LIG    1       -0.924  -8.404   0.161  0.00  0.00    +0.280 A 
ATOM     27  N   LIG    1       -1.164  -7.115   0.144  0.00  0.00    -0.450 NA
ATOM     28  C   LIG    1       -2.412  -6.641   0.110  0.00  0.00    +0.110 A 
ENDBRANCH  18  19
ENDBRANCH  17  18
ENDBRANCH   2  17
TORSDOF 5
