REMARK  Name = ZINCqH0000033Mcn.0
REMARK                            x       y       z     vdW  Elec       q    Type
REMARK                         _______ _______ _______ _____ _____    ______ ____
ROOT
ATOM      1  C   LIG    1        4.989  -2.756  -0.031  0.00  0.00    +0.260 C 
ENDROOT
BRANCH   1   3
ATOM      2  C   LIG    1        3.693  -0.693   0.004  0.00  0.00    +0.560 C 
ATOM      3  N   LIG    1        3.711  -2.041  -0.013  0.00  0.00    -0.730 N 
ATOM      4  H   LIG    1        2.877  -2.537  -0.014  0.00  0.00    +0.400 HD
ATOM      5  O   LIG    1        4.738  -0.071   0.006  0.00  0.00    -0.520 OA
BRANCH   2  11
ATOM      6  C   LIG    1        2.383   1.429   0.040  0.00  0.00    +0.190 A 
ATOM      7  C   LIG    1        1.167   2.096   0.057  0.00  0.00    -0.080 A 
ATOM      8  C   LIG    1       -0.014   1.382   0.055  0.00  0.00    +0.080 A 
ATOM      9  C   LIG    1        0.004  -0.003   0.037  0.00  0.00    -0.040 A 
ATOM     10  C   LIG    1        1.203  -0.682   0.021  0.00  0.00    +0.080 A 
ATOM     11  C   LIG    1        2.406   0.028   0.022  0.00  0.00    -0.180 A 
BRANCH   6  12
ATOM     12  O   LIG    1        3.545   2.130   0.042  0.00  0.00    -0.280 OA
BRANCH  12  14
ATOM     13  C   LIG    1        4.846   4.167   0.060  0.00  0.00    +0.070 C 
ATOM     14  C   LIG    1        3.443   3.555   0.060  0.00  0.00    +0.170 C 
ENDBRANCH  12  14
ENDBRANCH   6  12
ENDBRANCH   2  11
ENDBRANCH   1   3
BRANCH   1  15
ATOM     15  C   LIG    1        4.729  -4.264  -0.048  0.00  0.00    +0.040 C 
BRANCH  15  16
ATOM     16  C   LIG    1        6.064  -5.012  -0.067  0.00  0.00    +0.060 C 
BRANCH  16  17
ATOM     17  C   LIG    1        5.807  -6.497  -0.084  0.00  0.00    +0.510 C 
ATOM     18  N   LIG    1        6.843  -7.359  -0.102  0.00  0.00    -0.670 N 
ATOM     19  H   LIG    1        7.750  -7.026  -0.185  0.00  0.00    +0.410 HD
ATOM     20  O   LIG    1        4.669  -6.916  -0.082  0.00  0.00    -0.520 OA
BRANCH  18  21
ATOM     21  C   LIG    1        6.610  -8.735  -0.002  0.00  0.00    +0.150 A 
ATOM     22  C   LIG    1        5.455  -9.202   0.613  0.00  0.00    +0.010 A 
ATOM     23  C   LIG    1        5.228 -10.561   0.710  0.00  0.00    +0.020 A 
ATOM     24  C   LIG    1        6.148 -11.456   0.197  0.00  0.00    -0.010 A 
ATOM     25  C   LIG    1        7.299 -10.994  -0.415  0.00  0.00    +0.030 A 
ATOM     26  C   LIG    1        7.529  -9.636  -0.521  0.00  0.00    -0.110 A 
BRANCH  26  27
ATOM     27  C   LIG    1        8.780  -9.134  -1.195  0.00  0.00    +0.060 C 
ATOM     28  C   LIG    1        9.857  -8.870  -0.140  0.00  0.00    +0.020 C 
ENDBRANCH  26  27
ENDBRANCH  18  21
ENDBRANCH  16  17
ENDBRANCH  15  16
ENDBRANCH   1  15
TORSDOF 9
