REMARK  Name = ZINCtV00001bB3nb.0
REMARK                            x       y       z     vdW  Elec       q    Type
REMARK                         _______ _______ _______ _____ _____    ______ ____
ROOT
ATOM      1  C   LIG    1       -1.234   3.144   0.030  0.00  0.00    -0.120 A 
ATOM      2  C   LIG    1       -1.217   1.748   0.017  0.00  0.00    +0.040 A 
ATOM      3  C   LIG    1       -0.013   1.076   0.008  0.00  0.00    +0.040 A 
ATOM      4  C   LIG    1        1.177   1.782   0.000  0.00  0.00    -0.060 A 
ATOM      5  C   LIG    1        1.167   3.166   0.008  0.00  0.00    +0.040 A 
ATOM      6  C   LIG    1       -0.030   3.850   0.023  0.00  0.00    +0.090 A 
ENDROOT
BRANCH   1   8
ATOM      7  O   LIG    1       -2.533   5.086   0.052  0.00  0.00    -0.490 OA
ATOM      8  C   LIG    1       -2.521   3.870   0.045  0.00  0.00    +0.580 C 
ATOM      9  N   LIG    1       -3.682   3.185   0.052  0.00  0.00    -0.580 N 
ATOM     10  H   LIG    1       -3.672   2.215   0.047  0.00  0.00    +0.380 HD
BRANCH   9  11
ATOM     11  N   LIG    1       -4.902   3.873   0.067  0.00  0.00    -0.190 NA
ATOM     12  C   LIG    1       -6.019   3.214   0.074  0.00  0.00    +0.210 C 
BRANCH  12  13
ATOM     13  C   LIG    1       -7.303   3.938   0.089  0.00  0.00    -0.030 A 
ATOM     14  C   LIG    1       -8.508   3.232   0.097  0.00  0.00    +0.050 A 
ATOM     15  C   LIG    1       -9.706   3.917   0.112  0.00  0.00    +0.020 A 
ATOM     16  C   LIG    1       -9.716   5.300   0.119  0.00  0.00    +0.030 A 
ATOM     17  C   LIG    1       -8.527   6.008   0.112  0.00  0.00    +0.040 A 
ATOM     18  C   LIG    1       -7.321   5.336   0.103  0.00  0.00    -0.070 A 
ATOM     19 BR   LIG    1       -5.697   6.305   0.101  0.00  0.00    +0.010 Br
ENDBRANCH  12  13
ENDBRANCH   9  11
ENDBRANCH   1   8
BRANCH   4  20
ATOM     20  C   LIG    1        2.489   1.042  -0.016  0.00  0.00    +0.150 C 
BRANCH  20  21
ATOM     21  S   LIG    1        2.999   0.754  -1.728  0.00  0.00    +0.020 S 
BRANCH  21  22
ATOM     22  C   LIG    1        4.515  -0.102  -1.457  0.00  0.00    +0.080 A 
ATOM     23  N   LIG    1        5.009  -0.375  -0.297  0.00  0.00    -0.470 NA
ATOM     24  C   LIG    1        6.180  -1.042  -0.252  0.00  0.00    +0.090 A 
ATOM     25  C   LIG    1        6.916  -1.456   0.877  0.00  0.00    +0.070 A 
ATOM     26  C   LIG    1        8.104  -2.126   0.724  0.00  0.00    +0.040 A 
ATOM     27  C   LIG    1        8.600  -2.406  -0.540  0.00  0.00    +0.040 A 
ATOM     28  C   LIG    1        7.897  -2.011  -1.658  0.00  0.00    +0.060 A 
ATOM     29  C   LIG    1        6.690  -1.330  -1.522  0.00  0.00    -0.170 A 
ATOM     30  S   LIG    1        5.572  -0.699  -2.728  0.00  0.00    +0.110 S 
ENDBRANCH  21  22
ENDBRANCH  20  21
ENDBRANCH   4  20
TORSDOF 6
