REMARK  Name = ZINCvU0000000F3L.0
REMARK                            x       y       z     vdW  Elec       q    Type
REMARK                         _______ _______ _______ _____ _____    ______ ____
ROOT
ATOM      1  C   LIG    1        5.831  -1.792   0.214  0.00  0.00    +0.240 C 
ATOM      2  N   LIG    1        4.554  -1.750  -0.059  0.00  0.00    -0.420 NA
ATOM      3  C   LIG    1        3.919  -0.547  -0.033  0.00  0.00    +0.360 A 
ATOM      4  N   LIG    1        2.642  -0.269  -0.023  0.00  0.00    -0.430 NA
ATOM      5  C   LIG    1        2.481   1.070  -0.015  0.00  0.00    +0.040 A 
ATOM      6  C   LIG    1        3.717   1.648  -0.029  0.00  0.00    +0.180 A 
ATOM      7  N   LIG    1        4.620   0.637  -0.040  0.00  0.00    -0.480 N 
ATOM      8  C   LIG    1        6.085   0.682  -0.068  0.00  0.00    +0.310 C 
ATOM      9  C   LIG    1        6.610  -0.577   0.631  0.00  0.00    +0.090 C 
ENDROOT
BRANCH   1  13
ATOM     10  C   LIG    1        7.858  -5.506  -0.090  0.00  0.00    +0.160 A 
ATOM     11  C   LIG    1        6.499  -5.433  -0.375  0.00  0.00    -0.020 A 
ATOM     12  C   LIG    1        5.837  -4.230  -0.278  0.00  0.00    +0.130 A 
ATOM     13  C   LIG    1        6.533  -3.079   0.109  0.00  0.00    -0.110 A 
ATOM     14  C   LIG    1        7.903  -3.157   0.389  0.00  0.00    +0.090 A 
ATOM     15  C   LIG    1        8.555  -4.366   0.294  0.00  0.00    -0.080 A 
BRANCH  10  17
ATOM     16  C   LIG    1        9.902  -6.699   0.119  0.00  0.00    +0.240 C 
ATOM     17  O   LIG    1        8.506  -6.694  -0.187  0.00  0.00    -0.310 OA
ENDBRANCH  10  17
ENDBRANCH   1  13
BRANCH   5  18
ATOM     18  C   LIG    1        1.184   1.790   0.000  0.00  0.00    -0.000 A 
ATOM     19  C   LIG    1       -0.013   1.076   0.008  0.00  0.00    +0.040 A 
ATOM     20  C   LIG    1       -1.216   1.751   0.017  0.00  0.00    +0.000 A 
ATOM     21  C   LIG    1       -1.236   3.134   0.029  0.00  0.00    +0.000 A 
ATOM     22  C   LIG    1       -0.052   3.848   0.022  0.00  0.00    +0.000 A 
ATOM     23  C   LIG    1        1.158   3.184   0.008  0.00  0.00    +0.010 A 
ENDBRANCH   5  18
BRANCH   8  24
ATOM     24  C   LIG    1        6.567   0.711  -1.495  0.00  0.00    -0.160 A 
ATOM     25  C   LIG    1        6.256  -0.331  -2.349  0.00  0.00    +0.070 A 
ATOM     26  C   LIG    1        6.692  -0.304  -3.660  0.00  0.00    -0.070 A 
ATOM     27  C   LIG    1        7.451   0.763  -4.116  0.00  0.00    +0.140 A 
ATOM     28  C   LIG    1        7.766   1.805  -3.255  0.00  0.00    -0.010 A 
ATOM     29  C   LIG    1        7.323   1.776  -1.947  0.00  0.00    +0.070 A 
BRANCH  27  30
ATOM     30  O   LIG    1        7.886   0.790  -5.403  0.00  0.00    -0.310 OA
ATOM     31  C   LIG    1        7.524  -0.316  -6.233  0.00  0.00    +0.240 C 
ENDBRANCH  27  30
ENDBRANCH   8  24
TORSDOF 5
