REMARK  Name = ZINCqH0000037yGx.0
REMARK                            x       y       z     vdW  Elec       q    Type
REMARK                         _______ _______ _______ _____ _____    ______ ____
ROOT
ATOM      1  C   LIG    1        2.480   1.057  -0.015  0.00  0.00    +0.570 C 
ATOM      2  N   LIG    1        2.490  -0.290  -0.021  0.00  0.00    -0.730 N 
ATOM      3  H   LIG    1        1.653  -0.782  -0.016  0.00  0.00    +0.400 HD
ATOM      4  O   LIG    1        3.528   1.673  -0.022  0.00  0.00    -0.540 OA
ENDROOT
BRANCH   1  10
ATOM      5  C   LIG    1       -2.573   6.578   0.062  0.00  0.00    +0.150 C 
ATOM      6  C   LIG    1       -1.751   5.315   0.046  0.00  0.00    +0.070 A 
ATOM      7  C   LIG    1       -0.410   5.269   0.033  0.00  0.00    -0.160 A 
ATOM      8  C   LIG    1       -0.031   3.853   0.022  0.00  0.00    -0.110 A 
ATOM      9  C   LIG    1        1.186   3.178   0.007  0.00  0.00    +0.140 A 
ATOM     10  C   LIG    1        1.196   1.786   0.000  0.00  0.00    -0.170 A 
ATOM     11  C   LIG    1       -0.013   1.076   0.008  0.00  0.00    +0.060 A 
ATOM     12  C   LIG    1       -1.206   1.734   0.017  0.00  0.00    +0.000 A 
ATOM     13  C   LIG    1       -1.239   3.127   0.030  0.00  0.00    +0.120 A 
ATOM     14  C   LIG    1        0.528   6.449   0.030  0.00  0.00    +0.130 C 
ATOM     15  N   LIG    1       -2.262   4.045   0.044  0.00  0.00    -0.590 N 
ATOM     16  H   LIG    1       -3.207   3.825   0.052  0.00  0.00    +0.420 HD
ENDBRANCH   1  10
BRANCH   2  17
ATOM     17  C   LIG    1        3.764  -1.014  -0.036  0.00  0.00    +0.340 C 
BRANCH  17  18
ATOM     18  C   LIG    1        3.499  -2.497  -0.041  0.00  0.00    -0.030 A 
ATOM     19  C   LIG    1        3.363  -3.190  -1.236  0.00  0.00    -0.050 A 
ATOM     20  C   LIG    1        3.121  -4.550  -1.204  0.00  0.00    +0.310 A 
ATOM     21  N   LIG    1        3.018  -5.192  -0.057  0.00  0.00    -0.540 NA
ATOM     22  C   LIG    1        3.141  -4.566   1.102  0.00  0.00    +0.320 A 
ATOM     23  C   LIG    1        3.391  -3.201   1.146  0.00  0.00    -0.020 A 
BRANCH  22  24
ATOM     24  O   LIG    1        3.027  -5.266   2.259  0.00  0.00    -0.290 OA
BRANCH  24  25
ATOM     25  C   LIG    1        2.776  -6.668   2.147  0.00  0.00    +0.220 C 
BRANCH  25  26
ATOM     26  C   LIG    1        2.679  -7.282   3.545  0.00  0.00    +0.400 C 
ATOM     27  F   LIG    1        1.634  -6.676   4.250  0.00  0.00    -0.200 F 
ATOM     28  F   LIG    1        3.883  -7.078   4.228  0.00  0.00    -0.200 F 
ENDBRANCH  25  26
ENDBRANCH  24  25
ENDBRANCH  22  24
ENDBRANCH  17  18
ENDBRANCH   2  17
TORSDOF 6
