REMARK  Name = ZINCqH0000007ygx.0
REMARK                            x       y       z     vdW  Elec       q    Type
REMARK                         _______ _______ _______ _____ _____    ______ ____
ROOT
ATOM      1  C   LIG    1        8.466  -0.087   0.370  0.00  0.00    +0.150 A 
ATOM      2  C   LIG    1        8.453   0.007  -1.014  0.00  0.00    -0.090 A 
ATOM      3  C   LIG    1        7.259   0.223  -1.680  0.00  0.00    +0.110 A 
ATOM      4  C   LIG    1        6.088   0.342  -0.963  0.00  0.00    -0.170 A 
ATOM      5  C   LIG    1        4.762   0.526  -1.673  0.00  0.00    +0.350 C 
ATOM      6  N   LIG    1        4.223   1.847  -1.333  0.00  0.00    -0.590 N 
ATOM      7  C   LIG    1        3.530   2.059  -0.061  0.00  0.00    +0.270 C 
ATOM      8  C   LIG    1        4.467   1.842   1.119  0.00  0.00    +0.220 C 
ATOM      9  O   LIG    1        4.954   0.495   1.123  0.00  0.00    -0.320 OA
ATOM     10  C   LIG    1        4.367   2.872  -2.196  0.00  0.00    +0.600 C 
ATOM     11  O   LIG    1        3.830   3.939  -1.968  0.00  0.00    -0.530 OA
ATOM     12  C   LIG    1        6.095   0.276   0.423  0.00  0.00    +0.140 A 
ATOM     13  C   LIG    1        7.289   0.047   1.090  0.00  0.00    -0.030 A 
ENDROOT
BRANCH  10  14
ATOM     14  C   LIG    1        5.173   2.699  -3.418  0.00  0.00    -0.070 A 
ATOM     15  C   LIG    1        5.305   3.595  -4.434  0.00  0.00    +0.250 A 
ATOM     16  O   LIG    1        6.126   3.042  -5.340  0.00  0.00    -0.190 OA
ATOM     17  C   LIG    1        6.486   1.829  -4.895  0.00  0.00    +0.210 A 
ATOM     18  N   LIG    1        5.922   1.610  -3.745  0.00  0.00    -0.460 NA
BRANCH  17  19
ATOM     19  C   LIG    1        7.399   0.871  -5.615  0.00  0.00    +0.120 C 
ATOM     20  C   LIG    1        8.767   1.526  -5.819  0.00  0.00    +0.020 C 
ATOM     21  C   LIG    1        9.695   0.553  -6.550  0.00  0.00    +0.020 C 
ATOM     22  C   LIG    1        9.092   0.199  -7.910  0.00  0.00    +0.010 C 
ATOM     23  C   LIG    1        7.724  -0.456  -7.707  0.00  0.00    +0.020 C 
ATOM     24  C   LIG    1        6.796   0.516  -6.976  0.00  0.00    +0.020 C 
ENDBRANCH  17  19
ENDBRANCH  10  14
BRANCH   1  26
ATOM     25  C   LIG    1       10.813  -0.440   0.219  0.00  0.00    +0.250 C 
ATOM     26  O   LIG    1        9.638  -0.312   1.022  0.00  0.00    -0.320 OA
ENDBRANCH   1  26
TORSDOF 3
