REMARK  Name = ZINCwl0000000oTY.1
REMARK                            x       y       z     vdW  Elec       q    Type
REMARK                         _______ _______ _______ _____ _____    ______ ____
ROOT
ATOM      1  C   LIG    1       -1.684   7.242   2.566  0.00  0.00    +0.160 C 
ATOM      2  C   LIG    1       -3.004   6.524   2.677  0.00  0.00    -0.100 A 
ATOM      3  C   LIG    1       -4.043   7.097   3.349  0.00  0.00    +0.170 A 
ATOM      4  C   LIG    1       -5.264   6.417   3.445  0.00  0.00    +0.040 A 
ATOM      5  C   LIG    1       -5.407   5.199   2.876  0.00  0.00    +0.300 A 
ATOM      6  N   LIG    1       -4.374   4.615   2.205  0.00  0.00    -0.430 N 
ATOM      7  C   LIG    1       -4.551   3.392   1.657  0.00  0.00    +0.560 A 
ATOM      8  C   LIG    1       -3.461   2.791   0.977  0.00  0.00    -0.350 A 
ATOM      9  C   LIG    1       -2.254   3.520   0.859  0.00  0.00    +0.520 A 
ATOM     10  N   LIG    1       -1.207   2.984   0.146  0.00  0.00    -0.500 N 
ATOM     11  C   LIG    1       -1.152   1.601   0.026  0.00  0.00    +0.590 C 
ATOM     12  C   LIG    1       -2.441   0.885  -0.088  0.00  0.00    -0.300 C 
ATOM     13  N   LIG    1       -2.152   4.713   1.423  0.00  0.00    -0.550 NA
ATOM     14  C   LIG    1       -3.577   1.510   0.417  0.00  0.00    +0.330 C 
ATOM     15  O   LIG    1       -5.622   2.819   1.746  0.00  0.00    -0.470 OA
ATOM     16  C   LIG    1       -3.173   5.258   2.089  0.00  0.00    +0.450 A 
ENDROOT
BRANCH  12  17
ATOM     17  C   LIG    1       -2.519  -0.440  -0.713  0.00  0.00    +0.590 C 
ATOM     18  N   LIG    1       -3.717  -1.032  -0.890  0.00  0.00    -0.710 N 
ATOM     19  H   LIG    1       -4.532  -0.552  -0.674  0.00  0.00    +0.400 HD
ATOM     20  O   LIG    1       -1.503  -1.005  -1.071  0.00  0.00    -0.550 OA
BRANCH  18  21
ATOM     21  C   LIG    1       -3.789  -2.400  -1.409  0.00  0.00    +0.250 C 
ATOM     22  C   LIG    1       -3.743  -2.369  -2.938  0.00  0.00    +0.010 C 
ATOM     23  C   LIG    1       -3.818  -3.798  -3.479  0.00  0.00    +0.020 C 
ATOM     24  C   LIG    1       -5.124  -4.449  -3.022  0.00  0.00    +0.000 C 
ATOM     25  C   LIG    1       -5.171  -4.480  -1.493  0.00  0.00    +0.020 C 
ATOM     26  C   LIG    1       -5.096  -3.051  -0.951  0.00  0.00    +0.010 C 
ENDBRANCH  18  21
ENDBRANCH  12  17
BRANCH  11  27
ATOM     27  N   LIG    1       -0.011   0.959   0.020  0.00  0.00    -0.710 NA
ATOM     28  H   LIG    1        0.823   1.454   0.010  0.00  0.00    +0.430 HD
ATOM     29  H   LIG    1        0.000  -0.011   0.021  0.00  0.00    +0.460 HD
ENDBRANCH  11  27
BRANCH  10  30
ATOM     30  C   LIG    1       -0.190   3.842  -0.467  0.00  0.00    +0.340 C 
BRANCH  30  31
ATOM     31  C   LIG    1       -0.625   4.215  -1.886  0.00  0.00    +0.190 C 
BRANCH  31  32
ATOM     32  O   LIG    1       -1.809   5.013  -1.828  0.00  0.00    -0.380 OA
BRANCH  32  33
ATOM     33  C   LIG    1       -2.301   5.417  -3.107  0.00  0.00    +0.200 C 
BRANCH  33  34
ATOM     34  C   LIG    1       -3.564   6.262  -2.924  0.00  0.00    +0.200 C 
BRANCH  34  35
ATOM     35  O   LIG    1       -3.231   7.475  -2.247  0.00  0.00    -0.570 OA
ATOM     36  H   LIG    1       -3.985   8.061  -2.096  0.00  0.00    +0.380 HD
ENDBRANCH  34  35
ENDBRANCH  33  34
ENDBRANCH  32  33
ENDBRANCH  31  32
ENDBRANCH  30  31
ENDBRANCH  10  30
TORSDOF 9
