REMARK  Name = ZINCue00000003Op.1
REMARK                            x       y       z     vdW  Elec       q    Type
REMARK                         _______ _______ _______ _____ _____    ______ ____
ROOT
ATOM      1  N   LIG    1        2.585  -0.193  -0.069  0.00  0.00    -0.620 N 
ATOM      2  H   LIG    1        1.845  -0.588   0.419  0.00  0.00    +0.410 HD
ATOM      3  C   LIG    1        2.453   1.028  -0.623  0.00  0.00    +0.560 C 
ATOM      4  O   LIG    1        3.405   1.557  -1.164  0.00  0.00    -0.540 OA
ENDROOT
BRANCH   3   5
ATOM      5  C   LIG    1        1.155   1.722  -0.574  0.00  0.00    -0.200 A 
ATOM      6  C   LIG    1        1.008   2.967  -1.134  0.00  0.00    +0.360 A 
ATOM      7  N   LIG    1       -0.180   3.628  -1.099  0.00  0.00    -0.510 N 
ATOM      8  C   LIG    1       -0.172   4.976  -1.678  0.00  0.00    +0.340 C 
ATOM      9  C   LIG    1       -1.493   5.256  -2.402  0.00  0.00    -0.390 C 
ATOM     10  S   LIG    1       -2.826   5.047  -1.179  0.00  0.00    +2.550 S 
ATOM     11  N   LIG    1       -2.487   3.569  -0.519  0.00  0.00    -0.970 NA
ATOM     12  O   LIG    1       -2.672   5.962  -0.103  0.00  0.00    -0.960 OA
ATOM     13  O   LIG    1       -4.079   4.871  -1.825  0.00  0.00    -0.940 OA
ATOM     14  C   LIG    1       -1.283   3.045  -0.541  0.00  0.00    +0.520 A 
ATOM     15  C   LIG    1       -1.175   1.759   0.072  0.00  0.00    +0.010 A 
ATOM     16  C   LIG    1        0.001   1.097   0.075  0.00  0.00    +0.160 A 
ENDBRANCH   3   5
BRANCH   1  21
ATOM     17  C   LIG    1        6.186  -0.901  -0.327  0.00  0.00    -0.790 A 
ATOM     18  C   LIG    1        6.178  -2.277  -0.451  0.00  0.00    +0.130 A 
ATOM     19  C   LIG    1        4.980  -2.968  -0.449  0.00  0.00    -0.160 A 
ATOM     20  C   LIG    1        3.784  -2.281  -0.322  0.00  0.00    +0.300 A 
ATOM     21  C   LIG    1        3.792  -0.893  -0.197  0.00  0.00    -0.040 A 
ATOM     22  O   LIG    1        2.605  -2.959  -0.320  0.00  0.00    -0.700 OA
ATOM     23  C   LIG    1        4.997  -0.207  -0.205  0.00  0.00    +0.160 A 
BRANCH  17  24
ATOM     24  S   LIG    1        7.716  -0.027  -0.331  0.00  0.00    +2.700 S 
ATOM     25  O   LIG    1        8.710  -0.957   0.079  0.00  0.00    -0.980 OA
ATOM     26  O   LIG    1        7.478   1.202   0.341  0.00  0.00    -0.980 OA
BRANCH  24  27
ATOM     27  N   LIG    1        8.057   0.358  -1.905  0.00  0.00    -1.000 NA
BRANCH  27  29
ATOM     28  C   LIG    1        8.686   2.678  -2.354  0.00  0.00    -0.000 C 
ATOM     29  C   LIG    1        7.583   1.624  -2.468  0.00  0.00    +0.280 C 
ENDBRANCH  27  29
BRANCH  27  30
ATOM     30  C   LIG    1        8.834  -0.568  -2.734  0.00  0.00    +0.280 C 
ATOM     31  C   LIG    1        7.880  -1.452  -3.540  0.00  0.00    +0.010 C 
ENDBRANCH  27  30
ENDBRANCH  24  27
ENDBRANCH  17  24
ENDBRANCH   1  21
TORSDOF 6
