REMARK  Name = ZINCrD00000cR3JA.0
REMARK                            x       y       z     vdW  Elec       q    Type
REMARK                         _______ _______ _______ _____ _____    ______ ____
ROOT
ATOM      1  C   LIG    1       -0.064   1.832   2.576  0.00  0.00    +0.570 C 
ATOM      2  N   LIG    1       -0.316   2.152   1.292  0.00  0.00    -0.620 N 
ATOM      3  C   LIG    1       -1.572   2.686   0.752  0.00  0.00    +0.330 C 
ATOM      4  C   LIG    1       -1.386   2.890  -0.730  0.00  0.00    -0.100 A 
ATOM      5  C   LIG    1       -2.249   3.367  -1.700  0.00  0.00    +0.040 A 
ATOM      6  C   LIG    1       -1.832   3.460  -3.014  0.00  0.00    +0.040 A 
ATOM      7  C   LIG    1       -0.550   3.075  -3.360  0.00  0.00    -0.100 A 
ATOM      8  C   LIG    1        0.313   2.599  -2.392  0.00  0.00    +0.060 A 
ATOM      9  C   LIG    1       -0.105   2.506  -1.075  0.00  0.00    -0.100 A 
ATOM     10  C   LIG    1        0.613   2.031   0.163  0.00  0.00    +0.310 C 
ATOM     11  O   LIG    1        1.026   1.395   2.891  0.00  0.00    -0.530 OA
ENDROOT
BRANCH   1  13
ATOM     12  C   LIG    1       -0.904   1.579   4.839  0.00  0.00    -0.010 C 
ATOM     13  C   LIG    1       -1.107   2.012   3.598  0.00  0.00    -0.110 C 
BRANCH  12  15
ATOM     14  C   LIG    1        1.444   1.665   5.630  0.00  0.00    +0.040 C 
ATOM     15  C   LIG    1        0.312   0.750   5.158  0.00  0.00    +0.050 C 
ENDBRANCH  12  15
BRANCH  12  16
ATOM     16  C   LIG    1       -1.891   1.919   5.926  0.00  0.00    +0.060 C 
ATOM     17  C   LIG    1       -2.894   0.774   6.081  0.00  0.00    +0.030 C 
ENDBRANCH  12  16
ENDBRANCH   1  13
BRANCH   7  18
ATOM     18  C   LIG    1       -0.093   3.176  -4.793  0.00  0.00    +0.320 C 
BRANCH  18  19
ATOM     19  N   LIG    1        0.503   4.495  -5.023  0.00  0.00    -0.730 N 
ATOM     20  H   LIG    1        0.551   5.138  -4.300  0.00  0.00    +0.400 HD
ATOM     21  C   LIG    1        0.985   4.813  -6.241  0.00  0.00    +0.510 C 
ATOM     22  O   LIG    1        0.924   4.008  -7.146  0.00  0.00    -0.530 OA
BRANCH  21  23
ATOM     23  C   LIG    1        1.598   6.168  -6.479  0.00  0.00    +0.070 C 
BRANCH  23  24
ATOM     24  C   LIG    1        2.062   6.271  -7.933  0.00  0.00    -0.020 C 
ATOM     25  C   LIG    1        2.625   7.680  -8.223  0.00  0.00    +0.010 C 
ATOM     26  C   LIG    1        4.096   7.423  -8.619  0.00  0.00    +0.190 C 
ATOM     27  O   LIG    1        4.117   6.058  -9.091  0.00  0.00    -0.380 OA
ATOM     28  C   LIG    1        3.257   5.326  -8.188  0.00  0.00    +0.200 C 
ENDBRANCH  23  24
ENDBRANCH  21  23
ENDBRANCH  18  19
ENDBRANCH   7  18
TORSDOF 7
