REMARK  Name = ZINCpe00000MJLr9.0
REMARK                            x       y       z     vdW  Elec       q    Type
REMARK                         _______ _______ _______ _____ _____    ______ ____
ROOT
ATOM      1  S   LIG    1       -2.736   0.853   0.019  0.00  0.00    +2.700 S 
ATOM      2  O   LIG    1       -2.447  -0.423  -0.533  0.00  0.00    -0.950 OA
ATOM      3  O   LIG    1       -3.721   1.727  -0.515  0.00  0.00    -0.950 OA
ENDROOT
BRANCH   1   4
ATOM      4  N   LIG    1       -3.150   0.595   1.602  0.00  0.00    -1.000 NA
ATOM      5  C   LIG    1       -3.983   1.557   2.343  0.00  0.00    +0.300 C 
ATOM      6  C   LIG    1       -5.287   0.854   2.721  0.00  0.00    +0.120 C 
ATOM      7  C   LIG    1       -5.012  -0.506   3.301  0.00  0.00    -0.230 A 
ATOM      8  C   LIG    1       -3.849  -1.176   3.115  0.00  0.00    +0.160 A 
ATOM      9  N   LIG    1       -3.695  -2.396   3.651  0.00  0.00    -0.540 NA
ATOM     10  C   LIG    1       -4.629  -2.960   4.365  0.00  0.00    +0.580 A 
ATOM     11  N   LIG    1       -5.802  -2.339   4.600  0.00  0.00    -0.530 N 
ATOM     12  C   LIG    1       -6.830  -2.992   5.414  0.00  0.00    +0.340 C 
ATOM     13  C   LIG    1       -6.024  -1.114   4.082  0.00  0.00    +0.520 A 
ATOM     14  O   LIG    1       -7.081  -0.539   4.284  0.00  0.00    -0.530 OA
ATOM     15  C   LIG    1       -2.708  -0.605   2.321  0.00  0.00    +0.390 C 
ENDBRANCH   1   4
BRANCH   1  21
ATOM     16  C   LIG    1        3.527   2.717  -1.953  0.00  0.00    +0.040 C 
ATOM     17  C   LIG    1        3.345   2.643  -0.435  0.00  0.00    +0.190 C 
ATOM     18  C   LIG    1        2.620   1.337  -0.034  0.00  0.00    +0.090 C 
ATOM     19  C   LIG    1        1.170   1.781   0.000  0.00  0.00    -0.190 A 
ATOM     20  C   LIG    1       -0.013   1.076   0.008  0.00  0.00    +0.170 A 
ATOM     21  C   LIG    1       -1.220   1.752   0.017  0.00  0.00    -0.710 A 
ATOM     22  C   LIG    1       -1.233   3.134   0.031  0.00  0.00    +0.170 A 
ATOM     23  C   LIG    1       -0.049   3.842   0.027  0.00  0.00    -0.020 A 
ATOM     24  C   LIG    1        1.170   3.170   0.015  0.00  0.00    +0.170 A 
ATOM     25  O   LIG    1        2.439   3.663   0.020  0.00  0.00    -0.290 OA
ENDBRANCH   1  21
TORSDOF 2
