REMARK  Name = ZINCah0000002kXh.0
REMARK                            x       y       z     vdW  Elec       q    Type
REMARK                         _______ _______ _______ _____ _____    ______ ____
ROOT
ATOM      1  C   LIG    1       -1.726   2.196  -2.546  0.00  0.00    +0.200 C 
ATOM      2  C   LIG    1       -2.068   2.373  -1.089  0.00  0.00    +0.080 A 
ATOM      3  N   LIG    1       -3.125   2.956  -0.602  0.00  0.00    -0.330 NA
ATOM      4  O   LIG    1       -3.119   2.949   0.608  0.00  0.00    +0.120 OA
ATOM      5  C   LIG    1       -2.029   2.338   1.092  0.00  0.00    +0.070 A 
ATOM      6  C   LIG    1       -1.677   2.137   2.543  0.00  0.00    +0.220 C 
ATOM      7  C   LIG    1       -1.306   1.936   0.019  0.00  0.00    -0.170 A 
ENDROOT
BRANCH   7   8
ATOM      8  N   LIG    1       -0.014   1.214   0.009  0.00  0.00    +0.050 N 
ATOM      9  O   LIG    1        1.032   1.837   0.002  0.00  0.00    -0.120 OA
ATOM     10  O   LIG    1        0.002  -0.004   0.002  0.00  0.00    -0.120 OA
ENDBRANCH   7   8
TORSDOF 1
