REMARK  Name = ZINCvU0000000BPV.0
REMARK                            x       y       z     vdW  Elec       q    Type
REMARK                         _______ _______ _______ _____ _____    ______ ____
ROOT
ATOM      1  C   LIG    1        0.368   3.431  -1.460  0.00  0.00    -0.010 C 
ATOM      2  C   LIG    1       -0.013   3.855  -0.040  0.00  0.00    +0.030 C 
ATOM      3  C   LIG    1        1.019   4.859   0.483  0.00  0.00    +0.280 C 
ATOM      4  N   LIG    1        1.123   5.971  -0.472  0.00  0.00    -0.610 N 
ATOM      5  C   LIG    1        1.397   5.667  -1.883  0.00  0.00    +0.280 C 
ATOM      6  C   LIG    1        0.971   7.245  -0.061  0.00  0.00    +0.550 C 
ATOM      7  O   LIG    1        1.010   8.154  -0.869  0.00  0.00    -0.540 OA
ATOM      8  C   LIG    1        0.360   4.654  -2.380  0.00  0.00    +0.050 C 
ENDROOT
BRANCH   1  10
ATOM      9  N   LIG    1       -0.675   1.188  -1.415  0.00  0.00    -0.610 N 
ATOM     10  C   LIG    1       -0.627   2.417  -1.966  0.00  0.00    +0.520 C 
ATOM     11  O   LIG    1       -1.384   2.708  -2.868  0.00  0.00    -0.520 OA
BRANCH   9  12
ATOM     12  C   LIG    1        0.172   0.868  -0.264  0.00  0.00    +0.280 C 
ATOM     13  C   LIG    1        1.039  -0.350  -0.592  0.00  0.00    +0.050 C 
BRANCH  12  14
ATOM     14  C   LIG    1       -0.696   0.559   0.929  0.00  0.00    -0.070 A 
ATOM     15  C   LIG    1       -2.040   0.285   0.753  0.00  0.00    +0.020 A 
ATOM     16  C   LIG    1       -2.836   0.002   1.847  0.00  0.00    +0.030 A 
ATOM     17  C   LIG    1       -2.290  -0.008   3.117  0.00  0.00    +0.020 A 
ATOM     18  C   LIG    1       -0.946   0.266   3.293  0.00  0.00    +0.050 A 
ATOM     19  C   LIG    1       -0.148   0.543   2.199  0.00  0.00    -0.090 A 
ATOM     20 BR   LIG    1        1.692   0.911   2.439  0.00  0.00    -0.040 Br
ENDBRANCH  12  14
ENDBRANCH   9  12
BRANCH   9  21
ATOM     21  C   LIG    1       -1.576   0.173  -1.967  0.00  0.00    +0.280 C 
BRANCH  21  23
ATOM     22  C   LIG    1       -1.871  -1.513  -3.787  0.00  0.00    +0.020 C 
ATOM     23  C   LIG    1       -0.895  -0.523  -3.148  0.00  0.00    +0.000 C 
ENDBRANCH  21  23
ENDBRANCH   9  21
ENDBRANCH   1  10
BRANCH   6  24
ATOM     24  C   LIG    1        0.759   7.536   1.359  0.00  0.00    -0.090 C 
ATOM     25  C   LIG    1        0.485   8.795   1.755  0.00  0.00    +0.130 C 
BRANCH  25  26
ATOM     26  C   LIG    1        0.272   9.088   3.182  0.00  0.00    -0.080 A 
ATOM     27  C   LIG    1        0.346   8.061   4.128  0.00  0.00    +0.030 A 
ATOM     28  C   LIG    1        0.151   8.344   5.464  0.00  0.00    +0.010 A 
ATOM     29  C   LIG    1       -0.130   9.638   5.867  0.00  0.00    +0.020 A 
ATOM     30  C   LIG    1       -0.210  10.659   4.935  0.00  0.00    +0.010 A 
ATOM     31  C   LIG    1       -0.011  10.393   3.597  0.00  0.00    +0.040 A 
ENDBRANCH  25  26
ENDBRANCH   6  24
TORSDOF 7
