REMARK  Name = ZINCrg00000aGqF9.0
REMARK                            x       y       z     vdW  Elec       q    Type
REMARK                         _______ _______ _______ _____ _____    ______ ____
ROOT
ATOM      1  C   LIG    1       -2.095  -2.295  -1.258  0.00  0.00    +0.200 C 
ATOM      2  N   LIG    1       -3.486  -2.759  -1.186  0.00  0.00    -0.540 NA
ATOM      3  C   LIG    1       -3.550  -4.225  -1.129  0.00  0.00    +0.170 C 
ATOM      4  C   LIG    1       -5.011  -4.674  -1.238  0.00  0.00    +0.280 C 
ATOM      5  N   LIG    1       -5.793  -3.977  -0.206  0.00  0.00    -0.610 N 
ATOM      6  C   LIG    1       -5.674  -2.514  -0.112  0.00  0.00    +0.300 C 
ATOM      7  C   LIG    1       -6.597  -4.661   0.632  0.00  0.00    +0.580 C 
ATOM      8  O   LIG    1       -7.304  -4.062   1.419  0.00  0.00    -0.520 OA
ATOM      9  C   LIG    1       -4.186  -2.150  -0.047  0.00  0.00    +0.130 C 
ENDROOT
BRANCH   7  10
ATOM     10  C   LIG    1       -6.620  -6.136   0.594  0.00  0.00    -0.230 A 
ATOM     11  C   LIG    1       -5.572  -6.854   1.147  0.00  0.00    +0.350 A 
ATOM     12  N   LIG    1       -5.545  -8.192   1.139  0.00  0.00    -0.480 N 
ATOM     13  H   LIG    1       -4.794  -8.659   1.536  0.00  0.00    +0.430 HD
ATOM     14  C   LIG    1       -6.569  -8.910   0.574  0.00  0.00    +0.250 A 
ATOM     15  N   LIG    1       -6.819 -10.197   0.417  0.00  0.00    -0.530 NA
ATOM     16  C   LIG    1       -7.980 -10.383  -0.213  0.00  0.00    +0.220 A 
ATOM     17  C   LIG    1       -8.566  -9.195  -0.509  0.00  0.00    -0.080 A 
ATOM     18  C   LIG    1       -7.700  -8.189  -0.025  0.00  0.00    -0.160 A 
ATOM     19  C   LIG    1       -7.706  -6.801   0.002  0.00  0.00    +0.200 A 
ENDBRANCH   7  10
BRANCH   9  20
ATOM     20  C   LIG    1       -4.030  -0.629  -0.105  0.00  0.00    +0.290 C 
BRANCH  20  21
ATOM     21  N   LIG    1       -4.474  -0.142  -1.414  0.00  0.00    -0.720 N 
ATOM     22  H   LIG    1       -4.732  -0.773  -2.104  0.00  0.00    +0.400 HD
ATOM     23  C   LIG    1       -4.522   1.182  -1.659  0.00  0.00    +0.590 C 
ATOM     24  O   LIG    1       -4.199   1.973  -0.793  0.00  0.00    -0.530 OA
BRANCH  23  25
ATOM     25  C   LIG    1       -4.966   1.669  -2.969  0.00  0.00    -0.060 A 
ATOM     26  C   LIG    1       -5.062   2.989  -3.358  0.00  0.00    +0.050 A 
ATOM     27  C   LIG    1       -5.529   2.995  -4.676  0.00  0.00    -0.070 A 
ATOM     28  C   LIG    1       -5.702   1.709  -5.062  0.00  0.00    +0.200 A 
ATOM     29  N   LIG    1       -5.360   0.893  -4.035  0.00  0.00    -0.540 N 
ATOM     30  H   LIG    1       -5.392  -0.076  -4.048  0.00  0.00    +0.420 HD
ENDBRANCH  23  25
ENDBRANCH  20  21
ENDBRANCH   9  20
TORSDOF 4
