REMARK  Name = ZINCrg00000aGqF9.1
REMARK                            x       y       z     vdW  Elec       q    Type
REMARK                         _______ _______ _______ _____ _____    ______ ____
ROOT
ATOM      1  C   LIG    1       -2.242  -1.587   0.138  0.00  0.00    +0.200 C 
ATOM      2  N   LIG    1       -3.507  -2.231  -0.241  0.00  0.00    -0.540 NA
ATOM      3  C   LIG    1       -3.374  -3.694  -0.238  0.00  0.00    +0.170 C 
ATOM      4  C   LIG    1       -4.651  -4.320  -0.809  0.00  0.00    +0.280 C 
ATOM      5  N   LIG    1       -5.804  -3.799  -0.059  0.00  0.00    -0.610 N 
ATOM      6  C   LIG    1       -5.930  -2.341   0.098  0.00  0.00    +0.300 C 
ATOM      7  C   LIG    1       -6.720  -4.633   0.469  0.00  0.00    +0.570 C 
ATOM      8  O   LIG    1       -7.708  -4.183   1.017  0.00  0.00    -0.530 OA
ATOM      9  C   LIG    1       -4.603  -1.793   0.634  0.00  0.00    +0.130 C 
ENDROOT
BRANCH   7  10
ATOM     10  C   LIG    1       -6.526  -6.094   0.383  0.00  0.00    -0.210 A 
ATOM     11  C   LIG    1       -6.739  -6.906   1.503  0.00  0.00    +0.360 A 
ATOM     12  N   LIG    1       -6.576  -8.208   1.445  0.00  0.00    -0.500 NA
ATOM     13  C   LIG    1       -6.191  -8.818   0.330  0.00  0.00    +0.300 A 
ATOM     14  N   LIG    1       -5.951 -10.132   0.018  0.00  0.00    -0.580 N 
ATOM     15  H   LIG    1       -6.037 -10.874   0.636  0.00  0.00    +0.420 HD
ATOM     16  C   LIG    1       -5.570 -10.243  -1.293  0.00  0.00    +0.250 A 
ATOM     17  C   LIG    1       -5.550  -9.031  -1.868  0.00  0.00    -0.030 A 
ATOM     18  C   LIG    1       -5.951  -8.067  -0.840  0.00  0.00    -0.160 A 
ATOM     19  C   LIG    1       -6.119  -6.685  -0.817  0.00  0.00    +0.140 A 
ENDBRANCH   7  10
BRANCH   9  20
ATOM     20  C   LIG    1       -4.655  -0.265   0.660  0.00  0.00    +0.290 C 
BRANCH  20  21
ATOM     21  N   LIG    1       -4.751   0.244  -0.711  0.00  0.00    -0.720 N 
ATOM     22  H   LIG    1       -4.698  -0.369  -1.460  0.00  0.00    +0.400 HD
ATOM     23  C   LIG    1       -4.913   1.564  -0.929  0.00  0.00    +0.590 C 
ATOM     24  O   LIG    1       -4.980   2.333   0.011  0.00  0.00    -0.530 OA
BRANCH  23  25
ATOM     25  C   LIG    1       -5.010   2.074  -2.301  0.00  0.00    -0.060 A 
ATOM     26  C   LIG    1       -5.172   3.392  -2.672  0.00  0.00    +0.050 A 
ATOM     27  C   LIG    1       -5.219   3.423  -4.069  0.00  0.00    -0.070 A 
ATOM     28  C   LIG    1       -5.082   2.152  -4.518  0.00  0.00    +0.190 A 
ATOM     29  N   LIG    1       -4.951   1.323  -3.454  0.00  0.00    -0.540 N 
ATOM     30  H   LIG    1       -4.838   0.361  -3.497  0.00  0.00    +0.420 HD
ENDBRANCH  23  25
ENDBRANCH  20  21
ENDBRANCH   9  20
TORSDOF 4
