REMARK  Name = ZINCpk00000y6yFV.0
REMARK                            x       y       z     vdW  Elec       q    Type
REMARK                         _______ _______ _______ _____ _____    ______ ____
ROOT
ATOM      1  C   LIG    1        1.497   1.877  -0.002  0.00  0.00    +0.280 C 
ATOM      2  C   LIG    1       -0.019   1.545   0.011  0.00  0.00    +0.030 C 
ATOM      3  C   LIG    1        0.002  -0.004   0.002  0.00  0.00    +0.290 C 
ATOM      4  N   LIG    1        1.153  -0.370   0.847  0.00  0.00    -0.610 N 
ATOM      5  C   LIG    1        1.308  -1.539   1.500  0.00  0.00    +0.620 C 
ATOM      6  O   LIG    1        2.303  -1.734   2.172  0.00  0.00    -0.540 OA
ATOM      7  C   LIG    1        2.105   0.750   0.860  0.00  0.00    +0.270 C 
ENDROOT
BRANCH   5   8
ATOM      8  C   LIG    1        0.271  -2.581   1.401  0.00  0.00    -0.070 A 
ATOM      9  C   LIG    1        0.299  -3.807   2.002  0.00  0.00    +0.230 A 
ATOM     10  N   LIG    1       -0.840  -4.439   1.652  0.00  0.00    -0.450 N 
ATOM     11  C   LIG    1       -1.276  -5.780   2.051  0.00  0.00    +0.290 C 
ATOM     12  C   LIG    1       -2.778  -5.913   1.780  0.00  0.00    +0.030 C 
ATOM     13  C   LIG    1       -3.080  -5.474   0.345  0.00  0.00    +0.030 C 
ATOM     14  C   LIG    1       -2.884  -3.957   0.228  0.00  0.00    +0.150 C 
ATOM     15  C   LIG    1       -1.547  -3.605   0.838  0.00  0.00    +0.210 A 
ATOM     16  N   LIG    1       -0.884  -2.499   0.690  0.00  0.00    -0.460 NA
ENDBRANCH   5   8
BRANCH   1  19
ATOM     17  C   LIG    1        2.084   5.349   0.803  0.00  0.00    +0.300 A 
ATOM     18  N   LIG    1        1.865   4.402  -0.079  0.00  0.00    -0.320 NA
ATOM     19  N   LIG    1        1.745   3.186   0.606  0.00  0.00    -0.360 N 
ATOM     20  C   LIG    1        1.893   3.433   1.925  0.00  0.00    +0.240 A 
ATOM     21  C   LIG    1        2.109   4.759   2.077  0.00  0.00    -0.090 A 
BRANCH  17  24
ATOM     22  C   LIG    1        2.671   9.047   1.226  0.00  0.00    +0.110 C 
ATOM     23  C   LIG    1        2.480   7.582   1.527  0.00  0.00    +0.520 C 
ATOM     24  N   LIG    1        2.261   6.711   0.523  0.00  0.00    -0.640 N 
ATOM     25  H   LIG    1        2.227   7.026  -0.394  0.00  0.00    +0.420 HD
ATOM     26  O   LIG    1        2.524   7.189   2.674  0.00  0.00    -0.520 OA
ENDBRANCH  17  24
ENDBRANCH   1  19
TORSDOF 3
