REMARK  Name = ZINCrH00000No54F.0
REMARK                            x       y       z     vdW  Elec       q    Type
REMARK                         _______ _______ _______ _____ _____    ______ ____
ROOT
ATOM      1  N   LIG    1       -2.458   3.822   0.045  0.00  0.00    -0.560 N 
ATOM      2  C   LIG    1       -2.477   5.166   0.153  0.00  0.00    +0.550 C 
ATOM      3  O   LIG    1       -1.434   5.791   0.147  0.00  0.00    -0.520 OA
ENDROOT
BRANCH   1   4
ATOM      4  C   LIG    1       -1.236   3.140   0.010  0.00  0.00    +0.120 A 
ATOM      5  C   LIG    1       -0.316   3.310   1.036  0.00  0.00    +0.070 A 
ATOM      6  C   LIG    1        0.891   2.641   0.998  0.00  0.00    +0.010 A 
ATOM      7  C   LIG    1        1.181   1.790  -0.059  0.00  0.00    +0.120 A 
ATOM      8  C   LIG    1        0.260   1.616  -1.082  0.00  0.00    -0.050 A 
ATOM      9  C   LIG    1       -0.946   2.288  -1.048  0.00  0.00    +0.040 A 
BRANCH   7  10
ATOM     10  O   LIG    1        2.367   1.127  -0.093  0.00  0.00    -0.310 OA
BRANCH  10  11
ATOM     11  C   LIG    1        2.599   0.268  -1.211  0.00  0.00    +0.380 C 
BRANCH  11  12
ATOM     12  C   LIG    1        3.923  -0.361  -1.080  0.00  0.00    +0.210 C 
ATOM     13  N   LIG    1        4.945  -0.847  -0.979  0.00  0.00    -0.390 NA
ENDBRANCH  11  12
ENDBRANCH  10  11
ENDBRANCH   7  10
ENDBRANCH   1   4
BRANCH   2  14
ATOM     14  C   LIG    1       -3.759   5.875   0.280  0.00  0.00    -0.100 C 
ATOM     15  C   LIG    1       -3.777   7.201   0.387  0.00  0.00    +0.160 C 
ENDBRANCH   2  14
BRANCH   1  16
ATOM     16  C   LIG    1       -3.716   3.076  -0.037  0.00  0.00    +0.340 C 
BRANCH  16  20
ATOM     17  C   LIG    1       -5.007   2.025   3.899  0.00  0.00    +0.140 A 
ATOM     18  C   LIG    1       -5.412   3.225   3.332  0.00  0.00    -0.020 A 
ATOM     19  C   LIG    1       -4.993   3.562   2.060  0.00  0.00    +0.060 A 
ATOM     20  C   LIG    1       -4.171   2.706   1.351  0.00  0.00    -0.150 A 
ATOM     21  C   LIG    1       -3.771   1.507   1.911  0.00  0.00    +0.060 A 
ATOM     22  C   LIG    1       -4.182   1.167   3.186  0.00  0.00    -0.080 A 
BRANCH  17  23
ATOM     23  O   LIG    1       -5.418   1.690   5.150  0.00  0.00    -0.310 OA
BRANCH  23  24
ATOM     24  C   LIG    1       -4.962   0.440   5.670  0.00  0.00    +0.200 C 
BRANCH  24  25
ATOM     25  C   LIG    1       -5.524   0.238   7.079  0.00  0.00    +0.190 C 
BRANCH  25  27
ATOM     26  C   LIG    1       -4.680  -2.078   8.041  0.00  0.00    +0.040 C 
ATOM     27  C   LIG    1       -5.054  -1.050   7.614  0.00  0.00    -0.200 C 
ENDBRANCH  25  27
ENDBRANCH  24  25
ENDBRANCH  23  24
ENDBRANCH  17  23
ENDBRANCH  16  20
ENDBRANCH   1  16
TORSDOF 11
