REMARK  Name = ZINCc70000001nXz.0
REMARK                            x       y       z     vdW  Elec       q    Type
REMARK                         _______ _______ _______ _____ _____    ______ ____
ROOT
ATOM      1  O   LIG    1       -0.779  -0.625   0.691  0.00  0.00    -0.530 OA
ATOM      2  C   LIG    1        0.002  -0.004   0.002  0.00  0.00    +0.520 C 
ATOM      3  N   LIG    1        0.889  -0.662  -0.771  0.00  0.00    -0.720 N 
ATOM      4  H   LIG    1        1.514  -0.165  -1.322  0.00  0.00    +0.400 HD
ENDROOT
BRANCH   2   5
ATOM      5  C   LIG    1       -0.018   1.503   0.010  0.00  0.00    +0.200 C 
ATOM      6  C   LIG    1       -0.770   2.018  -1.248  0.00  0.00    +0.130 C 
ATOM      7  S   LIG    1       -1.177   3.727  -0.695  0.00  0.00    -0.290 S 
ATOM      8  C   LIG    1       -1.388   3.274   1.071  0.00  0.00    +0.320 C 
ATOM      9  N   LIG    1       -0.705   1.976   1.216  0.00  0.00    -0.680 NA
ATOM     10  H   LIG    1       -1.335   1.273   1.572  0.00  0.00    +0.370 HD
ENDBRANCH   2   5
BRANCH   3  11
ATOM     11  C   LIG    1        0.909  -2.127  -0.779  0.00  0.00    +0.300 C 
BRANCH  11  12
ATOM     12  C   LIG    1        2.000  -2.617  -1.733  0.00  0.00    -0.060 C 
ATOM     13  C   LIG    1        1.559  -3.417  -2.960  0.00  0.00    +0.020 C 
ATOM     14  C   LIG    1        2.259  -4.123  -1.796  0.00  0.00    +0.030 C 
ENDBRANCH  11  12
ENDBRANCH   3  11
TORSDOF 3
