REMARK  Name = ZINCrH000004r78F.0
REMARK                            x       y       z     vdW  Elec       q    Type
REMARK                         _______ _______ _______ _____ _____    ______ ____
ROOT
ATOM      1  C   LIG    1       -0.530   0.843  -0.274  0.00  0.00    +0.510 C 
ATOM      2  N   LIG    1        0.648   1.492  -0.354  0.00  0.00    -0.660 N 
ATOM      3  H   LIG    1        0.665   2.457  -0.445  0.00  0.00    +0.420 HD
ATOM      4  O   LIG    1       -0.555  -0.370  -0.262  0.00  0.00    -0.520 OA
ENDROOT
BRANCH   2   5
ATOM      5  C   LIG    1        1.849   0.771  -0.307  0.00  0.00    +0.180 A 
ATOM      6  C   LIG    1        1.891  -0.472   0.305  0.00  0.00    +0.020 A 
ATOM      7  C   LIG    1        3.075  -1.184   0.345  0.00  0.00    +0.030 A 
ATOM      8  C   LIG    1        4.224  -0.654  -0.212  0.00  0.00    -0.010 A 
ATOM      9  C   LIG    1        4.194   0.588  -0.820  0.00  0.00    -0.010 A 
ATOM     10  C   LIG    1        3.008   1.306  -0.870  0.00  0.00    +0.050 A 
BRANCH  10  11
ATOM     11  N   LIG    1        2.975   2.562  -1.484  0.00  0.00    -0.500 N 
ATOM     12  C   LIG    1        3.279   2.456  -2.918  0.00  0.00    +0.160 C 
ATOM     13  C   LIG    1        3.173   3.842  -3.561  0.00  0.00    +0.220 C 
ATOM     14  O   LIG    1        4.054   4.744  -2.886  0.00  0.00    -0.380 OA
ATOM     15  C   LIG    1        3.786   4.871  -1.487  0.00  0.00    +0.220 C 
ATOM     16  C   LIG    1        3.898   3.496  -0.823  0.00  0.00    +0.160 C 
ENDBRANCH  10  11
ENDBRANCH   2   5
BRANCH   1  17
ATOM     17  C   LIG    1       -1.818   1.624  -0.205  0.00  0.00    +0.080 C 
BRANCH  17  18
ATOM     18  C   LIG    1       -2.999   0.654  -0.128  0.00  0.00    +0.070 C 
BRANCH  18  19
ATOM     19  C   LIG    1       -4.286   1.435  -0.059  0.00  0.00    +0.400 C 
ATOM     20  O   LIG    1       -4.261   2.647  -0.071  0.00  0.00    -0.450 OA
BRANCH  19  26
ATOM     21  C   LIG    1       -6.846  -2.826   0.319  0.00  0.00    +0.090 C 
ATOM     22  C   LIG    1       -6.813  -1.324   0.205  0.00  0.00    -0.110 A 
ATOM     23  C   LIG    1       -7.996  -0.607   0.176  0.00  0.00    +0.050 A 
ATOM     24  C   LIG    1       -7.975   0.773   0.071  0.00  0.00    +0.000 A 
ATOM     25  C   LIG    1       -6.773   1.444  -0.000  0.00  0.00    -0.030 A 
ATOM     26  C   LIG    1       -5.573   0.727   0.022  0.00  0.00    -0.170 A 
ATOM     27  C   LIG    1       -6.753   2.947  -0.108  0.00  0.00    +0.100 C 
ATOM     28  C   LIG    1       -5.602  -0.667   0.129  0.00  0.00    +0.060 A 
ENDBRANCH  19  26
ENDBRANCH  18  19
ENDBRANCH  17  18
ENDBRANCH   1  17
TORSDOF 6
