REMARK  Name = ZINCrg000000plDJ.0
REMARK                            x       y       z     vdW  Elec       q    Type
REMARK                         _______ _______ _______ _____ _____    ______ ____
ROOT
ATOM      1  C   LIG    1        0.002  -0.004   0.002  0.00  0.00    +0.360 A 
ATOM      2  N   LIG    1        0.248   0.881  -0.958  0.00  0.00    -0.540 NA
ATOM      3  C   LIG    1        1.381   1.569  -0.965  0.00  0.00    +0.380 A 
ATOM      4  N   LIG    1        2.302   1.405  -0.027  0.00  0.00    -0.510 NA
ATOM      5  C   LIG    1        2.122   0.538   0.960  0.00  0.00    +0.170 A 
ATOM      6  C   LIG    1        3.004   0.170   2.132  0.00  0.00    +0.120 C 
ATOM      7  C   LIG    1        2.448  -1.175   2.650  0.00  0.00    +0.050 C 
ATOM      8  C   LIG    1        0.970  -1.114   2.206  0.00  0.00    +0.120 C 
ATOM      9  C   LIG    1        0.956  -0.199   1.004  0.00  0.00    -0.170 A 
ENDROOT
BRANCH   1  13
ATOM     10  C   LIG    1       -3.779  -1.562  -0.935  0.00  0.00    +0.240 C 
ATOM     11  C   LIG    1       -3.614  -0.664   0.294  0.00  0.00    +0.040 C 
ATOM     12  C   LIG    1       -2.340   0.170   0.144  0.00  0.00    +0.200 C 
ATOM     13  N   LIG    1       -1.182  -0.724   0.009  0.00  0.00    -0.480 N 
ATOM     14  C   LIG    1       -1.295  -1.562  -1.191  0.00  0.00    +0.200 C 
ATOM     15  C   LIG    1       -2.538  -2.448  -1.081  0.00  0.00    +0.020 C 
BRANCH  10  16
ATOM     16  N   LIG    1       -4.966  -2.404  -0.771  0.00  0.00    -1.120 NA
ATOM     17  H   LIG    1       -5.208  -2.735   0.108  0.00  0.00    +0.420 HD
BRANCH  16  18
ATOM     18  S   LIG    1       -5.894  -2.793  -2.086  0.00  0.00    +2.790 S 
ATOM     19  O   LIG    1       -6.136  -1.577  -2.780  0.00  0.00    -0.980 OA
ATOM     20  O   LIG    1       -6.934  -3.636  -1.609  0.00  0.00    -0.980 OA
BRANCH  18  22
ATOM     21  C   LIG    1       -4.505  -5.045  -2.646  0.00  0.00    +0.300 C 
ATOM     22  N   LIG    1       -4.960  -3.724  -3.087  0.00  0.00    -1.130 NA
ATOM     23  H   LIG    1       -4.714  -3.395  -3.966  0.00  0.00    +0.420 HD
ENDBRANCH  18  22
ENDBRANCH  16  18
ENDBRANCH  10  16
ENDBRANCH   1  13
BRANCH   3  24
ATOM     24  C   LIG    1        1.623   2.549  -2.052  0.00  0.00    -0.100 A 
ATOM     25  C   LIG    1        2.808   3.291  -2.088  0.00  0.00    +0.120 A 
ATOM     26  C   LIG    1        2.986   4.193  -3.123  0.00  0.00    -0.040 A 
ATOM     27  C   LIG    1        1.997   4.330  -4.079  0.00  0.00    +0.280 A 
ATOM     28  N   LIG    1        0.889   3.616  -4.019  0.00  0.00    -0.490 NA
ATOM     29  C   LIG    1        0.677   2.742  -3.057  0.00  0.00    +0.320 A 
ENDBRANCH   3  24
TORSDOF 5
