REMARK  Name = ZINCrg00000AxUXS.0
REMARK                            x       y       z     vdW  Elec       q    Type
REMARK                         _______ _______ _______ _____ _____    ______ ____
ROOT
ATOM      1  C   LIG    1        2.515   3.131   1.862  0.00  0.00    +0.550 C 
ATOM      2  N   LIG    1        3.678   2.521   1.562  0.00  0.00    -0.620 N 
ATOM      3  C   LIG    1        4.893   2.773   2.353  0.00  0.00    +0.250 C 
ATOM      4  C   LIG    1        5.496   1.423   2.757  0.00  0.00    +0.210 C 
ATOM      5  O   LIG    1        5.655   0.610   1.592  0.00  0.00    -0.370 OA
ATOM      6  C   LIG    1        4.429   0.289   0.930  0.00  0.00    +0.230 C 
ATOM      7  C   LIG    1        3.771   1.581   0.433  0.00  0.00    +0.190 C 
ATOM      8  O   LIG    1        1.504   2.852   1.246  0.00  0.00    -0.480 OA
ENDROOT
BRANCH   1  14
ATOM      9  C   LIG    1        4.652   6.886   4.353  0.00  0.00    +0.090 C 
ATOM     10  C   LIG    1        3.491   5.948   4.143  0.00  0.00    -0.100 A 
ATOM     11  C   LIG    1        2.379   6.032   4.964  0.00  0.00    +0.050 A 
ATOM     12  C   LIG    1        1.310   5.178   4.782  0.00  0.00    -0.010 A 
ATOM     13  C   LIG    1        1.344   4.227   3.773  0.00  0.00    +0.160 A 
ATOM     14  C   LIG    1        2.467   4.139   2.939  0.00  0.00    -0.160 A 
ATOM     15  C   LIG    1        3.544   5.006   3.138  0.00  0.00    +0.060 A 
BRANCH  13  16
ATOM     16  O   LIG    1        0.294   3.387   3.593  0.00  0.00    -0.480 OA
ATOM     17  H   LIG    1        0.358   2.565   4.098  0.00  0.00    +0.390 HD
ENDBRANCH  13  16
ENDBRANCH   1  14
BRANCH   7  18
ATOM     18  C   LIG    1        2.369   1.274  -0.099  0.00  0.00    +0.300 C 
BRANCH  18  19
ATOM     19  N   LIG    1        1.862   2.433  -0.838  0.00  0.00    -0.700 N 
ATOM     20  H   LIG    1        2.370   3.259  -0.852  0.00  0.00    +0.390 HD
ATOM     21  C   LIG    1        0.691   2.351  -1.499  0.00  0.00    +0.600 C 
ATOM     22  O   LIG    1        0.054   1.315  -1.481  0.00  0.00    -0.560 OA
BRANCH  21  23
ATOM     23  C   LIG    1        0.184   3.515  -2.248  0.00  0.00    -0.290 A 
ATOM     24  C   LIG    1       -0.990   3.576  -2.972  0.00  0.00    +0.160 A 
ATOM     25  N   LIG    1       -1.076   4.809  -3.496  0.00  0.00    -0.360 N 
ATOM     26  N   LIG    1        0.052   5.537  -3.103  0.00  0.00    -0.300 NA
ATOM     27  C   LIG    1       -2.166   5.307  -4.338  0.00  0.00    +0.350 C 
ATOM     28  C   LIG    1       -1.992   2.463  -3.142  0.00  0.00    +0.170 C 
ATOM     29  C   LIG    1        0.805   4.779  -2.355  0.00  0.00    +0.260 A 
ENDBRANCH  21  23
ENDBRANCH  18  19
ENDBRANCH   7  18
TORSDOF 5
