REMARK  Name = ZINCrg00000SjSD4.0
REMARK                            x       y       z     vdW  Elec       q    Type
REMARK                         _______ _______ _______ _____ _____    ______ ____
ROOT
ATOM      1  C   LIG    1       -2.966   4.651  -1.690  0.00  0.00    +0.520 C 
ATOM      2  N   LIG    1       -2.810   3.383  -1.259  0.00  0.00    -0.550 N 
ATOM      3  C   LIG    1       -1.491   2.728  -1.280  0.00  0.00    +0.280 C 
ATOM      4  C   LIG    1       -1.340   1.948   0.034  0.00  0.00    +0.170 C 
ATOM      5  O   LIG    1       -2.410   1.005   0.136  0.00  0.00    -0.280 OA
ATOM      6  C   LIG    1       -3.674   1.457  -0.075  0.00  0.00    +0.090 A 
ATOM      7  C   LIG    1       -4.752   0.732   0.409  0.00  0.00    +0.020 A 
ATOM      8  C   LIG    1       -6.041   1.183   0.196  0.00  0.00    +0.030 A 
ATOM      9  C   LIG    1       -6.263   2.356  -0.500  0.00  0.00    +0.010 A 
ATOM     10  C   LIG    1       -5.194   3.087  -0.986  0.00  0.00    +0.050 A 
ATOM     11  C   LIG    1       -3.900   2.641  -0.773  0.00  0.00    +0.070 A 
ATOM     12  O   LIG    1       -4.073   5.144  -1.735  0.00  0.00    -0.470 OA
ENDROOT
BRANCH   4  13
ATOM     13  C   LIG    1       -0.021   1.218   0.039  0.00  0.00    +0.530 C 
ATOM     14  O   LIG    1        0.000   0.005   0.030  0.00  0.00    -0.500 OA
ATOM     15  N   LIG    1        1.134   1.912   0.047  0.00  0.00    -0.850 N 
ATOM     16  H   LIG    1        1.116   2.882   0.054  0.00  0.00    +0.400 HD
ATOM     17  H   LIG    1        1.982   1.442   0.046  0.00  0.00    +0.410 HD
ENDBRANCH   4  13
BRANCH   1  18
ATOM     18  C   LIG    1       -1.765   5.455  -2.115  0.00  0.00    +0.230 C 
BRANCH  18  19
ATOM     19  O   LIG    1       -2.170   6.792  -2.417  0.00  0.00    -0.250 OA
BRANCH  19  26
ATOM     20  C   LIG    1       -1.526   8.979  -3.137  0.00  0.00    -0.160 A 
ATOM     21  C   LIG    1       -0.519   9.857  -3.545  0.00  0.00    +0.110 A 
ATOM     22  C   LIG    1        0.783   9.413  -3.643  0.00  0.00    -0.080 A 
ATOM     23  C   LIG    1        1.099   8.100  -3.332  0.00  0.00    +0.110 A 
ATOM     24  C   LIG    1        0.113   7.223  -2.921  0.00  0.00    -0.070 A 
ATOM     25 CL   LIG    1        2.032  10.504  -4.157  0.00  0.00    -0.060 Cl
ATOM     26  C   LIG    1       -1.201   7.653  -2.818  0.00  0.00    +0.190 A 
BRANCH  20  30
ATOM     27  N   LIG    1       -3.230  10.721  -3.343  0.00  0.00    -0.850 N 
ATOM     28  H   LIG    1       -4.147  11.028  -3.276  0.00  0.00    +0.410 HD
ATOM     29  H   LIG    1       -2.534  11.332  -3.630  0.00  0.00    +0.400 HD
ATOM     30  C   LIG    1       -2.922   9.445  -3.036  0.00  0.00    +0.560 C 
ATOM     31  O   LIG    1       -3.794   8.679  -2.676  0.00  0.00    -0.500 OA
ENDBRANCH  20  30
ENDBRANCH  19  26
ENDBRANCH  18  19
ENDBRANCH   1  18
TORSDOF 5
