REMARK  Name = ZINCrD00000l9373.0
REMARK                            x       y       z     vdW  Elec       q    Type
REMARK                         _______ _______ _______ _____ _____    ______ ____
ROOT
ATOM      1  N   LIG    1       -3.508   7.567   1.037  0.00  0.00    -0.510 NA
ATOM      2  C   LIG    1       -3.884   7.861  -0.352  0.00  0.00    +0.180 C 
ATOM      3  C   LIG    1       -2.874   7.208  -1.301  0.00  0.00    +0.300 C 
ATOM      4  N   LIG    1       -1.523   7.644  -0.917  0.00  0.00    -0.610 N 
ATOM      5  C   LIG    1       -1.119   7.502   0.490  0.00  0.00    +0.280 C 
ATOM      6  C   LIG    1       -0.675   8.156  -1.831  0.00  0.00    +0.560 C 
ATOM      7  O   LIG    1       -1.054   8.352  -2.969  0.00  0.00    -0.530 OA
ATOM      8  C   LIG    1       -2.201   8.149   1.370  0.00  0.00    +0.170 C 
ENDROOT
BRANCH   6   9
ATOM      9  C   LIG    1        0.716   8.478  -1.450  0.00  0.00    -0.130 A 
ATOM     10  C   LIG    1        1.376   7.709  -0.489  0.00  0.00    +0.070 A 
ATOM     11  C   LIG    1        2.674   8.014  -0.138  0.00  0.00    +0.020 A 
ATOM     12  C   LIG    1        3.323   9.082  -0.737  0.00  0.00    -0.010 A 
ATOM     13  C   LIG    1        2.672   9.851  -1.687  0.00  0.00    +0.020 A 
ATOM     14 CL   LIG    1        4.957   9.460  -0.289  0.00  0.00    -0.060 Cl
ATOM     15  C   LIG    1        1.376   9.552  -2.050  0.00  0.00    +0.090 A 
ENDBRANCH   6   9
BRANCH   1  17
ATOM     16  C   LIG    1       -4.923   9.473   1.640  0.00  0.00    +0.030 C 
ATOM     17  C   LIG    1       -4.543   8.028   1.972  0.00  0.00    +0.170 C 
BRANCH  17  18
ATOM     18  C   LIG    1       -5.761   7.148   1.847  0.00  0.00    +0.520 C 
ATOM     19  N   LIG    1       -6.788   7.293   2.708  0.00  0.00    -0.730 N 
ATOM     20  H   LIG    1       -6.744   7.964   3.407  0.00  0.00    +0.400 HD
ATOM     21  O   LIG    1       -5.816   6.309   0.973  0.00  0.00    -0.520 OA
BRANCH  19  22
ATOM     22  C   LIG    1       -7.971   6.438   2.587  0.00  0.00    +0.240 C 
ATOM     23  C   LIG    1       -8.916   7.040   1.527  0.00  0.00    +0.020 C 
ATOM     24  C   LIG    1       -9.836   5.954   1.036  0.00  0.00    +0.000 C 
ATOM     25  C   LIG    1      -11.174   5.927   1.798  0.00  0.00    +0.000 C 
ATOM     26  C   LIG    1      -11.003   6.138   3.315  0.00  0.00    +0.000 C 
ATOM     27  C   LIG    1       -9.827   5.383   3.872  0.00  0.00    +0.030 C 
ATOM     28  C   LIG    1       -8.605   6.323   3.892  0.00  0.00    +0.010 C 
ENDBRANCH  19  22
ENDBRANCH  17  18
ENDBRANCH   1  17
TORSDOF 4
