REMARK  Name = ZINCkj000005klV2.0
REMARK                            x       y       z     vdW  Elec       q    Type
REMARK                         _______ _______ _______ _____ _____    ______ ____
ROOT
ATOM      1  N   LIG    1       -1.138   0.745   1.444  0.00  0.00    -0.370 N 
ATOM      2  C   LIG    1       -0.398   0.104   0.349  0.00  0.00    +0.320 C 
ATOM      3  H   LIG    1       -0.790   1.682   1.582  0.00  0.00    +0.430 HD
ENDROOT
BRANCH   1   4
ATOM      4  C   LIG    1       -2.566   0.799   1.105  0.00  0.00    +0.270 C 
BRANCH   4   5
ATOM      5  C   LIG    1       -2.776   1.760  -0.068  0.00  0.00    -0.030 C 
ATOM      6  C   LIG    1       -2.142   1.171  -1.329  0.00  0.00    +0.050 C 
ATOM      7  C   LIG    1       -2.121   3.105   0.252  0.00  0.00    +0.060 C 
BRANCH   5  12
ATOM      8  C   LIG    1       -8.436   2.531  -0.938  0.00  0.00    +0.090 C 
ATOM      9  C   LIG    1       -6.960   2.330  -0.711  0.00  0.00    -0.070 A 
ATOM     10  C   LIG    1       -6.042   2.979  -1.516  0.00  0.00    +0.020 A 
ATOM     11  C   LIG    1       -4.688   2.794  -1.308  0.00  0.00    +0.030 A 
ATOM     12  C   LIG    1       -4.252   1.961  -0.294  0.00  0.00    -0.090 A 
ATOM     13  C   LIG    1       -5.170   1.308   0.507  0.00  0.00    +0.000 A 
ATOM     14  C   LIG    1       -6.524   1.496   0.302  0.00  0.00    +0.020 A 
ENDBRANCH   5  12
ENDBRANCH   4   5
ENDBRANCH   1   4
BRANCH   1  15
ATOM     15  C   LIG    1       -0.957  -0.031   2.678  0.00  0.00    +0.310 C 
BRANCH  15  16
ATOM     16  C   LIG    1        0.490   0.016   3.094  0.00  0.00    +0.510 C 
ATOM     17  N   LIG    1        0.894  -0.630   4.206  0.00  0.00    -0.680 N 
ATOM     18  H   LIG    1        0.252  -1.125   4.739  0.00  0.00    +0.420 HD
ATOM     19  C   LIG    1        2.189  -0.588   4.577  0.00  0.00    +0.700 C 
ATOM     20  O   LIG    1        2.992   0.033   3.910  0.00  0.00    -0.520 OA
ATOM     21  N   LIG    1        2.592  -1.234   5.689  0.00  0.00    -0.850 N 
ATOM     22  H   LIG    1        3.524  -1.203   5.957  0.00  0.00    +0.430 HD
ATOM     23  H   LIG    1        1.950  -1.729   6.222  0.00  0.00    +0.410 HD
ATOM     24  O   LIG    1        1.292   0.635   2.428  0.00  0.00    -0.450 OA
ENDBRANCH  15  16
ENDBRANCH   1  15
TORSDOF 5
