REMARK  Name = ZINCkj000005klV2.1
REMARK                            x       y       z     vdW  Elec       q    Type
REMARK                         _______ _______ _______ _____ _____    ______ ____
ROOT
ATOM      1  N   LIG    1        3.016   6.088  -0.595  0.00  0.00    -0.370 N 
ATOM      2  C   LIG    1        3.501   5.713  -1.929  0.00  0.00    +0.320 C 
ATOM      3  H   LIG    1        3.752   5.950   0.082  0.00  0.00    +0.430 HD
ENDROOT
BRANCH   1   4
ATOM      4  C   LIG    1        1.862   5.252  -0.240  0.00  0.00    +0.270 C 
BRANCH   4   5
ATOM      5  C   LIG    1        2.353   3.931   0.356  0.00  0.00    -0.030 C 
ATOM      6  C   LIG    1        3.325   3.263  -0.618  0.00  0.00    +0.060 C 
ATOM      7  C   LIG    1        3.065   4.203   1.682  0.00  0.00    +0.070 C 
BRANCH   5  12
ATOM      8  C   LIG    1       -2.157   0.433   1.262  0.00  0.00    +0.090 C 
ATOM      9  C   LIG    1       -0.981   1.347   1.028  0.00  0.00    -0.070 A 
ATOM     10  C   LIG    1        0.295   0.926   1.351  0.00  0.00    +0.020 A 
ATOM     11  C   LIG    1        1.374   1.762   1.132  0.00  0.00    +0.030 A 
ATOM     12  C   LIG    1        1.176   3.020   0.595  0.00  0.00    -0.090 A 
ATOM     13  C   LIG    1       -0.101   3.443   0.278  0.00  0.00    +0.000 A 
ATOM     14  C   LIG    1       -1.180   2.607   0.497  0.00  0.00    +0.020 A 
ENDBRANCH   5  12
ENDBRANCH   4   5
ENDBRANCH   1   4
BRANCH   1  15
ATOM     15  C   LIG    1        2.615   7.501  -0.599  0.00  0.00    +0.310 C 
BRANCH  15  16
ATOM     16  C   LIG    1        3.824   8.367  -0.842  0.00  0.00    +0.510 C 
ATOM     17  N   LIG    1        3.696   9.707  -0.887  0.00  0.00    -0.680 N 
ATOM     18  H   LIG    1        2.824  10.116  -0.764  0.00  0.00    +0.420 HD
ATOM     19  C   LIG    1        4.777  10.481  -1.105  0.00  0.00    +0.700 C 
ATOM     20  O   LIG    1        5.869   9.970  -1.259  0.00  0.00    -0.520 OA
ATOM     21  N   LIG    1        4.649  11.822  -1.151  0.00  0.00    -0.850 N 
ATOM     22  H   LIG    1        5.427  12.379  -1.307  0.00  0.00    +0.430 HD
ATOM     23  H   LIG    1        3.777  12.230  -1.027  0.00  0.00    +0.410 HD
ATOM     24  O   LIG    1        4.913   7.857  -0.996  0.00  0.00    -0.450 OA
ENDBRANCH  15  16
ENDBRANCH   1  15
TORSDOF 5
