REMARK  Name = ZINCpe00000MB60Z.0
REMARK                            x       y       z     vdW  Elec       q    Type
REMARK                         _______ _______ _______ _____ _____    ______ ____
ROOT
ATOM      1  C   LIG    1        0.954  -3.124   1.261  0.00  0.00    +0.450 A 
ATOM      2  C   LIG    1        0.987  -2.386   2.440  0.00  0.00    -0.160 A 
ATOM      3  C   LIG    1        0.851  -3.066   3.647  0.00  0.00    +0.390 A 
ATOM      4  N   LIG    1        0.694  -4.388   3.629  0.00  0.00    -0.550 NA
ATOM      5  C   LIG    1        0.668  -5.051   2.491  0.00  0.00    +0.540 A 
ATOM      6  N   LIG    1        0.789  -4.444   1.328  0.00  0.00    -0.580 NA
ENDROOT
BRANCH   3   7
ATOM      7  N   LIG    1        0.877  -2.376   4.849  0.00  0.00    -0.480 N 
ATOM      8  C   LIG    1        1.293  -3.261   5.958  0.00  0.00    +0.210 C 
ATOM      9  C   LIG    1        0.503  -2.751   7.189  0.00  0.00    +0.020 C 
ATOM     10  C   LIG    1       -0.858  -2.366   6.550  0.00  0.00    +0.030 C 
ATOM     11  C   LIG    1       -0.449  -1.817   5.167  0.00  0.00    +0.190 C 
BRANCH  11  12
ATOM     12  C   LIG    1       -1.465  -2.253   4.109  0.00  0.00    +0.160 C 
BRANCH  12  13
ATOM     13  O   LIG    1       -1.651  -3.668   4.182  0.00  0.00    -0.550 OA
ATOM     14  H   LIG    1       -2.283  -4.015   3.538  0.00  0.00    +0.370 HD
ENDBRANCH  12  13
ENDBRANCH  11  12
ENDBRANCH   3   7
BRANCH   1  15
ATOM     15  N   LIG    1        1.086  -2.494   0.033  0.00  0.00    -0.590 N 
ATOM     16  C   LIG    1        0.940  -3.263  -1.205  0.00  0.00    +0.300 C 
BRANCH  15  17
ATOM     17  C   LIG    1        1.370  -1.058  -0.027  0.00  0.00    +0.350 C 
BRANCH  17  20
ATOM     18  N   LIG    1        0.090   1.057  -0.110  0.00  0.00    -0.630 N 
ATOM     19  H   LIG    1        0.935   1.532  -0.132  0.00  0.00    +0.420 HD
ATOM     20  C   LIG    1        0.074  -0.289  -0.055  0.00  0.00    +0.500 C 
ATOM     21  O   LIG    1       -0.983  -0.883  -0.027  0.00  0.00    -0.500 OA
BRANCH  18  25
ATOM     22  C   LIG    1       -4.732   2.322  -0.171  0.00  0.00    +0.190 C 
ATOM     23  C   LIG    1       -3.225   2.314  -0.167  0.00  0.00    -0.020 A 
ATOM     24  C   LIG    1       -2.423   1.226  -0.122  0.00  0.00    -0.040 A 
ATOM     25  C   LIG    1       -1.110   1.768  -0.141  0.00  0.00    +0.250 A 
ATOM     26  N   LIG    1       -1.252   3.067  -0.189  0.00  0.00    -0.390 NA
ATOM     27  O   LIG    1       -2.418   3.384  -0.209  0.00  0.00    +0.100 OA
ENDBRANCH  18  25
ENDBRANCH  17  20
ENDBRANCH  15  17
ENDBRANCH   1  15
TORSDOF 7
