REMARK  Name = ZINCpe000000ZjQw.0
REMARK                            x       y       z     vdW  Elec       q    Type
REMARK                         _______ _______ _______ _____ _____    ______ ____
ROOT
ATOM      1  C   LIG    1        6.149   0.904   0.718  0.00  0.00    +0.010 C 
ATOM      2  C   LIG    1        6.476   1.599  -0.625  0.00  0.00    +0.100 C 
ATOM      3  C   LIG    1        7.857   2.180  -0.414  0.00  0.00    +0.520 C 
ATOM      4  N   LIG    1        8.150   2.214   0.897  0.00  0.00    -0.560 N 
ATOM      5  O   LIG    1        8.592   2.562  -1.300  0.00  0.00    -0.500 OA
ATOM      6  C   LIG    1        7.042   1.689   1.704  0.00  0.00    +0.310 C 
ENDROOT
BRANCH   4   7
ATOM      7  C   LIG    1        9.355   2.689   1.425  0.00  0.00    +0.160 A 
ATOM      8  C   LIG    1        9.520   2.796   2.800  0.00  0.00    -0.020 A 
ATOM      9  C   LIG    1       10.711   3.264   3.315  0.00  0.00    +0.050 A 
ATOM     10  C   LIG    1       11.744   3.629   2.467  0.00  0.00    -0.120 A 
ATOM     11  C   LIG    1       13.126   4.164   2.780  0.00  0.00    +0.070 C 
ATOM     12  C   LIG    1       13.628   4.783   1.458  0.00  0.00    +0.030 C 
ATOM     13  C   LIG    1       12.846   3.981   0.397  0.00  0.00    +0.080 C 
ATOM     14  C   LIG    1       11.583   3.524   1.097  0.00  0.00    -0.070 A 
ATOM     15  C   LIG    1       10.393   3.050   0.577  0.00  0.00    +0.010 A 
ENDBRANCH   4   7
BRANCH   1  17
ATOM     16  O   LIG    1        4.371   1.647   2.080  0.00  0.00    -0.520 OA
ATOM     17  C   LIG    1        4.692   1.063   1.066  0.00  0.00    +0.530 C 
ATOM     18  N   LIG    1        3.745   0.557   0.251  0.00  0.00    -0.710 N 
ATOM     19  H   LIG    1        4.002   0.090  -0.559  0.00  0.00    +0.410 HD
BRANCH  18  20
ATOM     20  C   LIG    1        2.328   0.712   0.590  0.00  0.00    +0.270 C 
ATOM     21  C   LIG    1        1.503  -0.408  -0.069  0.00  0.00    +0.070 C 
ATOM     22  C   LIG    1        0.009  -0.036   0.014  0.00  0.00    -0.300 C 
ATOM     23  S   LIG    1       -0.025   1.793   0.045  0.00  0.00    +2.400 S 
ATOM     24  O   LIG    1       -0.548   2.232   1.291  0.00  0.00    -0.930 OA
ATOM     25  O   LIG    1       -0.583   2.275  -1.169  0.00  0.00    -0.930 OA
ATOM     26  C   LIG    1        1.790   2.051   0.024  0.00  0.00    -0.320 C 
ENDBRANCH  18  20
ENDBRANCH   1  17
TORSDOF 3
