REMARK  Name = ZINC9u0000000C3X.0
REMARK                            x       y       z     vdW  Elec       q    Type
REMARK                         _______ _______ _______ _____ _____    ______ ____
ROOT
ATOM      1  C   LIG    1       -0.694   1.558   3.746  0.00  0.00    +0.360 C 
ATOM      2  O   LIG    1       -1.686   2.240   3.648  0.00  0.00    -0.450 OA
ENDROOT
BRANCH   1   3
ATOM      3  C   LIG    1       -0.161   1.194   5.108  0.00  0.00    -0.120 C 
ATOM      4  C   LIG    1        1.263   1.731   5.259  0.00  0.00    +0.050 C 
ATOM      5  C   LIG    1       -0.151  -0.328   5.261  0.00  0.00    +0.050 C 
ATOM      6  C   LIG    1       -1.055   1.809   6.187  0.00  0.00    +0.040 C 
ENDBRANCH   1   3
BRANCH   1   7
ATOM      7  C   LIG    1        0.011   1.072   2.506  0.00  0.00    +0.030 C 
BRANCH   7   9
ATOM      8  C   LIG    1       -0.013   1.086   0.008  0.00  0.00    +0.010 C 
ATOM      9  C   LIG    1       -0.729   1.579   1.267  0.00  0.00    +0.020 C 
ENDBRANCH   7   9
ENDBRANCH   1   7
TORSDOF 3
