REMARK  Name = ZINCkj00000GeNLx.0
REMARK                            x       y       z     vdW  Elec       q    Type
REMARK                         _______ _______ _______ _____ _____    ______ ____
ROOT
ATOM      1  N   LIG    1       -1.446   4.022   2.481  0.00  0.00    -0.690 NA
ATOM      2  H   LIG    1       -1.869   3.386   3.079  0.00  0.00    +0.430 HD
ENDROOT
BRANCH   1   3
ATOM      3  C   LIG    1       -0.757   3.549   1.278  0.00  0.00    +0.280 C 
BRANCH   3   4
ATOM      4  C   LIG    1       -0.743   2.019   1.266  0.00  0.00    +0.030 C 
BRANCH   4   5
ATOM      5  C   LIG    1       -0.023   1.524   0.010  0.00  0.00    +0.020 C 
BRANCH   5   6
ATOM      6  C   LIG    1       -0.010  -0.006  -0.001  0.00  0.00    +0.020 C 
BRANCH   6   7
ATOM      7  C   LIG    1        0.710  -0.500  -1.258  0.00  0.00    +0.030 C 
BRANCH   7   8
ATOM      8  C   LIG    1        0.724  -2.030  -1.269  0.00  0.00    +0.100 C 
BRANCH   8   9
ATOM      9  C   LIG    1        1.433  -2.517  -2.506  0.00  0.00    +0.460 C 
ATOM     10  O   LIG    1        1.882  -1.722  -3.298  0.00  0.00    -0.510 OA
BRANCH   9  11
ATOM     11  O   LIG    1        1.567  -3.834  -2.729  0.00  0.00    -0.360 OA
BRANCH  11  13
ATOM     12  C   LIG    1        2.314  -5.757  -4.022  0.00  0.00    +0.070 C 
ATOM     13  C   LIG    1        2.261  -4.230  -3.941  0.00  0.00    +0.200 C 
ENDBRANCH  11  13
ENDBRANCH   9  11
ENDBRANCH   8   9
ENDBRANCH   7   8
ENDBRANCH   6   7
ENDBRANCH   5   6
ENDBRANCH   4   5
ENDBRANCH   3   4
ENDBRANCH   1   3
BRANCH   1  14
ATOM     14  C   LIG    1       -1.494   5.367   2.761  0.00  0.00    +0.720 C 
BRANCH  14  15
ATOM     15  N   LIG    1       -2.017   5.781   3.881  0.00  0.00    -0.660 NA
ATOM     16  C   LIG    1       -2.450   4.811   4.890  0.00  0.00    +0.350 C 
ATOM     17  H   LIG    1       -2.120   6.731   4.046  0.00  0.00    +0.440 HD
ENDBRANCH  14  15
BRANCH  14  18
ATOM     18  N   LIG    1       -0.989   6.275   1.861  0.00  0.00    -0.690 NA
ATOM     19  H   LIG    1       -0.599   5.967   1.028  0.00  0.00    +0.440 HD
BRANCH  18  20
ATOM     20  C   LIG    1       -1.039   7.708   2.161  0.00  0.00    +0.310 C 
BRANCH  20  21
ATOM     21  C   LIG    1       -0.416   8.493   1.004  0.00  0.00    +0.200 C 
BRANCH  21  22
ATOM     22  O   LIG    1       -1.213   8.324  -0.170  0.00  0.00    -0.400 OA
ATOM     23  C   LIG    1       -0.716   9.020  -1.315  0.00  0.00    +0.230 C 
ENDBRANCH  21  22
ENDBRANCH  20  21
ENDBRANCH  18  20
ENDBRANCH  14  18
ENDBRANCH   1  14
TORSDOF 15
