REMARK  Name = ZINCvU0000000BS7.0
REMARK                            x       y       z     vdW  Elec       q    Type
REMARK                         _______ _______ _______ _____ _____    ______ ____
ROOT
ATOM      1  C   LIG    1        4.131   0.596   1.387  0.00  0.00    +0.470 C 
ATOM      2  O   LIG    1        3.355   0.623   2.313  0.00  0.00    -0.480 OA
ENDROOT
BRANCH   1   3
ATOM      3  O   LIG    1        5.452   0.542   1.620  0.00  0.00    -0.340 OA
BRANCH   3   5
ATOM      4  C   LIG    1        5.968  -0.930   3.490  0.00  0.00    +0.090 C 
ATOM      5  C   LIG    1        5.876   0.519   3.009  0.00  0.00    +0.330 C 
BRANCH   5   6
ATOM      6  C   LIG    1        7.227   1.176   3.132  0.00  0.00    +0.190 A 
ATOM      7  N   LIG    1        7.587   2.050   4.038  0.00  0.00    -0.450 NA
ATOM      8  C   LIG    1        8.875   2.353   3.759  0.00  0.00    +0.210 A 
ATOM      9  N   LIG    1        9.215   1.659   2.704  0.00  0.00    -0.360 NA
ATOM     10  O   LIG    1        8.281   0.980   2.333  0.00  0.00    +0.110 OA
BRANCH   8  11
ATOM     11  C   LIG    1        9.739   3.301   4.506  0.00  0.00    +0.000 A 
ATOM     12  C   LIG    1       11.052   3.521   4.096  0.00  0.00    +0.050 A 
ATOM     13  C   LIG    1       11.853   4.404   4.793  0.00  0.00    +0.050 A 
ATOM     14  C   LIG    1       11.354   5.071   5.897  0.00  0.00    +0.010 A 
ATOM     15  C   LIG    1       10.048   4.857   6.309  0.00  0.00    +0.100 A 
ATOM     16  F   LIG    1        9.565   5.512   7.388  0.00  0.00    -0.130 F 
ATOM     17  C   LIG    1        9.237   3.979   5.615  0.00  0.00    +0.040 A 
ENDBRANCH   8  11
ENDBRANCH   5   6
ENDBRANCH   3   5
ENDBRANCH   1   3
BRANCH   1  18
ATOM     18  C   LIG    1        3.616   0.623  -0.029  0.00  0.00    +0.240 C 
BRANCH  18  19
ATOM     19  C   LIG    1        2.110   0.683  -0.014  0.00  0.00    +0.020 A 
ATOM     20  C   LIG    1        1.383   1.812  -0.001  0.00  0.00    +0.000 A 
ATOM     21  C   LIG    1       -0.017   1.393   0.010  0.00  0.00    -0.130 A 
ATOM     22  C   LIG    1        0.002  -0.004   0.002  0.00  0.00    +0.060 A 
ATOM     23  C   LIG    1       -1.203  -0.716   0.010  0.00  0.00    +0.040 A 
ATOM     24  C   LIG    1       -2.403  -0.084   0.026  0.00  0.00    +0.060 A 
ATOM     25  C   LIG    1       -2.486   1.322   0.034  0.00  0.00    -0.070 A 
ATOM     26  C   LIG    1       -3.727   1.979   0.050  0.00  0.00    +0.030 A 
ATOM     27  C   LIG    1       -3.769   3.340   0.057  0.00  0.00    +0.010 A 
ATOM     28  C   LIG    1       -2.599   4.093   0.049  0.00  0.00    +0.020 A 
ATOM     29  C   LIG    1       -1.377   3.487   0.034  0.00  0.00    +0.020 A 
ATOM     30  C   LIG    1       -1.297   2.090   0.031  0.00  0.00    -0.000 A 
ATOM     31  O   LIG    1        1.296  -0.385  -0.012  0.00  0.00    -0.170 OA
ENDBRANCH  18  19
ENDBRANCH   1  18
TORSDOF 6
