REMARK  Name = ZINCkj00000XhcNC.0
REMARK                            x       y       z     vdW  Elec       q    Type
REMARK                         _______ _______ _______ _____ _____    ______ ____
ROOT
ATOM      1  N   LIG    1       -0.805  -1.991  -1.157  0.00  0.00    -1.020 NA
ATOM      2  C   LIG    1       -1.357  -2.608   0.057  0.00  0.00    +0.310 C 
ATOM      3  C   LIG    1       -0.599  -2.069   1.274  0.00  0.00    +0.030 C 
ATOM      4  C   LIG    1       -0.659  -0.539   1.271  0.00  0.00    +0.080 C 
ATOM      5  C   LIG    1        0.002  -0.004   0.002  0.00  0.00    +0.050 C 
ATOM      6  C   LIG    1       -0.019   1.533   0.011  0.00  0.00    +0.090 C 
ATOM      7  C   LIG    1        1.469   1.955  -0.002  0.00  0.00    +0.070 C 
ATOM      8  C   LIG    1        2.190   0.698   0.549  0.00  0.00    +0.270 C 
ATOM      9  N   LIG    1        1.417  -0.425  -0.042  0.00  0.00    -0.520 N 
ATOM     10  H   LIG    1        1.703  -0.582  -0.997  0.00  0.00    +0.430 HD
ATOM     11  H   LIG    1        1.548  -1.263   0.504  0.00  0.00    +0.430 HD
ATOM     12  C   LIG    1       -0.732  -0.525  -1.234  0.00  0.00    +0.340 C 
ENDROOT
BRANCH   1  14
ATOM     13  O   LIG    1        0.661  -2.141  -3.138  0.00  0.00    -0.980 OA
ATOM     14  S   LIG    1       -0.274  -2.930  -2.415  0.00  0.00    +2.770 S 
ATOM     15  O   LIG    1        0.043  -4.199  -1.862  0.00  0.00    -0.950 OA
BRANCH  14  16
ATOM     16  N   LIG    1       -1.564  -3.170  -3.425  0.00  0.00    -0.990 NA
ATOM     17  C   LIG    1       -2.414  -4.318  -3.204  0.00  0.00    +0.290 C 
ATOM     18  C   LIG    1       -1.872  -5.531  -3.989  0.00  0.00    +0.010 C 
ATOM     19  C   LIG    1       -2.088  -5.343  -5.432  0.00  0.00    +0.000 C 
ATOM     20  C   LIG    1       -1.351  -4.147  -6.027  0.00  0.00    +0.010 C 
ATOM     21  C   LIG    1       -2.183  -2.902  -5.835  0.00  0.00    +0.020 C 
ATOM     22  C   LIG    1       -1.795  -2.205  -4.519  0.00  0.00    +0.270 C 
ENDBRANCH  14  16
ENDBRANCH   1  14
TORSDOF 2
