REMARK  Name = ZINCpk000000pFOL.2
REMARK                            x       y       z     vdW  Elec       q    Type
REMARK                         _______ _______ _______ _____ _____    ______ ____
ROOT
ATOM      1  C   LIG    1       -2.804   4.931   1.362  0.00  0.00    +0.520 C 
ATOM      2  N   LIG    1       -2.926   6.227   1.710  0.00  0.00    -0.600 N 
ATOM      3  O   LIG    1       -2.869   4.066   2.211  0.00  0.00    -0.500 OA
ENDROOT
BRANCH   2   4
ATOM      4  C   LIG    1       -2.903   7.268   0.680  0.00  0.00    +0.280 C 
ATOM      5  C   LIG    1       -3.953   6.950  -0.400  0.00  0.00    +0.050 C 
ATOM      6  C   LIG    1       -3.650   7.883  -1.600  0.00  0.00    -0.290 C 
ATOM      7  S   LIG    1       -1.823   7.807  -1.715  0.00  0.00    +2.380 S 
ATOM      8  O   LIG    1       -1.309   9.114  -1.933  0.00  0.00    -0.930 OA
ATOM      9  O   LIG    1       -1.449   6.746  -2.583  0.00  0.00    -0.930 OA
ATOM     10  C   LIG    1       -1.511   7.311   0.018  0.00  0.00    -0.320 C 
ENDBRANCH   2   4
BRANCH   1  11
ATOM     11  C   LIG    1       -2.587   4.555  -0.081  0.00  0.00    +0.200 C 
BRANCH  11  17
ATOM     12  C   LIG    1       -1.563   2.921  -1.544  0.00  0.00    +0.130 C 
ATOM     13  C   LIG    1       -0.938   1.524  -1.589  0.00  0.00    +0.030 C 
ATOM     14  C   LIG    1        0.346   1.518  -0.754  0.00  0.00    +0.010 C 
ATOM     15  C   LIG    1        0.017   1.943   0.679  0.00  0.00    +0.030 C 
ATOM     16  C   LIG    1       -0.637   3.327   0.658  0.00  0.00    +0.170 C 
ATOM     17  N   LIG    1       -1.861   3.280  -0.152  0.00  0.00    -0.510 NA
BRANCH  12  19
ATOM     18  C   LIG    1       -2.539   2.610  -3.823  0.00  0.00    +0.030 C 
ATOM     19  C   LIG    1       -2.857   2.927  -2.360  0.00  0.00    +0.010 C 
ENDBRANCH  12  19
ENDBRANCH  11  17
ENDBRANCH   1  11
BRANCH   2  20
ATOM     20  C   LIG    1       -3.082   6.595   3.120  0.00  0.00    +0.310 C 
BRANCH  20  21
ATOM     21  C   LIG    1       -1.703   6.823   3.743  0.00  0.00    +0.130 C 
ATOM     22  C   LIG    1       -1.838   7.128   5.251  0.00  0.00    +0.010 C 
ATOM     23  C   LIG    1       -0.747   8.188   5.519  0.00  0.00    +0.010 C 
ATOM     24  C   LIG    1       -0.082   8.399   4.141  0.00  0.00    +0.190 C 
ATOM     25  O   LIG    1       -1.085   8.000   3.180  0.00  0.00    -0.370 OA
ENDBRANCH  20  21
ENDBRANCH   2  20
TORSDOF 6
