REMARK  Name = ZINCvU00000006DP.0
REMARK                            x       y       z     vdW  Elec       q    Type
REMARK                         _______ _______ _______ _____ _____    ______ ____
ROOT
ATOM      1  N   LIG    1        2.406   1.093  -0.015  0.00  0.00    -0.670 N 
ATOM      2  H   LIG    1        2.492   0.250   0.457  0.00  0.00    +0.410 HD
ATOM      3  C   LIG    1        3.457   1.596  -0.692  0.00  0.00    +0.510 C 
ATOM      4  O   LIG    1        3.376   2.689  -1.212  0.00  0.00    -0.490 OA
ENDROOT
BRANCH   1  10
ATOM      5  N   LIG    1       -2.280   4.060   0.073  0.00  0.00    -0.500 N 
ATOM      6  C   LIG    1       -1.785   5.351   0.083  0.00  0.00    +0.150 A 
ATOM      7  C   LIG    1       -0.384   5.288   0.067  0.00  0.00    -0.110 A 
ATOM      8  C   LIG    1       -0.029   3.857   0.046  0.00  0.00    -0.090 A 
ATOM      9  C   LIG    1        1.183   3.171   0.024  0.00  0.00    +0.080 A 
ATOM     10  C   LIG    1        1.189   1.787   0.007  0.00  0.00    +0.110 A 
ATOM     11  C   LIG    1       -0.013   1.084   0.012  0.00  0.00    +0.030 A 
ATOM     12  C   LIG    1       -1.215   1.755   0.028  0.00  0.00    +0.010 A 
ATOM     13  C   LIG    1        0.367   6.461   0.072  0.00  0.00    +0.070 A 
ATOM     14  C   LIG    1       -0.271   7.682   0.093  0.00  0.00    -0.020 A 
ATOM     15  C   LIG    1       -1.656   7.747   0.110  0.00  0.00    +0.050 A 
ATOM     16  C   LIG    1       -2.411   6.594   0.105  0.00  0.00    -0.030 A 
ATOM     17  C   LIG    1       -1.238   3.147   0.051  0.00  0.00    +0.130 A 
BRANCH   5  19
ATOM     18  C   LIG    1       -4.214   3.602  -1.352  0.00  0.00    +0.020 C 
ATOM     19  C   LIG    1       -3.702   3.708   0.086  0.00  0.00    +0.290 C 
ENDBRANCH   5  19
ENDBRANCH   1  10
BRANCH   3  20
ATOM     20  C   LIG    1        4.733   0.802  -0.803  0.00  0.00    +0.250 C 
BRANCH  20  21
ATOM     21  O   LIG    1        5.691   1.542  -1.562  0.00  0.00    -0.320 OA
BRANCH  21  22
ATOM     22  C   LIG    1        6.895   0.967  -1.756  0.00  0.00    +0.500 C 
ATOM     23  O   LIG    1        7.125  -0.134  -1.292  0.00  0.00    -0.510 OA
BRANCH  22  24
ATOM     24  C   LIG    1        7.925   1.666  -2.523  0.00  0.00    -0.040 C 
ATOM     25  C   LIG    1        9.130   1.091  -2.716  0.00  0.00    +0.140 C 
BRANCH  25  26
ATOM     26  C   LIG    1       10.166   1.795  -3.489  0.00  0.00    -0.070 A 
ATOM     27  C   LIG    1       11.416   1.202  -3.691  0.00  0.00    +0.050 A 
ATOM     28  C   LIG    1       12.382   1.868  -4.416  0.00  0.00    +0.030 A 
ATOM     29  C   LIG    1       12.118   3.120  -4.943  0.00  0.00    +0.050 A 
ATOM     30  C   LIG    1       10.882   3.714  -4.747  0.00  0.00    -0.040 A 
ATOM     31 CL   LIG    1       10.561   5.285  -5.413  0.00  0.00    -0.060 Cl
ATOM     32  C   LIG    1        9.903   3.059  -4.028  0.00  0.00    +0.050 A 
ENDBRANCH  25  26
ENDBRANCH  22  24
ENDBRANCH  21  22
ENDBRANCH  20  21
ENDBRANCH   3  20
TORSDOF 7
