REMARK  Name = ZINCpe000027pH23.0
REMARK                            x       y       z     vdW  Elec       q    Type
REMARK                         _______ _______ _______ _____ _____    ______ ____
ROOT
ATOM      1  N   LIG    1       -3.218   1.777   1.438  0.00  0.00    -0.470 N 
ATOM      2  C   LIG    1       -3.431   0.612   0.540  0.00  0.00    +0.220 C 
ATOM      3  C   LIG    1       -2.400   0.802  -0.594  0.00  0.00    +0.270 C 
ATOM      4  C   LIG    1       -1.290   1.681   0.017  0.00  0.00    +0.270 C 
ATOM      5  C   LIG    1       -1.743   1.949   1.468  0.00  0.00    +0.210 C 
ENDROOT
BRANCH   1  11
ATOM      6  C   LIG    1       -4.723   2.333   3.266  0.00  0.00    -0.050 A 
ATOM      7  C   LIG    1       -5.193   2.033   4.544  0.00  0.00    +0.330 A 
ATOM      8  N   LIG    1       -4.697   1.018   5.220  0.00  0.00    -0.480 NA
ATOM      9  C   LIG    1       -3.748   0.242   4.726  0.00  0.00    +0.310 A 
ATOM     10  C   LIG    1       -3.228   0.462   3.468  0.00  0.00    -0.070 A 
ATOM     11  C   LIG    1       -3.715   1.523   2.707  0.00  0.00    +0.170 A 
BRANCH   6  13
ATOM     12  N   LIG    1       -5.684   4.320   1.952  0.00  0.00    -0.390 NA
ATOM     13  C   LIG    1       -5.259   3.441   2.533  0.00  0.00    +0.260 C 
ENDBRANCH   6  13
ENDBRANCH   1  11
BRANCH   3  14
ATOM     14  N   LIG    1       -1.854  -0.493  -1.009  0.00  0.00    -0.290 N 
ATOM     15  C   LIG    1       -1.686  -1.574  -0.213  0.00  0.00    +0.120 A 
ATOM     16  C   LIG    1       -1.159  -2.542  -0.999  0.00  0.00    +0.150 A 
ATOM     17  N   LIG    1       -1.025  -2.010  -2.219  0.00  0.00    -0.260 NA
ATOM     18  N   LIG    1       -1.446  -0.795  -2.192  0.00  0.00    -0.070 NA
ENDBRANCH   3  14
BRANCH   4  19
ATOM     19  N   LIG    1       -0.011   0.966   0.007  0.00  0.00    -0.730 N 
ATOM     20  H   LIG    1        0.002  -0.004   0.002  0.00  0.00    +0.400 HD
ATOM     21  C   LIG    1        1.147   1.655   0.000  0.00  0.00    +0.520 C 
ATOM     22  O   LIG    1        1.130   2.868   0.007  0.00  0.00    -0.520 OA
BRANCH  21  23
ATOM     23  C   LIG    1        2.462   0.920  -0.017  0.00  0.00    +0.090 C 
BRANCH  23  24
ATOM     24  C   LIG    1        3.611   1.930  -0.022  0.00  0.00    -0.030 C 
ATOM     25  C   LIG    1        4.528   1.950  -1.247  0.00  0.00    +0.010 C 
ATOM     26  C   LIG    1        5.035   1.380   0.080  0.00  0.00    +0.020 C 
ENDBRANCH  23  24
ENDBRANCH  21  23
ENDBRANCH   4  19
TORSDOF 6
