REMARK  Name = ZINCtV00000L6kQC.0
REMARK                            x       y       z     vdW  Elec       q    Type
REMARK                         _______ _______ _______ _____ _____    ______ ____
ROOT
ATOM      1  C   LIG    1        4.748   2.122  -2.446  0.00  0.00    +0.280 A 
ATOM      2  N   LIG    1        5.084   2.639  -3.592  0.00  0.00    -0.470 NA
ATOM      3  C   LIG    1        4.703   3.942  -3.634  0.00  0.00    +0.040 A 
ATOM      4  C   LIG    1        4.816   4.948  -4.596  0.00  0.00    +0.070 A 
ATOM      5  C   LIG    1        4.322   6.196  -4.338  0.00  0.00    +0.000 A 
ATOM      6  C   LIG    1        3.707   6.476  -3.127  0.00  0.00    +0.030 A 
ATOM      7  C   LIG    1        3.584   5.499  -2.162  0.00  0.00    +0.010 A 
ATOM      8  C   LIG    1        4.080   4.226  -2.406  0.00  0.00    +0.060 A 
ATOM      9  N   LIG    1        4.120   3.054  -1.679  0.00  0.00    -0.470 N 
ENDROOT
BRANCH   1  10
ATOM     10  C   LIG    1        5.011   0.697  -2.031  0.00  0.00    +0.330 C 
BRANCH  10  11
ATOM     11  O   LIG    1        3.853  -0.097  -2.294  0.00  0.00    -0.310 OA
BRANCH  11  17
ATOM     12  C   LIG    1        6.226  -3.726  -0.052  0.00  0.00    +0.090 C 
ATOM     13  C   LIG    1        5.037  -3.205  -0.819  0.00  0.00    -0.050 A 
ATOM     14  C   LIG    1        3.993  -4.054  -1.135  0.00  0.00    -0.030 A 
ATOM     15  C   LIG    1        2.902  -3.579  -1.839  0.00  0.00    +0.060 A 
ATOM     16  C   LIG    1        2.852  -2.255  -2.228  0.00  0.00    -0.110 A 
ATOM     17  C   LIG    1        3.899  -1.401  -1.912  0.00  0.00    +0.130 A 
ATOM     18  C   LIG    1        4.995  -1.881  -1.211  0.00  0.00    -0.080 A 
BRANCH  16  19
ATOM     19  C   LIG    1        1.663  -1.739  -2.996  0.00  0.00    +0.030 C 
ATOM     20  C   LIG    1        0.412  -1.826  -2.119  0.00  0.00    +0.030 C 
ATOM     21  C   LIG    1        1.463  -2.584  -4.256  0.00  0.00    +0.040 C 
ENDBRANCH  16  19
ENDBRANCH  11  17
ENDBRANCH  10  11
ENDBRANCH   1  10
BRANCH   9  22
ATOM     22  C   LIG    1        3.591   2.852  -0.327  0.00  0.00    +0.360 C 
BRANCH  22  23
ATOM     23  C   LIG    1        4.704   3.008   0.676  0.00  0.00    -0.120 A 
ATOM     24  C   LIG    1        5.419   1.901   1.093  0.00  0.00    +0.020 A 
ATOM     25  C   LIG    1        6.441   2.044   2.013  0.00  0.00    +0.010 A 
ATOM     26  C   LIG    1        6.747   3.294   2.518  0.00  0.00    +0.030 A 
ATOM     27  C   LIG    1        6.030   4.401   2.103  0.00  0.00    +0.010 A 
ATOM     28  C   LIG    1        5.009   4.258   1.182  0.00  0.00    -0.060 A 
ATOM     29  C   LIG    1        4.228   5.465   0.729  0.00  0.00    +0.090 C 
ENDBRANCH  22  23
ENDBRANCH   9  22
TORSDOF 6
