REMARK  Name = ZINCrH000004tF9V.0
REMARK                            x       y       z     vdW  Elec       q    Type
REMARK                         _______ _______ _______ _____ _____    ______ ____
ROOT
ATOM      1  O   LIG    1       -4.830   5.142  -0.632  0.00  0.00    -0.540 OA
ATOM      2  C   LIG    1       -4.151   4.762  -1.563  0.00  0.00    +0.510 C 
ATOM      3  N   LIG    1       -2.992   4.114  -1.331  0.00  0.00    -0.730 N 
ATOM      4  H   LIG    1       -2.449   3.811  -2.074  0.00  0.00    +0.400 HD
ENDROOT
BRANCH   3   5
ATOM      5  C   LIG    1       -2.553   3.868   0.045  0.00  0.00    +0.320 C 
BRANCH   5   6
ATOM      6  C   LIG    1       -1.238   3.133   0.029  0.00  0.00    -0.110 A 
ATOM      7  C   LIG    1       -1.219   1.751   0.017  0.00  0.00    +0.070 A 
ATOM      8  C   LIG    1       -0.013   1.076   0.008  0.00  0.00    +0.020 A 
ATOM      9  C   LIG    1        1.175   1.783   0.000  0.00  0.00    +0.080 A 
ATOM     10  C   LIG    1        1.156   3.166   0.008  0.00  0.00    -0.180 A 
ATOM     11  C   LIG    1       -0.050   3.840   0.022  0.00  0.00    +0.090 A 
BRANCH  10  12
ATOM     12  C   LIG    1        2.451   3.937   0.000  0.00  0.00    +0.510 C 
ATOM     13  F   LIG    1        2.525   4.736   1.146  0.00  0.00    -0.170 F 
ATOM     14  F   LIG    1        2.503   4.748  -1.138  0.00  0.00    -0.180 F 
ATOM     15  F   LIG    1        3.526   3.042  -0.014  0.00  0.00    -0.180 F 
ENDBRANCH  10  12
ENDBRANCH   5   6
ENDBRANCH   3   5
BRANCH   2  16
ATOM     16  C   LIG    1       -4.602   5.015  -2.978  0.00  0.00    +0.060 C 
BRANCH  16  17
ATOM     17  C   LIG    1       -5.937   5.762  -2.962  0.00  0.00    +0.040 C 
BRANCH  17  18
ATOM     18  C   LIG    1       -6.395   6.019  -4.399  0.00  0.00    +0.280 C 
BRANCH  18  19
ATOM     19  N   LIG    1       -7.674   6.734  -4.383  0.00  0.00    -0.750 N 
ATOM     20  H   LIG    1       -8.089   6.966  -3.538  0.00  0.00    +0.400 HD
ATOM     21  C   LIG    1       -8.273   7.069  -5.543  0.00  0.00    +0.700 C 
ATOM     22  N   LIG    1       -9.449   7.727  -5.529  0.00  0.00    -0.740 N 
ATOM     23  H   LIG    1       -9.864   7.960  -4.684  0.00  0.00    +0.400 HD
ATOM     24  O   LIG    1       -7.752   6.778  -6.603  0.00  0.00    -0.590 OA
BRANCH  22  25
ATOM     25  C   LIG    1      -10.100   8.092  -6.790  0.00  0.00    +0.250 C 
ATOM     26  C   LIG    1       -9.530   9.420  -7.292  0.00  0.00    +0.000 C 
ATOM     27  C   LIG    1      -10.210   9.800  -8.609  0.00  0.00    +0.000 C 
ATOM     28  C   LIG    1      -11.716   9.944  -8.382  0.00  0.00    +0.000 C 
ATOM     29  C   LIG    1      -12.286   8.616  -7.880  0.00  0.00    +0.020 C 
ATOM     30  C   LIG    1      -11.606   8.236  -6.563  0.00  0.00    +0.010 C 
ENDBRANCH  22  25
ENDBRANCH  18  19
ENDBRANCH  17  18
ENDBRANCH  16  17
ENDBRANCH   2  16
TORSDOF 8
