REMARK  Name = ZINCAx00000009MY.0
REMARK                            x       y       z     vdW  Elec       q    Type
REMARK                         _______ _______ _______ _____ _____    ______ ____
ROOT
ATOM      1  O   LIG    1        3.632   1.768  -0.020  0.00  0.00    -0.320 OA
ENDROOT
BRANCH   1   3
ATOM      2  C   LIG    1        5.279   0.723  -1.478  0.00  0.00    +0.080 C 
ATOM      3  C   LIG    1        4.862   0.997  -0.031  0.00  0.00    +0.190 C 
BRANCH   3   4
ATOM      4  C   LIG    1        5.949   1.775   0.665  0.00  0.00    +0.520 C 
ATOM      5  N   LIG    1        7.186   1.253   0.776  0.00  0.00    -0.670 N 
ATOM      6  H   LIG    1        7.361   0.350   0.468  0.00  0.00    +0.410 HD
ATOM      7  O   LIG    1        5.710   2.871   1.126  0.00  0.00    -0.500 OA
BRANCH   5   8
ATOM      8  C   LIG    1        8.221   2.014   1.337  0.00  0.00    +0.120 A 
ATOM      9  C   LIG    1        9.518   1.883   0.859  0.00  0.00    +0.020 A 
ATOM     10  C   LIG    1       10.536   2.637   1.407  0.00  0.00    -0.020 A 
ATOM     11  C   LIG    1       10.264   3.519   2.446  0.00  0.00    +0.100 A 
ATOM     12  C   LIG    1        8.968   3.646   2.928  0.00  0.00    +0.010 A 
ATOM     13  C   LIG    1        7.949   2.896   2.376  0.00  0.00    +0.050 A 
BRANCH  11  14
ATOM     14  N   LIG    1       11.297   4.279   3.006  0.00  0.00    -0.490 N 
ATOM     15  C   LIG    1       10.989   5.715   2.938  0.00  0.00    +0.160 C 
ATOM     16  C   LIG    1       12.114   6.504   3.613  0.00  0.00    +0.220 C 
ATOM     17  O   LIG    1       13.358   6.187   2.982  0.00  0.00    -0.380 OA
ATOM     18  C   LIG    1       13.689   4.796   3.030  0.00  0.00    +0.220 C 
ATOM     19  C   LIG    1       12.580   3.990   2.349  0.00  0.00    +0.160 C 
ENDBRANCH  11  14
ENDBRANCH   5   8
ENDBRANCH   3   4
ENDBRANCH   1   3
BRANCH   1  20
ATOM     20  C   LIG    1        2.477   1.076  -0.006  0.00  0.00    +0.510 C 
ATOM     21  O   LIG    1        2.496  -0.139  -0.003  0.00  0.00    -0.490 OA
BRANCH  20  22
ATOM     22  C   LIG    1        1.185   1.793   0.006  0.00  0.00    -0.070 A 
ATOM     23  C   LIG    1       -0.014   1.079   0.021  0.00  0.00    +0.080 A 
ATOM     24  C   LIG    1       -1.216   1.755   0.028  0.00  0.00    +0.120 A 
ATOM     25  C   LIG    1       -1.235   3.139   0.030  0.00  0.00    -0.650 A 
ATOM     26  C   LIG    1       -0.050   3.853   0.016  0.00  0.00    +0.120 A 
ATOM     27  C   LIG    1        1.159   3.189   0.004  0.00  0.00    +0.070 A 
BRANCH  25  28
ATOM     28  S   LIG    1       -2.775   3.995   0.044  0.00  0.00    +2.700 S 
ATOM     29  O   LIG    1       -2.513   5.283   0.582  0.00  0.00    -0.940 OA
ATOM     30  O   LIG    1       -3.727   3.099   0.600  0.00  0.00    -0.940 OA
BRANCH  28  31
ATOM     31  N   LIG    1       -3.220   4.229  -1.534  0.00  0.00    -1.110 NA
ATOM     32  H   LIG    1       -3.276   5.128  -1.894  0.00  0.00    +0.420 HD
BRANCH  31  33
ATOM     33  C   LIG    1       -3.529   3.079  -2.387  0.00  0.00    +0.400 C 
BRANCH  33  34
ATOM     34  C   LIG    1       -4.247   3.550  -3.625  0.00  0.00    -0.040 A 
ATOM     35  C   LIG    1       -3.663   3.920  -4.779  0.00  0.00    -0.030 A 
ATOM     36  C   LIG    1       -4.703   4.283  -5.666  0.00  0.00    -0.070 A 
ATOM     37  C   LIG    1       -5.859   4.121  -4.998  0.00  0.00    +0.190 A 
ATOM     38  O   LIG    1       -5.577   3.676  -3.763  0.00  0.00    -0.170 OA
ENDBRANCH  33  34
ENDBRANCH  31  33
ENDBRANCH  28  31
ENDBRANCH  25  28
ENDBRANCH  20  22
ENDBRANCH   1  20
TORSDOF 10
