REMARK  Name = ZINCnE000004RchB.0
REMARK                            x       y       z     vdW  Elec       q    Type
REMARK                         _______ _______ _______ _____ _____    ______ ____
ROOT
ATOM      1  N   LIG    1        5.406   4.363  -0.472  0.00  0.00    -0.510 NA
ATOM      2  C   LIG    1        6.129   3.168  -0.013  0.00  0.00    +0.230 C 
ATOM      3  C   LIG    1        5.257   2.386   0.978  0.00  0.00    +0.080 C 
ATOM      4  C   LIG    1        3.890   2.217   0.360  0.00  0.00    +0.010 A 
ATOM      5  C   LIG    1        3.464   2.946  -0.696  0.00  0.00    -0.100 A 
ATOM      6  N   LIG    1        2.202   2.531  -0.984  0.00  0.00    -0.560 N 
ATOM      7  H   LIG    1        1.632   2.867  -1.693  0.00  0.00    +0.410 HD
ATOM      8  C   LIG    1        1.893   1.559  -0.093  0.00  0.00    +0.260 A 
ATOM      9  N   LIG    1        2.910   1.385   0.710  0.00  0.00    -0.450 NA
ATOM     10  C   LIG    1        4.294   4.007  -1.370  0.00  0.00    +0.310 C 
ENDROOT
BRANCH   1  12
ATOM     11  C   LIG    1        6.097   5.444   1.614  0.00  0.00    +0.050 C 
ATOM     12  C   LIG    1        4.930   5.159   0.667  0.00  0.00    +0.180 C 
BRANCH  12  13
ATOM     13  C   LIG    1        4.360   6.461   0.166  0.00  0.00    -0.050 A 
ATOM     14  C   LIG    1        3.140   6.909   0.638  0.00  0.00    +0.040 A 
ATOM     15  C   LIG    1        2.617   8.103   0.179  0.00  0.00    +0.040 A 
ATOM     16  C   LIG    1        3.314   8.852  -0.752  0.00  0.00    -0.030 A 
ATOM     17  C   LIG    1        4.536   8.403  -1.225  0.00  0.00    -0.030 A 
ATOM     18 CL   LIG    1        5.412   9.341  -2.394  0.00  0.00    -0.050 Cl
ATOM     19 CL   LIG    1        2.657  10.352  -1.328  0.00  0.00    -0.060 Cl
ATOM     20  C   LIG    1        5.061   7.211  -0.761  0.00  0.00    +0.080 A 
ENDBRANCH  12  13
ENDBRANCH   1  12
BRANCH   8  21
ATOM     21  C   LIG    1        0.588   0.807  -0.034  0.00  0.00    +0.050 C 
BRANCH  21  22
ATOM     22  C   LIG    1        0.856  -0.673  -0.134  0.00  0.00    +0.500 C 
ATOM     23  O   LIG    1       -0.071  -1.464  -0.105  0.00  0.00    -0.700 OA
ATOM     24  O   LIG    1        2.001  -1.079  -0.243  0.00  0.00    -0.670 OA
ENDBRANCH  21  22
ENDBRANCH   8  21
TORSDOF 4
