REMARK  Name = ZINCtV000002BmW9.0
REMARK                            x       y       z     vdW  Elec       q    Type
REMARK                         _______ _______ _______ _____ _____    ______ ____
ROOT
ATOM      1  C   LIG    1       -2.500   4.617  -4.319  0.00  0.00    +0.150 A 
ATOM      2  C   LIG    1       -3.156   4.546  -3.098  0.00  0.00    -0.070 A 
ATOM      3  C   LIG    1       -3.358   3.317  -2.494  0.00  0.00    +0.070 A 
ATOM      4  C   LIG    1       -2.907   2.171  -3.110  0.00  0.00    -0.190 A 
ATOM      5  C   LIG    1       -3.208   0.802  -2.517  0.00  0.00    +0.330 C 
ATOM      6  N   LIG    1       -1.940   0.168  -2.145  0.00  0.00    -0.610 N 
ATOM      7  C   LIG    1       -1.116  -0.493  -3.159  0.00  0.00    +0.300 C 
ATOM      8  C   LIG    1       -0.614   0.502  -4.195  0.00  0.00    +0.100 C 
ATOM      9  O   LIG    1       -1.720   1.106  -4.876  0.00  0.00    -0.320 OA
ATOM     10  C   LIG    1        0.270  -0.226  -5.210  0.00  0.00    +0.080 C 
ATOM     11  C   LIG    1        0.207   1.589  -3.499  0.00  0.00    +0.030 C 
ATOM     12  C   LIG    1       -1.532   0.189  -0.861  0.00  0.00    +0.720 C 
ATOM     13  N   LIG    1       -2.370   0.614   0.105  0.00  0.00    -0.590 N 
ATOM     14  O   LIG    1       -0.408  -0.175  -0.573  0.00  0.00    -0.560 OA
ATOM     15  C   LIG    1       -2.217   2.234  -4.312  0.00  0.00    +0.170 A 
ATOM     16  C   LIG    1       -2.029   3.464  -4.926  0.00  0.00    -0.030 A 
ENDROOT
BRANCH  13  17
ATOM     17  C   LIG    1       -2.237   0.127   1.411  0.00  0.00    +0.180 A 
ATOM     18  C   LIG    1       -2.660  -1.159   1.720  0.00  0.00    +0.040 A 
ATOM     19  C   LIG    1       -2.523  -1.639   3.009  0.00  0.00    +0.060 A 
ATOM     20  C   LIG    1       -1.970  -0.839   3.992  0.00  0.00    -0.030 A 
ATOM     21  C   LIG    1       -1.552   0.447   3.688  0.00  0.00    -0.020 A 
ATOM     22 CL   LIG    1       -0.858   1.448   4.924  0.00  0.00    -0.040 Cl
ATOM     23 CL   LIG    1       -1.800  -1.446   5.609  0.00  0.00    -0.040 Cl
ATOM     24  C   LIG    1       -1.688   0.932   2.401  0.00  0.00    +0.050 A 
ENDBRANCH  13  17
BRANCH  13  25
ATOM     25  C   LIG    1       -3.421   1.585  -0.211  0.00  0.00    +0.220 C 
ATOM     26  C   LIG    1       -3.292   2.795   0.716  0.00  0.00    +0.030 C 
ATOM     27  C   LIG    1       -4.792   0.935  -0.015  0.00  0.00    +0.040 C 
ENDBRANCH  13  25
BRANCH   1  29
ATOM     28  C   LIG    1       -2.829   6.971  -4.240  0.00  0.00    +0.250 C 
ATOM     29  O   LIG    1       -2.319   5.822  -4.920  0.00  0.00    -0.310 OA
ENDBRANCH   1  29
TORSDOF 3
