REMARK  Name = ZINCvU0000000H10.0
REMARK                            x       y       z     vdW  Elec       q    Type
REMARK                         _______ _______ _______ _____ _____    ______ ____
ROOT
ATOM      1  C   LIG    1        0.002  -0.004   0.002  0.00  0.00    +0.580 C 
ATOM      2  N   LIG    1        1.173  -0.661  -0.114  0.00  0.00    -0.590 N 
ATOM      3  C   LIG    1        2.509  -0.039  -0.137  0.00  0.00    +0.250 C 
ATOM      4  C   LIG    1        3.474  -1.155   0.337  0.00  0.00    +0.050 C 
ATOM      5  C   LIG    1        2.842  -2.412  -0.317  0.00  0.00    +0.070 C 
ATOM      6  C   LIG    1        1.329  -2.119  -0.234  0.00  0.00    +0.330 C 
ATOM      7  O   LIG    1       -1.034  -0.626   0.132  0.00  0.00    -0.510 OA
ENDROOT
BRANCH   1  12
ATOM      8  N   LIG    1       -2.424   4.021   0.604  0.00  0.00    -0.380 N 
ATOM      9  N   LIG    1       -3.208   2.890   0.861  0.00  0.00    -0.230 NA
ATOM     10  C   LIG    1       -2.498   1.813   0.682  0.00  0.00    +0.290 A 
ATOM     11  C   LIG    1       -1.197   2.191   0.289  0.00  0.00    -0.180 A 
ATOM     12  C   LIG    1       -0.022   1.474  -0.028  0.00  0.00    -0.000 A 
ATOM     13  C   LIG    1        1.112   2.205  -0.376  0.00  0.00    -0.030 A 
ATOM     14  C   LIG    1        1.049   3.590  -0.393  0.00  0.00    +0.230 A 
ATOM     15  N   LIG    1       -0.056   4.235  -0.089  0.00  0.00    -0.480 NA
ATOM     16  C   LIG    1       -1.168   3.600   0.250  0.00  0.00    +0.320 A 
BRANCH   8  18
ATOM     17  C   LIG    1       -4.028   5.646  -0.272  0.00  0.00    +0.050 C 
ATOM     18  C   LIG    1       -2.868   5.414   0.698  0.00  0.00    +0.270 C 
ATOM     19  C   LIG    1       -3.331   5.706   2.127  0.00  0.00    +0.050 C 
ENDBRANCH   8  18
BRANCH  14  20
ATOM     20  C   LIG    1        2.278   4.376  -0.771  0.00  0.00    +0.020 C 
ATOM     21  C   LIG    1        3.621   3.643  -0.746  0.00  0.00    +0.040 C 
ATOM     22  C   LIG    1        3.292   4.676   0.335  0.00  0.00    +0.050 C 
ENDBRANCH  14  20
ENDBRANCH   1  12
BRANCH   6  23
ATOM     23  C   LIG    1        0.646  -2.606  -1.485  0.00  0.00    +0.080 A 
ATOM     24  N   LIG    1        0.741  -2.036  -2.626  0.00  0.00    -0.450 NA
ATOM     25  C   LIG    1        0.077  -2.585  -3.661  0.00  0.00    +0.080 A 
ATOM     26  C   LIG    1        0.009  -2.174  -5.007  0.00  0.00    +0.070 A 
ATOM     27  C   LIG    1       -0.735  -2.875  -5.907  0.00  0.00    +0.030 A 
ATOM     28  C   LIG    1       -1.439  -4.006  -5.518  0.00  0.00    +0.040 A 
ATOM     29  C   LIG    1       -1.391  -4.432  -4.209  0.00  0.00    +0.060 A 
ATOM     30  C   LIG    1       -0.635  -3.726  -3.275  0.00  0.00    -0.180 A 
ATOM     31  S   LIG    1       -0.358  -3.985  -1.556  0.00  0.00    +0.120 S 
ENDBRANCH   6  23
TORSDOF 4
