REMARK  Name = ZINCpe000000YZtJ.0
REMARK                            x       y       z     vdW  Elec       q    Type
REMARK                         _______ _______ _______ _____ _____    ______ ____
ROOT
ATOM      1  O   LIG    1        5.247  -1.292   0.316  0.00  0.00    -0.510 OA
ATOM      2  C   LIG    1        4.658  -1.241   1.375  0.00  0.00    +0.520 C 
ATOM      3  N   LIG    1        3.318  -1.092   1.395  0.00  0.00    -0.620 N 
ATOM      4  C   LIG    1        2.432  -1.010   2.580  0.00  0.00    +0.280 C 
ATOM      5  C   LIG    1        1.374   0.056   2.207  0.00  0.00    +0.030 C 
ATOM      6  C   LIG    1        1.363   0.060   0.677  0.00  0.00    -0.140 C 
ATOM      7  C   LIG    1        0.002  -0.004   0.002  0.00  0.00    +0.230 C 
ATOM      8  O   LIG    1       -0.017   1.432   0.010  0.00  0.00    -0.360 OA
ATOM      9  C   LIG    1        1.419   1.418  -0.004  0.00  0.00    +0.230 C 
ATOM     10  C   LIG    1        2.400  -0.975   0.234  0.00  0.00    +0.290 C 
ENDROOT
BRANCH   5  11
ATOM     11  C   LIG    1        0.000  -0.341   2.751  0.00  0.00    +0.190 C 
BRANCH  11  12
ATOM     12  O   LIG    1        0.000  -0.227   4.175  0.00  0.00    -0.570 OA
ATOM     13  H   LIG    1       -0.841  -0.463   4.589  0.00  0.00    +0.390 HD
ENDBRANCH  11  12
ENDBRANCH   5  11
BRANCH   2  14
ATOM     14  C   LIG    1        5.423  -1.343   2.669  0.00  0.00    +0.380 C 
BRANCH  14  15
ATOM     15  N   LIG    1        6.851  -1.498   2.381  0.00  0.00    -0.320 N 
ATOM     16  N   LIG    1        7.530  -2.710   2.209  0.00  0.00    -0.220 NA
ATOM     17  C   LIG    1        8.786  -2.444   1.964  0.00  0.00    +0.010 A 
ATOM     18  C   LIG    1        8.951  -1.052   1.980  0.00  0.00    -0.210 A 
ATOM     19  C   LIG    1       10.001   0.025   1.810  0.00  0.00    +0.110 C 
ATOM     20  C   LIG    1        9.373   1.296   2.423  0.00  0.00    +0.060 C 
ATOM     21  C   LIG    1        7.862   1.014   2.270  0.00  0.00    +0.120 C 
ATOM     22  C   LIG    1        7.747  -0.495   2.239  0.00  0.00    +0.070 A 
BRANCH  17  23
ATOM     23  C   LIG    1        9.872  -3.459   1.712  0.00  0.00    +0.560 C 
ATOM     24  F   LIG    1       10.840  -2.906   0.867  0.00  0.00    -0.160 F 
ATOM     25  F   LIG    1        9.319  -4.593   1.109  0.00  0.00    -0.170 F 
ATOM     26  F   LIG    1       10.464  -3.819   2.928  0.00  0.00    -0.170 F 
ENDBRANCH  17  23
ENDBRANCH  14  15
ENDBRANCH   2  14
TORSDOF 5
