REMARK  Name = ZINCpe000000V2e6.0
REMARK                            x       y       z     vdW  Elec       q    Type
REMARK                         _______ _______ _______ _____ _____    ______ ____
ROOT
ATOM      1  C   LIG    1       -1.430   3.898  -2.324  0.00  0.00    -0.680 A 
ATOM      2  C   LIG    1       -1.738   5.244  -2.357  0.00  0.00    +0.140 A 
ATOM      3  C   LIG    1       -1.702   5.986  -1.192  0.00  0.00    +0.000 A 
ATOM      4  C   LIG    1       -1.357   5.380  -0.001  0.00  0.00    +0.080 A 
ATOM      5  C   LIG    1       -1.045   4.029   0.034  0.00  0.00    -0.110 A 
ATOM      6  C   LIG    1       -0.670   3.414   1.357  0.00  0.00    +0.270 C 
ATOM      7  N   LIG    1       -0.775   1.953   1.295  0.00  0.00    -0.470 N 
ATOM      8  C   LIG    1       -0.019   1.436   0.144  0.00  0.00    +0.250 C 
ATOM      9  C   LIG    1       -0.759   1.817  -1.139  0.00  0.00    +0.090 C 
ATOM     10  C   LIG    1       -1.084   3.288  -1.127  0.00  0.00    +0.040 A 
ENDROOT
BRANCH   7  11
ATOM     11  C   LIG    1       -0.343   1.373   2.472  0.00  0.00    +0.450 A 
ATOM     12  C   LIG    1       -0.924   1.725   3.705  0.00  0.00    -0.290 A 
ATOM     13  C   LIG    1       -1.946   2.614   4.104  0.00  0.00    +0.300 A 
ATOM     14  N   LIG    1       -2.077   2.538   5.398  0.00  0.00    -0.240 NA
ATOM     15  N   LIG    1       -1.169   1.603   5.910  0.00  0.00    -0.380 N 
ATOM     16  C   LIG    1       -1.014   1.242   7.322  0.00  0.00    +0.370 C 
ATOM     17  C   LIG    1       -0.446   1.097   4.872  0.00  0.00    +0.360 A 
ATOM     18  N   LIG    1        0.539   0.206   4.764  0.00  0.00    -0.550 NA
ATOM     19  C   LIG    1        1.053  -0.086   3.590  0.00  0.00    +0.580 A 
ATOM     20  N   LIG    1        0.634   0.473   2.469  0.00  0.00    -0.580 NA
ENDBRANCH   7  11
BRANCH   1  21
ATOM     21  S   LIG    1       -1.476   2.952  -3.809  0.00  0.00    +2.700 S 
ATOM     22  O   LIG    1       -0.240   2.255  -3.879  0.00  0.00    -0.950 OA
ATOM     23  O   LIG    1       -1.933   3.829  -4.830  0.00  0.00    -0.950 OA
BRANCH  21  25
ATOM     24  C   LIG    1       -4.054   2.202  -3.488  0.00  0.00    +0.290 C 
ATOM     25  N   LIG    1       -2.652   1.801  -3.621  0.00  0.00    -1.120 NA
ATOM     26  H   LIG    1       -2.411   0.861  -3.599  0.00  0.00    +0.420 HD
ENDBRANCH  21  25
ENDBRANCH   1  21
TORSDOF 3
