REMARK  Name = ZINCrD000000AlYy.2
REMARK                            x       y       z     vdW  Elec       q    Type
REMARK                         _______ _______ _______ _____ _____    ______ ____
ROOT
ATOM      1  O   LIG    1       -2.250   1.594   0.476  0.00  0.00    -0.520 OA
ATOM      2  C   LIG    1       -1.197   2.164   0.283  0.00  0.00    +0.520 C 
ATOM      3  N   LIG    1       -0.042   1.470   0.297  0.00  0.00    -0.620 N 
ATOM      4  C   LIG    1        1.245   2.142   0.060  0.00  0.00    +0.280 C 
ATOM      5  C   LIG    1        2.209   1.758   1.187  0.00  0.00    +0.170 C 
ATOM      6  N   LIG    1        2.282   0.294   1.288  0.00  0.00    -0.530 NA
ATOM      7  C   LIG    1        0.980  -0.279   1.653  0.00  0.00    +0.170 C 
ATOM      8  C   LIG    1       -0.035   0.021   0.545  0.00  0.00    +0.300 C 
ENDROOT
BRANCH   6   9
ATOM      9  C   LIG    1        3.323  -0.117   2.240  0.00  0.00    +0.240 C 
BRANCH   9  10
ATOM     10  C   LIG    1        4.578   0.677   1.984  0.00  0.00    -0.130 A 
ATOM     11  C   LIG    1        4.936   1.700   2.841  0.00  0.00    +0.040 A 
ATOM     12  C   LIG    1        6.088   2.429   2.607  0.00  0.00    +0.000 A 
ATOM     13  C   LIG    1        6.882   2.135   1.514  0.00  0.00    +0.040 A 
ATOM     14  C   LIG    1        6.527   1.111   0.656  0.00  0.00    -0.020 A 
ATOM     15  C   LIG    1        5.377   0.378   0.893  0.00  0.00    +0.120 A 
ATOM     16  F   LIG    1        5.032  -0.626   0.058  0.00  0.00    -0.130 F 
ENDBRANCH   9  10
ENDBRANCH   6   9
BRANCH   2  17
ATOM     17  C   LIG    1       -1.181   3.650   0.028  0.00  0.00    +0.190 C 
BRANCH  17  18
ATOM     18  N   LIG    1       -2.561   4.142  -0.084  0.00  0.00    -0.490 NA
ATOM     19  C   LIG    1       -3.229   3.580  -1.277  0.00  0.00    +0.170 C 
ATOM     20  C   LIG    1       -4.182   4.664  -1.814  0.00  0.00    +0.020 C 
ATOM     21  C   LIG    1       -3.986   5.875  -0.873  0.00  0.00    +0.050 C 
ATOM     22  C   LIG    1       -2.586   5.617  -0.262  0.00  0.00    +0.200 C 
BRANCH  22  23
ATOM     23  C   LIG    1       -2.448   6.316   1.065  0.00  0.00    -0.170 A 
ATOM     24  C   LIG    1       -1.725   7.415   1.284  0.00  0.00    +0.000 A 
ATOM     25  C   LIG    1       -1.748   7.879   2.588  0.00  0.00    +0.000 A 
ATOM     26  C   LIG    1       -2.490   7.156   3.429  0.00  0.00    -0.070 A 
ATOM     27  S   LIG    1       -3.221   5.811   2.562  0.00  0.00    +0.150 S 
ENDBRANCH  22  23
ENDBRANCH  17  18
ENDBRANCH   2  17
TORSDOF 5
