REMARK  Name = ZINCtV00000L6kiP.0
REMARK                            x       y       z     vdW  Elec       q    Type
REMARK                         _______ _______ _______ _____ _____    ______ ____
ROOT
ATOM      1  C   LIG    1        0.890   0.023   0.801  0.00  0.00    +0.140 A 
ATOM      2  C   LIG    1        2.193  -0.429   0.643  0.00  0.00    +0.050 A 
ATOM      3  C   LIG    1        3.250   0.447   0.800  0.00  0.00    +0.020 A 
ATOM      4  C   LIG    1        3.011   1.772   1.113  0.00  0.00    +0.110 A 
ATOM      5  C   LIG    1        1.714   2.225   1.272  0.00  0.00    -0.660 A 
ATOM      6  C   LIG    1        0.653   1.355   1.117  0.00  0.00    +0.140 A 
ENDROOT
BRANCH   1   9
ATOM      7  O   LIG    1       -1.442   0.721  -0.277  0.00  0.00    -0.540 OA
ATOM      8  C   LIG    1       -1.350  -0.420   0.133  0.00  0.00    +0.700 C 
ATOM      9  N   LIG    1       -0.183  -0.861   0.643  0.00  0.00    -0.680 N 
ATOM     10  H   LIG    1       -0.087  -1.792   0.900  0.00  0.00    +0.410 HD
ATOM     11  N   LIG    1       -2.415  -1.245   0.077  0.00  0.00    -0.680 N 
ATOM     12  H   LIG    1       -2.366  -2.129   0.473  0.00  0.00    +0.410 HD
BRANCH  11  13
ATOM     13  C   LIG    1       -3.593  -0.825  -0.552  0.00  0.00    +0.180 A 
ATOM     14  C   LIG    1       -4.825  -1.259  -0.083  0.00  0.00    +0.010 A 
ATOM     15  C   LIG    1       -5.987  -0.839  -0.702  0.00  0.00    +0.070 A 
ATOM     16  C   LIG    1       -5.923   0.004  -1.796  0.00  0.00    -0.050 A 
ATOM     17  C   LIG    1       -4.695   0.435  -2.271  0.00  0.00    -0.010 A 
ATOM     18 CL   LIG    1       -4.618   1.494  -3.644  0.00  0.00    -0.040 Cl
ATOM     19 CL   LIG    1       -7.384   0.524  -2.577  0.00  0.00    -0.050 Cl
ATOM     20  C   LIG    1       -3.530   0.022  -1.651  0.00  0.00    +0.060 A 
ENDBRANCH  11  13
ENDBRANCH   1   9
BRANCH   5  21
ATOM     21  S   LIG    1        1.414   3.915   1.671  0.00  0.00    +2.690 S 
ATOM     22  O   LIG    1        0.054   4.169   1.350  0.00  0.00    -0.940 OA
ATOM     23  O   LIG    1        2.494   4.655   1.120  0.00  0.00    -0.940 OA
BRANCH  21  24
ATOM     24  N   LIG    1        1.540   4.059   3.316  0.00  0.00    -1.060 N 
ATOM     25  H   LIG    1        2.220   4.634   3.702  0.00  0.00    +0.430 HD
BRANCH  24  26
ATOM     26  C   LIG    1        0.668   3.354   4.148  0.00  0.00    +0.160 A 
ATOM     27  C   LIG    1       -0.695   3.347   3.881  0.00  0.00    +0.010 A 
ATOM     28  C   LIG    1       -1.555   2.645   4.703  0.00  0.00    +0.060 A 
ATOM     29  C   LIG    1       -1.062   1.957   5.796  0.00  0.00    +0.020 A 
ATOM     30  C   LIG    1        0.295   1.966   6.069  0.00  0.00    -0.020 A 
ATOM     31 CL   LIG    1        0.910   1.101   7.442  0.00  0.00    -0.060 Cl
ATOM     32  C   LIG    1        1.161   2.663   5.247  0.00  0.00    +0.020 A 
ENDBRANCH  24  26
ENDBRANCH  21  24
ENDBRANCH   5  21
TORSDOF 5
