REMARK  Name = ZINCvU00000003Zj.0
REMARK                            x       y       z     vdW  Elec       q    Type
REMARK                         _______ _______ _______ _____ _____    ______ ____
ROOT
ATOM      1  C   LIG    1        2.364   3.736  -0.031  0.00  0.00    +0.160 A 
ATOM      2  N   LIG    1        1.178   3.412  -0.461  0.00  0.00    -0.250 NA
ATOM      3  N   LIG    1        0.608   2.618   0.374  0.00  0.00    -0.310 NA
ATOM      4  C   LIG    1        1.403   2.399   1.394  0.00  0.00    +0.370 A 
ATOM      5  N   LIG    1        2.550   3.102   1.166  0.00  0.00    -0.450 N 
ENDROOT
BRANCH   4   6
ATOM      6  N   LIG    1        1.132   1.600   2.494  0.00  0.00    -0.460 N 
ATOM      7  C   LIG    1       -0.229   1.857   3.013  0.00  0.00    +0.210 C 
ATOM      8  C   LIG    1       -0.716   0.486   3.541  0.00  0.00    +0.030 C 
ATOM      9  C   LIG    1       -0.113  -0.486   2.493  0.00  0.00    +0.030 C 
ATOM     10  C   LIG    1        1.239   0.171   2.147  0.00  0.00    +0.180 C 
BRANCH  10  11
ATOM     11  C   LIG    1        1.525   0.018   0.652  0.00  0.00    -0.000 C 
BRANCH  11  12
ATOM     12  C   LIG    1        1.742  -1.461   0.323  0.00  0.00    +0.030 C 
BRANCH  12  13
ATOM     13  C   LIG    1        2.153  -1.602  -1.144  0.00  0.00    -0.020 C 
ATOM     14  C   LIG    1        0.980  -1.201  -2.062  0.00  0.00    +0.010 C 
ATOM     15  C   LIG    1        1.074  -2.192  -3.250  0.00  0.00    -0.010 C 
ATOM     16  C   LIG    1        1.492  -3.514  -2.561  0.00  0.00    +0.000 C 
ATOM     17  C   LIG    1        2.479  -3.072  -1.461  0.00  0.00    +0.000 C 
ENDBRANCH  12  13
ENDBRANCH  11  12
ENDBRANCH  10  11
ENDBRANCH   4   6
BRANCH   1  18
ATOM     18  C   LIG    1        3.349   4.641  -0.725  0.00  0.00    +0.350 C 
BRANCH  18  19
ATOM     19  O   LIG    1        4.184   3.866  -1.587  0.00  0.00    -0.300 OA
BRANCH  19  23
ATOM     20  C   LIG    1        7.069   5.900  -3.728  0.00  0.00    -0.070 A 
ATOM     21  C   LIG    1        6.942   4.514  -3.864  0.00  0.00    +0.110 A 
ATOM     22  C   LIG    1        5.978   3.840  -3.148  0.00  0.00    -0.010 A 
ATOM     23  C   LIG    1        5.133   4.535  -2.291  0.00  0.00    +0.160 A 
ATOM     24  C   LIG    1        5.252   5.913  -2.158  0.00  0.00    -0.070 A 
ATOM     25  C   LIG    1        6.217   6.594  -2.866  0.00  0.00    +0.110 A 
BRANCH  20  27
ATOM     26  N   LIG    1        8.865   7.164  -5.059  0.00  0.00    -0.420 NA
ATOM     27  C   LIG    1        8.071   6.605  -4.470  0.00  0.00    +0.250 C 
ENDBRANCH  20  27
ENDBRANCH  19  23
ENDBRANCH  18  19
ENDBRANCH   1  18
BRANCH   5  28
ATOM     28  C   LIG    1        3.735   3.166   2.026  0.00  0.00    +0.350 C 
BRANCH  28  29
ATOM     29  C   LIG    1        4.707   2.050   1.637  0.00  0.00    -0.070 C 
ATOM     30  C   LIG    1        5.000   0.972   2.683  0.00  0.00    +0.030 C 
ATOM     31  C   LIG    1        6.064   2.018   2.343  0.00  0.00    +0.030 C 
ENDBRANCH  28  29
ENDBRANCH   5  28
TORSDOF 10
