REMARK  Name = ZINCrg000000puPj.0
REMARK                            x       y       z     vdW  Elec       q    Type
REMARK                         _______ _______ _______ _____ _____    ______ ____
ROOT
ATOM      1  N   LIG    1       -1.247  -4.834  -0.011  0.00  0.00    -0.680 N 
ATOM      2  H   LIG    1       -0.552  -4.334   0.445  0.00  0.00    +0.400 HD
ATOM      3  C   LIG    1       -2.186  -4.184  -0.728  0.00  0.00    +0.710 C 
ATOM      4  N   LIG    1       -2.224  -2.837  -0.723  0.00  0.00    -0.520 N 
ATOM      5  H   LIG    1       -2.900  -2.369  -1.238  0.00  0.00    +0.450 HD
ATOM      6  O   LIG    1       -2.998  -4.813  -1.378  0.00  0.00    -0.540 OA
ENDROOT
BRANCH   1  10
ATOM      7  C   LIG    1       -1.329  -8.991   0.244  0.00  0.00    -0.150 A 
ATOM      8  C   LIG    1       -0.106  -8.313   0.242  0.00  0.00    +0.110 A 
ATOM      9  C   LIG    1       -0.083  -6.939   0.158  0.00  0.00    -0.010 A 
ATOM     10  C   LIG    1       -1.274  -6.225   0.074  0.00  0.00    +0.190 A 
ATOM     11  C   LIG    1       -2.493  -6.896   0.080  0.00  0.00    +0.010 A 
ATOM     12  C   LIG    1       -2.523  -8.271   0.159  0.00  0.00    +0.070 A 
BRANCH   7  15
ATOM     13  N   LIG    1       -2.537 -11.115   0.336  0.00  0.00    -0.720 N 
ATOM     14  H   LIG    1       -3.367 -10.617   0.277  0.00  0.00    +0.410 HD
ATOM     15  C   LIG    1       -1.358 -10.463   0.335  0.00  0.00    +0.570 C 
ATOM     16  O   LIG    1       -0.317 -11.088   0.409  0.00  0.00    -0.530 OA
BRANCH  13  17
ATOM     17  C   LIG    1       -2.566 -12.577   0.426  0.00  0.00    +0.370 C 
BRANCH  17  18
ATOM     18  C   LIG    1       -3.996 -13.054   0.408  0.00  0.00    +0.460 C 
ATOM     19  O   LIG    1       -4.898 -12.254   0.328  0.00  0.00    -0.500 OA
BRANCH  18  21
ATOM     20  C   LIG    1       -5.666 -14.753   0.458  0.00  0.00    +0.290 C 
ATOM     21  O   LIG    1       -4.267 -14.366   0.481  0.00  0.00    -0.350 OA
ENDBRANCH  18  21
ENDBRANCH  17  18
ENDBRANCH  13  17
ENDBRANCH   7  15
ENDBRANCH   1  10
BRANCH   4  22
ATOM     22  N   LIG    1       -1.288  -2.112   0.027  0.00  0.00    -0.530 N 
ATOM     23  H   LIG    1       -0.613  -2.580   0.542  0.00  0.00    +0.420 HD
ATOM     24  C   LIG    1       -1.327  -0.765   0.032  0.00  0.00    +0.570 C 
ATOM     25  O   LIG    1       -2.173  -0.179  -0.614  0.00  0.00    -0.520 OA
BRANCH  24  26
ATOM     26  C   LIG    1       -0.339   0.000   0.822  0.00  0.00    -0.130 A 
ATOM     27  C   LIG    1       -0.376   1.395   0.830  0.00  0.00    +0.090 A 
ATOM     28  C   LIG    1        0.548   2.103   1.570  0.00  0.00    +0.020 A 
ATOM     29  C   LIG    1        1.510   1.433   2.304  0.00  0.00    +0.040 A 
ATOM     30  C   LIG    1        1.552   0.050   2.301  0.00  0.00    +0.010 A 
ATOM     31  C   LIG    1        0.634  -0.670   1.565  0.00  0.00    +0.030 A 
ENDBRANCH  24  26
ENDBRANCH   4  22
TORSDOF 7
