REMARK  Name = ZINCrD000006V8qd.0
REMARK                            x       y       z     vdW  Elec       q    Type
REMARK                         _______ _______ _______ _____ _____    ______ ____
ROOT
ATOM      1  N   LIG    1       -7.165   3.686  -0.362  0.00  0.00    -0.660 N 
ATOM      2  H   LIG    1       -7.467   4.550  -0.042  0.00  0.00    +0.420 HD
ATOM      3  C   LIG    1       -5.862   3.353  -0.276  0.00  0.00    +0.480 C 
ATOM      4  O   LIG    1       -5.497   2.244  -0.602  0.00  0.00    -0.510 OA
ENDROOT
BRANCH   1  10
ATOM      5  C   LIG    1       -9.161   3.253  -1.662  0.00  0.00    +0.160 A 
ATOM      6  C   LIG    1      -10.066   2.356  -2.206  0.00  0.00    -0.030 A 
ATOM      7  C   LIG    1       -9.899   0.998  -2.005  0.00  0.00    +0.140 A 
ATOM      8  C   LIG    1       -8.830   0.531  -1.263  0.00  0.00    -0.060 A 
ATOM      9  C   LIG    1       -7.920   1.420  -0.722  0.00  0.00    +0.150 A 
ATOM     10  C   LIG    1       -8.084   2.783  -0.914  0.00  0.00    +0.120 A 
BRANCH   8  11
ATOM     11  N   LIG    1       -8.656  -0.924  -1.054  0.00  0.00    +0.030 N 
ATOM     12  O   LIG    1       -7.715  -1.336  -0.400  0.00  0.00    -0.160 OA
ATOM     13  O   LIG    1       -9.454  -1.708  -1.534  0.00  0.00    -0.160 OA
ENDBRANCH   8  11
BRANCH   5  15
ATOM     14  C   LIG    1      -10.451   4.997  -2.636  0.00  0.00    +0.260 C 
ATOM     15  O   LIG    1       -9.324   4.588  -1.859  0.00  0.00    -0.300 OA
ENDBRANCH   5  15
ENDBRANCH   1  10
BRANCH   3  16
ATOM     16  C   LIG    1       -4.859   4.361   0.224  0.00  0.00    +0.270 C 
BRANCH  16  17
ATOM     17  N   LIG    1       -3.518   3.759   0.223  0.00  0.00    -0.500 NA
ATOM     18  C   LIG    1       -3.432   2.665   1.199  0.00  0.00    +0.220 C 
ATOM     19  C   LIG    1       -2.101   1.978   1.092  0.00  0.00    -0.030 C 
ATOM     20  C   LIG    1       -1.311   2.103   0.049  0.00  0.00    -0.080 C 
ATOM     21  C   LIG    1       -1.659   2.960  -1.135  0.00  0.00    +0.090 C 
ATOM     22  C   LIG    1       -3.159   3.273  -1.120  0.00  0.00    +0.180 C 
BRANCH  20  23
ATOM     23  C   LIG    1       -0.024   1.375   0.044  0.00  0.00    -0.050 A 
ATOM     24  C   LIG    1        1.180   2.081   0.048  0.00  0.00    +0.010 A 
ATOM     25  C   LIG    1        2.378   1.397   0.036  0.00  0.00    +0.000 A 
ATOM     26  C   LIG    1        2.387   0.013   0.022  0.00  0.00    +0.000 A 
ATOM     27  C   LIG    1        1.197  -0.692   0.019  0.00  0.00    +0.000 A 
ATOM     28  C   LIG    1       -0.007  -0.020   0.029  0.00  0.00    +0.010 A 
ENDBRANCH  20  23
ENDBRANCH  16  17
ENDBRANCH   3  16
TORSDOF 6
