REMARK  Name = ZINCrD00000l4GYp.0
REMARK                            x       y       z     vdW  Elec       q    Type
REMARK                         _______ _______ _______ _____ _____    ______ ____
ROOT
ATOM      1  C   LIG    1        0.040   1.342  -0.102  0.00  0.00    +0.050 C 
ATOM      2  C   LIG    1        0.076  -0.183   0.004  0.00  0.00    +0.160 C 
ATOM      3  C   LIG    1        0.845  -0.764  -1.190  0.00  0.00    +0.070 C 
ATOM      4  C   LIG    1        0.692  -2.286  -1.155  0.00  0.00    +0.040 C 
ATOM      5  C   LIG    1        0.955  -2.793   0.241  0.00  0.00    -0.120 A 
ATOM      6  C   LIG    1        1.181  -4.149   0.411  0.00  0.00    +0.030 A 
ATOM      7  C   LIG    1        1.414  -4.668   1.670  0.00  0.00    -0.030 A 
ATOM      8  C   LIG    1        1.423  -3.830   2.769  0.00  0.00    +0.030 A 
ATOM      9  C   LIG    1        1.202  -2.479   2.607  0.00  0.00    -0.020 A 
ATOM     10  C   LIG    1        0.969  -1.949   1.338  0.00  0.00    +0.150 A 
ATOM     11  N   LIG    1        0.759  -0.574   1.239  0.00  0.00    -0.480 N 
ENDROOT
BRANCH   4  12
ATOM     12  C   LIG    1       -0.711  -2.655  -1.566  0.00  0.00    +0.530 C 
ATOM     13  O   LIG    1       -1.507  -1.786  -1.853  0.00  0.00    -0.530 OA
ATOM     14  N   LIG    1       -1.080  -3.950  -1.615  0.00  0.00    -0.850 N 
ATOM     15  H   LIG    1       -1.982  -4.188  -1.879  0.00  0.00    +0.400 HD
ATOM     16  H   LIG    1       -0.443  -4.645  -1.385  0.00  0.00    +0.400 HD
ENDBRANCH   4  12
BRANCH  11  17
ATOM     17  C   LIG    1        0.046  -0.064   2.418  0.00  0.00    +0.350 C 
BRANCH  17  18
ATOM     18  C   LIG    1       -1.313  -0.710   2.502  0.00  0.00    +0.050 A 
ATOM     19  N   LIG    1       -2.393  -0.308   1.880  0.00  0.00    -0.260 NA
ATOM     20  N   LIG    1       -3.440  -1.175   2.218  0.00  0.00    -0.320 N 
ATOM     21  C   LIG    1       -2.952  -2.104   3.070  0.00  0.00    +0.230 A 
ATOM     22  C   LIG    1       -1.639  -1.839   3.261  0.00  0.00    -0.080 A 
BRANCH  20  23
ATOM     23  C   LIG    1       -4.762  -1.090   1.758  0.00  0.00    +0.190 A 
ATOM     24  C   LIG    1       -5.129  -0.079   0.880  0.00  0.00    +0.010 A 
ATOM     25  C   LIG    1       -6.431   0.003   0.427  0.00  0.00    +0.080 A 
ATOM     26  C   LIG    1       -7.370  -0.921   0.846  0.00  0.00    -0.020 A 
ATOM     27  C   LIG    1       -7.008  -1.932   1.721  0.00  0.00    +0.130 A 
ATOM     28  F   LIG    1       -7.927  -2.834   2.129  0.00  0.00    -0.130 F 
ATOM     29  C   LIG    1       -5.704  -2.021   2.174  0.00  0.00    -0.040 A 
ENDBRANCH  20  23
ENDBRANCH  17  18
ENDBRANCH  11  17
TORSDOF 4
