REMARK  Name = ZINCqH0000036RD3.0
REMARK                            x       y       z     vdW  Elec       q    Type
REMARK                         _______ _______ _______ _____ _____    ______ ____
ROOT
ATOM      1  N   LIG    1        0.170   1.030   2.348  0.00  0.00    -0.740 N 
ATOM      2  H   LIG    1        0.878   1.557   2.751  0.00  0.00    +0.400 HD
ENDROOT
BRANCH   1   7
ATOM      3  C   LIG    1       -1.235   3.501  -2.627  0.00  0.00    +0.030 C 
ATOM      4  C   LIG    1       -0.508   2.983  -1.384  0.00  0.00    -0.010 C 
ATOM      5  C   LIG    1       -0.601   1.456  -1.339  0.00  0.00    +0.020 C 
ATOM      6  C   LIG    1        0.125   0.938  -0.096  0.00  0.00    +0.020 C 
ATOM      7  C   LIG    1       -0.526   1.526   1.158  0.00  0.00    +0.240 C 
ATOM      8  C   LIG    1       -0.433   3.053   1.112  0.00  0.00    +0.260 C 
ATOM      9  C   LIG    1       -1.159   3.571  -0.131  0.00  0.00    +0.040 C 
BRANCH   8  10
ATOM     10  N   LIG    1       -1.056   3.616   2.312  0.00  0.00    -0.370 N 
ATOM     11  C   LIG    1       -2.361   3.886   2.492  0.00  0.00    +0.460 A 
ATOM     12  N   LIG    1       -2.513   4.376   3.695  0.00  0.00    -0.540 NA
ATOM     13  C   LIG    1       -1.332   4.441   4.309  0.00  0.00    +0.410 A 
ATOM     14  N   LIG    1       -0.409   3.987   3.502  0.00  0.00    -0.320 NA
ENDBRANCH   8  10
ENDBRANCH   1   7
BRANCH   1  15
ATOM     15  C   LIG    1       -0.187  -0.201   2.903  0.00  0.00    +0.240 A 
ATOM     16  C   LIG    1       -1.202  -0.955   2.327  0.00  0.00    -0.070 A 
ATOM     17  C   LIG    1       -1.555  -2.173   2.877  0.00  0.00    +0.070 A 
ATOM     18  C   LIG    1       -0.901  -2.643   3.999  0.00  0.00    -0.040 A 
ATOM     19  C   LIG    1        0.114  -1.893   4.579  0.00  0.00    +0.140 A 
ATOM     20  C   LIG    1        0.475  -0.674   4.027  0.00  0.00    -0.070 A 
BRANCH  19  21
ATOM     21  O   LIG    1        0.756  -2.357   5.683  0.00  0.00    -0.230 OA
BRANCH  21  22
ATOM     22  C   LIG    1        0.545  -1.716   6.858  0.00  0.00    +0.500 A 
ATOM     23  N   LIG    1       -0.352  -0.745   6.911  0.00  0.00    -0.550 NA
ATOM     24  C   LIG    1       -0.587  -0.102   8.043  0.00  0.00    +0.360 A 
ATOM     25  C   LIG    1        0.128  -0.450   9.178  0.00  0.00    -0.110 A 
ATOM     26  C   LIG    1        1.063  -1.469   9.085  0.00  0.00    +0.370 A 
ATOM     27  N   LIG    1        1.244  -2.074   7.923  0.00  0.00    -0.520 NA
ENDBRANCH  21  22
ENDBRANCH  19  21
ENDBRANCH   1  15
TORSDOF 5
