REMARK  Name = ZINCpe000027pHu2.0
REMARK                            x       y       z     vdW  Elec       q    Type
REMARK                         _______ _______ _______ _____ _____    ______ ____
ROOT
ATOM      1  N   LIG    1       -7.247   2.677  -2.253  0.00  0.00    -0.530 NA
ATOM      2  C   LIG    1       -7.087   1.217  -2.220  0.00  0.00    +0.180 C 
ATOM      3  C   LIG    1       -6.455   0.805  -0.888  0.00  0.00    +0.190 C 
ATOM      4  N   LIG    1       -5.157   1.478  -0.736  0.00  0.00    -0.520 NA
ATOM      5  C   LIG    1       -5.318   2.939  -0.769  0.00  0.00    +0.190 C 
ATOM      6  C   LIG    1       -5.949   3.350  -2.101  0.00  0.00    +0.200 C 
ENDROOT
BRANCH   1   7
ATOM      7  C   LIG    1       -7.920   3.105  -3.487  0.00  0.00    +0.270 C 
ATOM      8  C   LIG    1       -8.181   4.612  -3.429  0.00  0.00    +0.080 C 
BRANCH   7  13
ATOM      9  C   LIG    1      -11.808   0.490  -5.253  0.00  0.00    +0.210 C 
ATOM     10  C   LIG    1      -10.880   1.269  -4.358  0.00  0.00    +0.170 A 
ATOM     11  N   LIG    1      -11.085   1.567  -3.110  0.00  0.00    -0.390 NA
ATOM     12  O   LIG    1      -10.147   2.196  -2.668  0.00  0.00    +0.090 OA
ATOM     13  C   LIG    1       -9.230   2.373  -3.624  0.00  0.00    +0.190 A 
ATOM     14  N   LIG    1       -9.686   1.783  -4.703  0.00  0.00    -0.480 NA
ENDBRANCH   7  13
ENDBRANCH   1   7
BRANCH   4  15
ATOM     15  C   LIG    1       -4.484   1.050   0.498  0.00  0.00    +0.220 C 
BRANCH  15  16
ATOM     16  C   LIG    1       -3.067   1.563   0.501  0.00  0.00    +0.520 C 
ATOM     17  N   LIG    1       -2.254   1.292   1.541  0.00  0.00    -0.720 N 
ATOM     18  H   LIG    1       -2.581   0.766   2.287  0.00  0.00    +0.410 HD
ATOM     19  O   LIG    1       -2.659   2.221  -0.433  0.00  0.00    -0.500 OA
BRANCH  17  20
ATOM     20  C   LIG    1       -0.877   1.790   1.544  0.00  0.00    +0.310 C 
ATOM     21  C   LIG    1       -0.129   1.228   0.333  0.00  0.00    +0.080 C 
BRANCH  20  22
ATOM     22  C   LIG    1       -0.176   1.344   2.828  0.00  0.00    -0.040 C 
ATOM     23  C   LIG    1        0.280   2.435   3.800  0.00  0.00    +0.030 C 
ATOM     24  C   LIG    1        1.313   1.669   2.970  0.00  0.00    +0.050 C 
ENDBRANCH  20  22
BRANCH  20  25
ATOM     25  C   LIG    1       -0.887   3.260   1.475  0.00  0.00    +0.200 C 
ATOM     26  N   LIG    1       -0.895   4.395   1.422  0.00  0.00    -0.410 NA
ENDBRANCH  20  25
ENDBRANCH  17  20
ENDBRANCH  15  16
ENDBRANCH   4  15
TORSDOF 7
