REMARK  Name = ZINCqH0000005Sv4.0
REMARK                            x       y       z     vdW  Elec       q    Type
REMARK                         _______ _______ _______ _____ _____    ______ ____
ROOT
ATOM      1  N   LIG    1       -0.065   5.528   0.031  0.00  0.00    -0.660 N 
ATOM      2  H   LIG    1        0.769   6.018   0.107  0.00  0.00    +0.420 HD
ATOM      3  C   LIG    1       -1.232   6.195  -0.056  0.00  0.00    +0.570 C 
ATOM      4  O   LIG    1       -2.284   5.583  -0.049  0.00  0.00    -0.500 OA
ENDROOT
BRANCH   1   7
ATOM      5  C   LIG    1       -1.077   2.039  -0.610  0.00  0.00    -0.150 A 
ATOM      6  C   LIG    1       -1.093   3.436  -0.588  0.00  0.00    +0.160 A 
ATOM      7  C   LIG    1       -0.055   4.127   0.013  0.00  0.00    +0.100 A 
ATOM      8  C   LIG    1        1.000   3.430   0.599  0.00  0.00    +0.140 A 
ATOM      9  C   LIG    1        1.014   2.046   0.584  0.00  0.00    -0.010 A 
ATOM     10  F   LIG    1        2.011   4.108   1.185  0.00  0.00    -0.120 F 
ATOM     11  C   LIG    1       -0.017   1.347  -0.013  0.00  0.00    +0.180 A 
ATOM     12  F   LIG    1        0.001  -0.004  -0.027  0.00  0.00    -0.100 F 
BRANCH   5  13
ATOM     13  C   LIG    1       -2.176   1.297  -1.254  0.00  0.00    +0.510 C 
ATOM     14  O   LIG    1       -2.163   0.082  -1.268  0.00  0.00    -0.490 OA
BRANCH  13  16
ATOM     15  C   LIG    1       -4.243   1.171  -2.443  0.00  0.00    +0.290 C 
ATOM     16  O   LIG    1       -3.196   1.966  -1.828  0.00  0.00    -0.350 OA
ENDBRANCH  13  16
ENDBRANCH   5  13
ENDBRANCH   1   7
BRANCH   3  17
ATOM     17  C   LIG    1       -1.236   7.669  -0.159  0.00  0.00    -0.040 A 
ATOM     18  C   LIG    1       -0.030   8.373  -0.161  0.00  0.00    -0.070 A 
ATOM     19  C   LIG    1       -0.037   9.754  -0.264  0.00  0.00    +0.190 A 
ATOM     20  C   LIG    1       -1.242  10.439  -0.353  0.00  0.00    -0.140 A 
ATOM     21  C   LIG    1       -2.443   9.743  -0.346  0.00  0.00    +0.190 A 
ATOM     22 BR   LIG    1       -1.246  12.325  -0.485  0.00  0.00    -0.010 Br
ATOM     23  C   LIG    1       -2.444   8.361  -0.249  0.00  0.00    -0.020 A 
BRANCH  21  24
ATOM     24  O   LIG    1       -3.619  10.418  -0.433  0.00  0.00    -0.290 OA
ATOM     25  C   LIG    1       -4.817   9.639  -0.420  0.00  0.00    +0.250 C 
ENDBRANCH  21  24
BRANCH  19  26
ATOM     26  O   LIG    1        1.136  10.439  -0.272  0.00  0.00    -0.290 OA
ATOM     27  C   LIG    1        2.337   9.671  -0.177  0.00  0.00    +0.250 C 
ENDBRANCH  19  26
ENDBRANCH   3  17
TORSDOF 6
