REMARK  Name = ZINCqH00000081lK.0
REMARK                            x       y       z     vdW  Elec       q    Type
REMARK                         _______ _______ _______ _____ _____    ______ ____
ROOT
ATOM      1  C   LIG    1       -3.398   3.439   1.213  0.00  0.00    +0.530 C 
ATOM      2  N   LIG    1       -4.570   4.056   1.462  0.00  0.00    -0.600 N 
ATOM      3  C   LIG    1       -5.090   5.075   0.540  0.00  0.00    +0.270 C 
ATOM      4  C   LIG    1       -5.391   6.350   1.333  0.00  0.00    +0.020 C 
ATOM      5  C   LIG    1       -6.331   6.014   2.493  0.00  0.00    +0.000 C 
ATOM      6  C   LIG    1       -5.652   5.012   3.429  0.00  0.00    +0.180 C 
ATOM      7  C   LIG    1       -5.356   3.718   2.656  0.00  0.00    +0.300 C 
ATOM      8  O   LIG    1       -3.024   2.536   1.932  0.00  0.00    -0.520 OA
ENDROOT
BRANCH   1   9
ATOM      9  C   LIG    1       -2.553   3.870   0.043  0.00  0.00    +0.060 C 
BRANCH   9  10
ATOM     10  C   LIG    1       -1.695   5.042   0.448  0.00  0.00    -0.080 A 
ATOM     11  C   LIG    1       -0.785   4.908   1.480  0.00  0.00    +0.030 A 
ATOM     12  C   LIG    1       -0.003   5.984   1.855  0.00  0.00    +0.000 A 
ATOM     13  C   LIG    1       -0.122   7.191   1.191  0.00  0.00    +0.010 A 
ATOM     14  C   LIG    1       -1.028   7.322   0.155  0.00  0.00    +0.010 A 
ATOM     15  C   LIG    1       -1.814   6.248  -0.217  0.00  0.00    +0.010 A 
ENDBRANCH   9  10
BRANCH   9  16
ATOM     16  C   LIG    1       -1.657   2.709  -0.394  0.00  0.00    +0.120 C 
BRANCH  16  18
ATOM     17  C   LIG    1       -1.465   0.100  -1.497  0.00  0.00    +0.140 C 
ATOM     18  S   LIG    1       -2.686   1.361  -1.038  0.00  0.00    -0.260 S 
ENDBRANCH  16  18
ENDBRANCH   9  16
ENDBRANCH   1   9
BRANCH   6  19
ATOM     19  O   LIG    1       -6.518   4.722   4.528  0.00  0.00    -0.290 OA
BRANCH  19  20
ATOM     20  C   LIG    1       -6.405   5.511   5.627  0.00  0.00    +0.300 A 
ATOM     21  N   LIG    1       -5.520   6.493   5.639  0.00  0.00    -0.510 NA
ATOM     22  C   LIG    1       -5.376   7.283   6.687  0.00  0.00    +0.300 A 
ATOM     23  C   LIG    1       -6.152   7.111   7.815  0.00  0.00    -0.030 A 
ATOM     24  C   LIG    1       -7.094   6.092   7.844  0.00  0.00    +0.090 A 
ATOM     25  C   LIG    1       -7.225   5.282   6.727  0.00  0.00    +0.030 A 
ATOM     26  F   LIG    1       -8.133   4.282   6.708  0.00  0.00    -0.120 F 
ENDBRANCH  19  20
ENDBRANCH   6  19
TORSDOF 6
