REMARK  Name = ZINCpk00000KfKqW.0
REMARK                            x       y       z     vdW  Elec       q    Type
REMARK                         _______ _______ _______ _____ _____    ______ ____
ROOT
ATOM      1  N   LIG    1       -0.863   3.595  -1.314  0.00  0.00    -0.500 NA
ATOM      2  C   LIG    1       -0.770   2.265  -0.667  0.00  0.00    +0.180 C 
ATOM      3  C   LIG    1       -0.247   2.349   0.695  0.00  0.00    +0.050 C 
ATOM      4  C   LIG    1       -1.153   3.205   1.605  0.00  0.00    +0.160 C 
ATOM      5  N   LIG    1       -0.891   4.599   1.336  0.00  0.00    -0.520 NA
ATOM      6  C   LIG    1       -1.794   5.203   0.329  0.00  0.00    +0.200 C 
ATOM      7  C   LIG    1       -2.055   4.275  -0.871  0.00  0.00    +0.160 C 
ENDROOT
BRANCH   5   8
ATOM      8  C   LIG    1       -0.886   5.384   2.577  0.00  0.00    +0.230 C 
ATOM      9  C   LIG    1       -0.407   6.806   2.280  0.00  0.00    +0.070 C 
BRANCH   8  10
ATOM     10  C   LIG    1        0.042   4.740   3.575  0.00  0.00    +0.190 A 
ATOM     11  N   LIG    1        1.245   4.275   3.339  0.00  0.00    -0.270 NA
ATOM     12  N   LIG    1        1.715   3.807   4.443  0.00  0.00    -0.080 NA
ATOM     13  N   LIG    1        0.840   3.953   5.376  0.00  0.00    -0.100 NA
ATOM     14  N   LIG    1       -0.205   4.525   4.880  0.00  0.00    -0.280 N 
BRANCH  14  15
ATOM     15  C   LIG    1       -1.431   4.875   5.603  0.00  0.00    +0.200 C 
ATOM     16  C   LIG    1       -1.421   4.723   7.125  0.00  0.00    +0.090 C 
ATOM     17  C   LIG    1       -2.211   3.736   6.263  0.00  0.00    +0.070 C 
ENDBRANCH  14  15
ENDBRANCH   8  10
ENDBRANCH   5   8
BRANCH   1  18
ATOM     18  C   LIG    1       -0.840   3.471  -2.777  0.00  0.00    +0.340 C 
BRANCH  18  23
ATOM     19  N   LIG    1       -3.172   3.717  -3.760  0.00  0.00    -0.450 N 
ATOM     20  C   LIG    1       -4.201   2.872  -4.078  0.00  0.00    +0.110 A 
ATOM     21  C   LIG    1       -3.794   1.628  -3.762  0.00  0.00    +0.140 A 
ATOM     22  N   LIG    1       -2.550   1.710  -3.268  0.00  0.00    -0.480 NA
ATOM     23  C   LIG    1       -2.172   2.960  -3.260  0.00  0.00    +0.170 A 
BRANCH  19  25
ATOM     24  C   LIG    1       -2.547   5.522  -5.287  0.00  0.00    +0.040 C 
ATOM     25  C   LIG    1       -3.159   5.172  -3.929  0.00  0.00    +0.280 C 
ENDBRANCH  19  25
ENDBRANCH  18  23
ENDBRANCH   1  18
TORSDOF 6
