REMARK  Name = ZINCpk00000ebHjC.0
REMARK                            x       y       z     vdW  Elec       q    Type
REMARK                         _______ _______ _______ _____ _____    ______ ____
ROOT
ATOM      1  C   LIG    1       -5.884   3.059   0.049  0.00  0.00    +0.080 A 
ATOM      2  C   LIG    1       -7.187   2.701   0.048  0.00  0.00    -0.010 A 
ATOM      3  S   LIG    1       -8.162   4.168   0.067  0.00  0.00    +0.100 S 
ATOM      4  C   LIG    1       -6.699   5.147   0.063  0.00  0.00    +0.350 A 
ATOM      5  N   LIG    1       -5.659   4.376   0.054  0.00  0.00    -0.510 NA
ENDROOT
BRANCH   1   7
ATOM      6  O   LIG    1       -5.050   0.884   0.033  0.00  0.00    -0.490 OA
ATOM      7  C   LIG    1       -4.794   2.072   0.038  0.00  0.00    +0.550 C 
BRANCH   7   8
ATOM      8  O   LIG    1       -3.510   2.485   0.033  0.00  0.00    -0.320 OA
BRANCH   8   9
ATOM      9  C   LIG    1       -2.487   1.456   0.023  0.00  0.00    +0.300 C 
BRANCH   9  10
ATOM     10  C   LIG    1       -1.125   2.101   0.019  0.00  0.00    +0.550 C 
ATOM     11  N   LIG    1       -0.016   1.335   0.009  0.00  0.00    -0.580 N 
ATOM     12  C   LIG    1        1.366   1.837  -0.001  0.00  0.00    +0.280 C 
ATOM     13  C   LIG    1        2.224   0.557  -0.016  0.00  0.00    +0.290 C 
ATOM     14  N   LIG    1        1.234  -0.530  -0.013  0.00  0.00    -0.720 N 
ATOM     15  H   LIG    1        1.440  -1.478  -0.020  0.00  0.00    +0.440 HD
ATOM     16  C   LIG    1        0.002  -0.004   0.002  0.00  0.00    +0.700 C 
ATOM     17  O   LIG    1       -1.008  -0.681   0.008  0.00  0.00    -0.550 OA
ATOM     18  O   LIG    1       -1.027   3.309   0.025  0.00  0.00    -0.470 OA
ENDBRANCH   9  10
ENDBRANCH   8   9
ENDBRANCH   7   8
ENDBRANCH   1   7
BRANCH   4  19
ATOM     19  N   LIG    1       -6.665   6.532   0.070  0.00  0.00    -0.680 N 
ATOM     20  H   LIG    1       -5.813   6.996   0.068  0.00  0.00    +0.420 HD
BRANCH  19  21
ATOM     21  C   LIG    1       -7.915   7.295   0.080  0.00  0.00    +0.320 C 
BRANCH  21  22
ATOM     22  C   LIG    1       -7.604   8.769   0.086  0.00  0.00    -0.110 A 
ATOM     23  C   LIG    1       -7.461   9.441   1.286  0.00  0.00    +0.030 A 
ATOM     24  C   LIG    1       -7.170  10.792   1.291  0.00  0.00    +0.010 A 
ATOM     25  C   LIG    1       -7.034  11.474   0.097  0.00  0.00    +0.020 A 
ATOM     26  C   LIG    1       -7.183  10.804  -1.103  0.00  0.00    +0.010 A 
ATOM     27  C   LIG    1       -7.468   9.451  -1.108  0.00  0.00    +0.030 A 
ENDBRANCH  21  22
ENDBRANCH  19  21
ENDBRANCH   4  19
TORSDOF 7
