REMARK  Name = ZINCvU0000000GGD.0
REMARK                            x       y       z     vdW  Elec       q    Type
REMARK                         _______ _______ _______ _____ _____    ______ ____
ROOT
ATOM      1  C   LIG    1        4.847   2.437   2.856  0.00  0.00    -0.680 A 
ATOM      2  C   LIG    1        3.759   2.726   3.660  0.00  0.00    +0.160 A 
ATOM      3  C   LIG    1        3.453   1.915   4.738  0.00  0.00    +0.000 A 
ATOM      4  C   LIG    1        4.238   0.817   5.025  0.00  0.00    +0.100 A 
ATOM      5  C   LIG    1        5.341   0.523   4.221  0.00  0.00    -0.150 A 
ATOM      6  C   LIG    1        5.641   1.342   3.131  0.00  0.00    +0.190 A 
ENDROOT
BRANCH   5   7
ATOM      7  C   LIG    1        6.187  -0.651   4.522  0.00  0.00    +0.560 C 
ATOM      8  N   LIG    1        5.894  -1.440   5.575  0.00  0.00    -0.670 N 
ATOM      9  H   LIG    1        5.085  -1.285   6.087  0.00  0.00    +0.410 HD
ATOM     10  O   LIG    1        7.146  -0.905   3.821  0.00  0.00    -0.510 OA
BRANCH   8  11
ATOM     11  C   LIG    1        6.758  -2.481   5.930  0.00  0.00    +0.130 A 
ATOM     12  C   LIG    1        7.088  -3.458   5.000  0.00  0.00    -0.070 A 
ATOM     13  C   LIG    1        7.941  -4.486   5.353  0.00  0.00    +0.010 A 
ATOM     14  C   LIG    1        8.466  -4.542   6.631  0.00  0.00    +0.020 A 
ATOM     15  C   LIG    1        8.139  -3.570   7.559  0.00  0.00    +0.020 A 
ATOM     16  C   LIG    1        6.517  -3.398   3.607  0.00  0.00    +0.090 C 
ATOM     17  C   LIG    1        7.291  -2.538   7.211  0.00  0.00    -0.080 A 
BRANCH  17  18
ATOM     18  C   LIG    1        6.940  -1.476   8.222  0.00  0.00    +0.060 C 
ATOM     19  C   LIG    1        5.624  -1.844   8.911  0.00  0.00    +0.020 C 
ENDBRANCH  17  18
ENDBRANCH   8  11
ENDBRANCH   5   7
BRANCH   1  20
ATOM     20  S   LIG    1        5.224   3.472   1.481  0.00  0.00    +2.680 S 
ATOM     21  O   LIG    1        4.642   4.738   1.760  0.00  0.00    -0.940 OA
ATOM     22  O   LIG    1        6.609   3.296   1.213  0.00  0.00    -0.940 OA
BRANCH  20  23
ATOM     23  N   LIG    1        4.414   2.863   0.171  0.00  0.00    -0.940 N 
BRANCH  23  24
ATOM     24  C   LIG    1        3.167   3.383  -0.182  0.00  0.00    +0.130 A 
ATOM     25  C   LIG    1        3.038   4.729  -0.499  0.00  0.00    +0.030 A 
ATOM     26  C   LIG    1        1.803   5.241  -0.843  0.00  0.00    +0.020 A 
ATOM     27  C   LIG    1        0.696   4.413  -0.883  0.00  0.00    +0.010 A 
ATOM     28  C   LIG    1        0.820   3.072  -0.567  0.00  0.00    +0.020 A 
ATOM     29  C   LIG    1        2.052   2.555  -0.217  0.00  0.00    +0.010 A 
ENDBRANCH  23  24
BRANCH  23  30
ATOM     30  C   LIG    1        5.005   1.778  -0.617  0.00  0.00    +0.330 C 
BRANCH  30  32
ATOM     31  C   LIG    1        7.004   2.063  -1.990  0.00  0.00    +0.050 C 
ATOM     32  C   LIG    1        5.742   2.358  -1.796  0.00  0.00    -0.080 C 
ENDBRANCH  30  32
ENDBRANCH  23  30
ENDBRANCH  20  23
ENDBRANCH   1  20
TORSDOF 8
