REMARK  Name = ZINCrH000004uLPu.0
REMARK                            x       y       z     vdW  Elec       q    Type
REMARK                         _______ _______ _______ _____ _____    ______ ____
ROOT
ATOM      1  C   LIG    1        0.453   7.539   0.498  0.00  0.00    +0.010 A 
ATOM      2  N   LIG    1        0.732   6.263   0.707  0.00  0.00    -0.260 NA
ATOM      3  N   LIG    1       -0.073   5.516   0.032  0.00  0.00    -0.220 N 
ATOM      4  C   LIG    1       -0.933   6.284  -0.671  0.00  0.00    +0.020 A 
ATOM      5  C   LIG    1       -2.053   5.859  -1.585  0.00  0.00    +0.120 C 
ATOM      6  C   LIG    1       -2.988   7.057  -1.795  0.00  0.00    +0.030 C 
ATOM      7  C   LIG    1       -2.167   8.289  -2.184  0.00  0.00    +0.020 C 
ATOM      8  C   LIG    1       -1.350   8.764  -0.975  0.00  0.00    +0.120 C 
ATOM      9  C   LIG    1       -0.631   7.577  -0.396  0.00  0.00    -0.130 A 
ENDROOT
BRANCH   3  10
ATOM     10  C   LIG    1       -0.054   4.114   0.024  0.00  0.00    +0.110 A 
ATOM     11  C   LIG    1       -0.217   3.424  -1.169  0.00  0.00    +0.070 A 
ATOM     12  C   LIG    1       -0.198   2.043  -1.175  0.00  0.00    +0.020 A 
ATOM     13  C   LIG    1       -0.015   1.347   0.008  0.00  0.00    +0.110 A 
ATOM     14  C   LIG    1        0.143   2.034   1.200  0.00  0.00    +0.010 A 
ATOM     15  F   LIG    1        0.004  -0.004  -0.000  0.00  0.00    -0.130 F 
ATOM     16  C   LIG    1        0.129   3.414   1.210  0.00  0.00    +0.080 A 
ENDBRANCH   3  10
BRANCH   1  18
ATOM     17  O   LIG    1        0.790   9.828   0.811  0.00  0.00    -0.500 OA
ATOM     18  C   LIG    1        1.148   8.700   1.089  0.00  0.00    +0.620 C 
ATOM     19  N   LIG    1        2.179   8.509   1.936  0.00  0.00    -0.590 N 
ATOM     20  H   LIG    1        2.464   7.609   2.158  0.00  0.00    +0.410 HD
BRANCH  19  21
ATOM     21  O   LIG    1        2.845   9.622   2.503  0.00  0.00    -0.130 OA
BRANCH  21  22
ATOM     22  C   LIG    1        3.916   9.273   3.382  0.00  0.00    +0.210 C 
BRANCH  22  23
ATOM     23  C   LIG    1        4.550  10.528   3.925  0.00  0.00    -0.090 A 
ATOM     24  C   LIG    1        5.607  11.114   3.253  0.00  0.00    +0.040 A 
ATOM     25  C   LIG    1        6.185  12.268   3.748  0.00  0.00    +0.010 A 
ATOM     26  C   LIG    1        5.714  12.829   4.920  0.00  0.00    +0.020 A 
ATOM     27  C   LIG    1        4.661  12.240   5.595  0.00  0.00    +0.010 A 
ATOM     28  C   LIG    1        4.079  11.089   5.097  0.00  0.00    +0.040 A 
ENDBRANCH  22  23
ENDBRANCH  21  22
ENDBRANCH  19  21
ENDBRANCH   1  18
TORSDOF 5
