REMARK  Name = ZINCvU0000000CdM.0
REMARK                            x       y       z     vdW  Elec       q    Type
REMARK                         _______ _______ _______ _____ _____    ______ ____
ROOT
ATOM      1  C   LIG    1       -0.756   1.578  -1.228  0.00  0.00    +0.090 C 
ATOM      2  C   LIG    1       -0.011   1.081   0.013  0.00  0.00    -0.030 C 
ENDROOT
BRANCH   2   3
ATOM      3  C   LIG    1        1.401   1.609  -0.004  0.00  0.00    +0.540 C 
ATOM      4  N   LIG    1        2.336   1.006  -0.765  0.00  0.00    -0.660 N 
ATOM      5  H   LIG    1        2.118   0.194  -1.249  0.00  0.00    +0.420 HD
ATOM      6  O   LIG    1        1.695   2.575   0.667  0.00  0.00    -0.500 OA
BRANCH   4   7
ATOM      7  C   LIG    1        3.623   1.552  -0.857  0.00  0.00    +0.150 A 
ATOM      8  C   LIG    1        4.330   1.466  -2.048  0.00  0.00    +0.000 A 
ATOM      9  C   LIG    1        5.597   2.009  -2.141  0.00  0.00    +0.050 A 
ATOM     10  C   LIG    1        6.171   2.630  -1.042  0.00  0.00    +0.040 A 
ATOM     11  O   LIG    1        7.425   3.151  -1.149  0.00  0.00    -0.310 OA
ATOM     12  C   LIG    1        7.818   4.094  -0.146  0.00  0.00    +0.220 C 
ATOM     13  C   LIG    1        7.428   3.525   1.226  0.00  0.00    +0.220 C 
ATOM     14  O   LIG    1        6.011   3.325   1.242  0.00  0.00    -0.300 OA
ATOM     15  C   LIG    1        5.466   2.714   0.154  0.00  0.00    +0.070 A 
ATOM     16  C   LIG    1        4.193   2.174   0.245  0.00  0.00    +0.040 A 
ENDBRANCH   4   7
ENDBRANCH   2   3
BRANCH   2  17
ATOM     17  S   LIG    1       -0.857   1.671   1.501  0.00  0.00    +0.100 S 
BRANCH  17  18
ATOM     18  C   LIG    1       -2.385   0.808   1.346  0.00  0.00    +0.190 A 
ATOM     19  C   LIG    1       -3.403   0.965   2.321  0.00  0.00    -0.160 A 
ATOM     20  C   LIG    1       -3.431   1.773   3.533  0.00  0.00    -0.030 A 
ATOM     21  C   LIG    1       -4.563   1.683   4.228  0.00  0.00    -0.010 A 
ATOM     22  S   LIG    1       -5.700   0.595   3.456  0.00  0.00    +0.190 S 
ATOM     23  C   LIG    1       -4.588   0.252   2.138  0.00  0.00    +0.100 A 
ATOM     24  N   LIG    1       -4.714  -0.539   1.064  0.00  0.00    -0.490 NA
ATOM     25  C   LIG    1       -3.743  -0.651   0.188  0.00  0.00    +0.540 A 
ATOM     26  N   LIG    1       -2.604   0.006   0.313  0.00  0.00    -0.530 NA
BRANCH  20  27
ATOM     27  C   LIG    1       -2.294   2.624   3.957  0.00  0.00    -0.040 A 
ATOM     28  C   LIG    1       -1.006   2.092   4.019  0.00  0.00    +0.040 A 
ATOM     29  C   LIG    1        0.049   2.891   4.408  0.00  0.00    +0.030 A 
ATOM     30  C   LIG    1       -0.169   4.213   4.749  0.00  0.00    +0.010 A 
ATOM     31  C   LIG    1       -1.446   4.745   4.696  0.00  0.00    +0.020 A 
ATOM     32  C   LIG    1       -2.508   3.958   4.302  0.00  0.00    +0.020 A 
ENDBRANCH  20  27
ENDBRANCH  17  18
ENDBRANCH   2  17
TORSDOF 5
