REMARK  Name = ZINCtV00001bB3ns.0
REMARK                            x       y       z     vdW  Elec       q    Type
REMARK                         _______ _______ _______ _____ _____    ______ ____
ROOT
ATOM      1  C   LIG    1       -1.189   2.537  -0.026  0.00  0.00    +0.040 C 
ATOM      2  C   LIG    1       -2.456   1.910   0.025  0.00  0.00    +0.140 C 
ENDROOT
BRANCH   2   3
ATOM      3  C   LIG    1       -3.618   2.685   0.141  0.00  0.00    -0.090 A 
ATOM      4  C   LIG    1       -3.690   3.968  -0.450  0.00  0.00    +0.160 A 
ATOM      5  C   LIG    1       -4.827   4.705  -0.331  0.00  0.00    -0.020 A 
ATOM      6  C   LIG    1       -5.927   4.226   0.372  0.00  0.00    +0.180 A 
ATOM      7  C   LIG    1       -5.909   2.984   0.972  0.00  0.00    -0.020 A 
ATOM      8  C   LIG    1       -4.779   2.184   0.881  0.00  0.00    +0.190 A 
BRANCH   5   9
ATOM      9  N   LIG    1       -4.893   6.045  -0.958  0.00  0.00    -0.020 N 
ATOM     10  O   LIG    1       -3.858   6.510  -1.627  0.00  0.00    -0.160 OA
ATOM     11  O   LIG    1       -5.986   6.771  -0.847  0.00  0.00    -0.160 OA
ENDBRANCH   5   9
BRANCH   8  12
ATOM     12  O   LIG    1       -4.749   0.964   1.465  0.00  0.00    -0.300 OA
BRANCH  12  13
ATOM     13  C   LIG    1       -5.923   0.553   2.167  0.00  0.00    +0.610 C 
ATOM     14  F   LIG    1       -7.008   0.520   1.284  0.00  0.00    -0.190 F 
ATOM     15  F   LIG    1       -6.190   1.457   3.201  0.00  0.00    -0.190 F 
ENDBRANCH  12  13
ENDBRANCH   8  12
ENDBRANCH   2   3
BRANCH   1  16
ATOM     16  C   LIG    1       -0.040   1.776  -0.284  0.00  0.00    +0.030 A 
ATOM     17  N   LIG    1        1.181   2.267  -0.356  0.00  0.00    -0.420 NA
ATOM     18  C   LIG    1        2.136   1.423  -0.610  0.00  0.00    +0.120 A 
ATOM     19  C   LIG    1        1.664   0.050  -0.771  0.00  0.00    -0.100 A 
ATOM     20  S   LIG    1       -0.034   0.041  -0.563  0.00  0.00    +0.270 S 
BRANCH  18  21
ATOM     21  C   LIG    1        3.552   1.812  -0.723  0.00  0.00    -0.020 A 
ATOM     22  C   LIG    1        4.529   0.844  -0.994  0.00  0.00    +0.050 A 
ATOM     23  C   LIG    1        5.850   1.216  -1.104  0.00  0.00    +0.030 A 
ATOM     24  C   LIG    1        6.217   2.544  -0.937  0.00  0.00    -0.030 A 
ATOM     25  C   LIG    1        5.256   3.507  -0.663  0.00  0.00    +0.030 A 
ATOM     26 CL   LIG    1        7.886   3.002  -1.071  0.00  0.00    -0.060 Cl
ATOM     27  C   LIG    1        3.931   3.152  -0.555  0.00  0.00    +0.070 A 
ENDBRANCH  18  21
ENDBRANCH   1  16
BRANCH   1  29
ATOM     28  N   LIG    1       -0.994   5.069   0.356  0.00  0.00    -0.370 NA
ATOM     29  C   LIG    1       -1.080   3.949   0.187  0.00  0.00    +0.240 C 
ENDBRANCH   1  29
TORSDOF 7
