REMARK  Name = ZINCrD000000AqHY.0
REMARK                            x       y       z     vdW  Elec       q    Type
REMARK                         _______ _______ _______ _____ _____    ______ ____
ROOT
ATOM      1  O   LIG    1       -1.075   1.936   0.018  0.00  0.00    -0.500 OA
ATOM      2  C   LIG    1       -0.016   1.344   0.009  0.00  0.00    +0.520 C 
ATOM      3  N   LIG    1        0.002  -0.004   0.002  0.00  0.00    -0.730 N 
ATOM      4  H   LIG    1        0.849  -0.478  -0.009  0.00  0.00    +0.400 HD
ENDROOT
BRANCH   3   5
ATOM      5  C   LIG    1       -1.256  -0.754   0.010  0.00  0.00    +0.270 C 
BRANCH   5   6
ATOM      6  C   LIG    1       -0.957  -2.254  -0.001  0.00  0.00    +0.080 C 
BRANCH   6   7
ATOM      7  C   LIG    1       -2.251  -3.025   0.007  0.00  0.00    -0.080 A 
ATOM      8  C   LIG    1       -2.829  -3.389   1.209  0.00  0.00    +0.040 A 
ATOM      9  C   LIG    1       -4.020  -4.093   1.222  0.00  0.00    +0.040 A 
ATOM     10  C   LIG    1       -4.631  -4.443   0.029  0.00  0.00    +0.030 A 
ATOM     11  O   LIG    1       -5.783  -5.127  -0.231  0.00  0.00    -0.310 OA
ATOM     12  C   LIG    1       -5.686  -5.534  -1.609  0.00  0.00    +0.430 C 
ATOM     13  O   LIG    1       -4.831  -4.538  -2.200  0.00  0.00    -0.310 OA
ATOM     14  C   LIG    1       -4.045  -4.081  -1.182  0.00  0.00    +0.030 A 
ATOM     15  C   LIG    1       -2.856  -3.372  -1.187  0.00  0.00    +0.050 A 
ENDBRANCH   6   7
ENDBRANCH   5   6
ENDBRANCH   3   5
BRANCH   2  16
ATOM     16  C   LIG    1        1.278   2.115   0.001  0.00  0.00    +0.230 C 
BRANCH  16  17
ATOM     17  O   LIG    1        0.998   3.516   0.011  0.00  0.00    -0.260 OA
BRANCH  17  18
ATOM     18  C   LIG    1        2.064   4.358   0.006  0.00  0.00    +0.170 A 
ATOM     19  C   LIG    1        3.335   3.857  -0.003  0.00  0.00    -0.070 A 
ATOM     20  C   LIG    1        4.440   4.704  -0.015  0.00  0.00    +0.080 A 
ATOM     21  C   LIG    1        4.285   6.058  -0.006  0.00  0.00    -0.060 A 
ATOM     22  C   LIG    1        2.993   6.611   0.009  0.00  0.00    -0.060 A 
ATOM     23  C   LIG    1        2.793   8.004   0.018  0.00  0.00    +0.080 A 
ATOM     24  C   LIG    1        1.509   8.470   0.034  0.00  0.00    +0.000 A 
ATOM     25  C   LIG    1        0.444   7.572   0.039  0.00  0.00    +0.300 A 
ATOM     26  N   LIG    1        0.635   6.275   0.030  0.00  0.00    -0.440 NA
ATOM     27 CL   LIG    1        5.678   7.095  -0.015  0.00  0.00    -0.060 Cl
ATOM     28  C   LIG    1        1.865   5.755   0.015  0.00  0.00    +0.120 A 
ENDBRANCH  17  18
ENDBRANCH  16  17
ENDBRANCH   2  16
TORSDOF 6
