REMARK  Name = ZINCvU0000000Atq.0
REMARK                            x       y       z     vdW  Elec       q    Type
REMARK                         _______ _______ _______ _____ _____    ______ ____
ROOT
ATOM      1  C   LIG    1        0.740  -1.741  -3.328  0.00  0.00    +0.330 C 
ENDROOT
BRANCH   1   2
ATOM      2  N   LIG    1       -0.177  -2.563  -4.122  0.00  0.00    -0.530 N 
ATOM      3  C   LIG    1       -0.241  -3.929  -3.909  0.00  0.00    +0.220 A 
ATOM      4  C   LIG    1        0.835  -4.627  -3.381  0.00  0.00    -0.050 A 
ATOM      5  C   LIG    1        0.736  -5.986  -3.169  0.00  0.00    +0.080 A 
ATOM      6  C   LIG    1       -0.434  -6.668  -3.474  0.00  0.00    -0.030 A 
ATOM      7  C   LIG    1       -1.517  -5.996  -3.998  0.00  0.00    +0.110 A 
ATOM      8  C   LIG    1       -1.429  -4.624  -4.219  0.00  0.00    -0.200 A 
ATOM      9  C   LIG    1       -2.557  -3.854  -4.785  0.00  0.00    +0.440 A 
ATOM     10  C   LIG    1       -2.191  -2.584  -5.449  0.00  0.00    -0.200 A 
ATOM     11  C   LIG    1       -3.011  -1.998  -6.410  0.00  0.00    +0.110 A 
ATOM     12  C   LIG    1       -2.619  -0.819  -7.007  0.00  0.00    -0.030 A 
ATOM     13  C   LIG    1       -1.417  -0.221  -6.656  0.00  0.00    +0.080 A 
ATOM     14  C   LIG    1       -0.598  -0.788  -5.704  0.00  0.00    -0.050 A 
ATOM     15  O   LIG    1       -3.709  -4.239  -4.710  0.00  0.00    -0.450 OA
ATOM     16  C   LIG    1       -0.975  -1.975  -5.086  0.00  0.00    +0.220 A 
ENDBRANCH   1   2
BRANCH   1  18
ATOM     17  N   LIG    1        0.688  -0.476  -1.203  0.00  0.00    -0.610 N 
ATOM     18  C   LIG    1        0.035  -1.255  -2.088  0.00  0.00    +0.500 C 
ATOM     19  O   LIG    1       -1.120  -1.565  -1.887  0.00  0.00    -0.510 OA
ATOM     20  C   LIG    1        2.083  -0.102  -1.446  0.00  0.00    +0.290 C 
BRANCH  17  22
ATOM     21  C   LIG    1       -0.019   1.526   0.010  0.00  0.00    +0.060 C 
ATOM     22  C   LIG    1        0.002  -0.004   0.002  0.00  0.00    +0.350 C 
BRANCH  22  23
ATOM     23  C   LIG    1        0.731  -0.503   1.223  0.00  0.00    +0.020 A 
ATOM     24  C   LIG    1        0.140  -0.953   2.338  0.00  0.00    -0.030 A 
ATOM     25  C   LIG    1        1.225  -1.330   3.252  0.00  0.00    -0.130 A 
ATOM     26  C   LIG    1        1.274  -1.855   4.543  0.00  0.00    +0.060 A 
ATOM     27  C   LIG    1        2.495  -2.100   5.132  0.00  0.00    -0.010 A 
ATOM     28  C   LIG    1        3.670  -1.829   4.446  0.00  0.00    +0.050 A 
ATOM     29  C   LIG    1        3.635  -1.310   3.169  0.00  0.00    +0.020 A 
ATOM     30  C   LIG    1        2.415  -1.055   2.557  0.00  0.00    +0.050 A 
ATOM     31  O   LIG    1        2.068  -0.567   1.348  0.00  0.00    -0.190 OA
ENDBRANCH  22  23
ENDBRANCH  17  22
ENDBRANCH   1  18
TORSDOF 4
