REMARK  Name = ZINCqH0000002pFK.0
REMARK                            x       y       z     vdW  Elec       q    Type
REMARK                         _______ _______ _______ _____ _____    ______ ____
ROOT
ATOM      1  N   LIG    1       -2.337   0.907   0.622  0.00  0.00    -0.540 N 
ATOM      2  C   LIG    1       -2.202  -0.404   0.340  0.00  0.00    +0.560 C 
ATOM      3  O   LIG    1       -1.191  -0.808  -0.201  0.00  0.00    -0.500 OA
ENDROOT
BRANCH   1   4
ATOM      4  C   LIG    1       -1.368   1.819   0.191  0.00  0.00    +0.150 A 
ATOM      5  C   LIG    1       -0.345   1.401  -0.650  0.00  0.00    +0.010 A 
ATOM      6  C   LIG    1        0.607   2.305  -1.078  0.00  0.00    +0.030 A 
ATOM      7  C   LIG    1        0.547   3.623  -0.665  0.00  0.00    -0.020 A 
ATOM      8  C   LIG    1       -0.467   4.041   0.177  0.00  0.00    +0.030 A 
ATOM      9  C   LIG    1       -1.423   3.143   0.609  0.00  0.00    -0.030 A 
ENDBRANCH   1   4
BRANCH   2  10
ATOM     10  C   LIG    1       -3.283  -1.350   0.689  0.00  0.00    -0.120 A 
ATOM     11  C   LIG    1       -4.604  -0.906   0.767  0.00  0.00    +0.060 A 
ATOM     12  C   LIG    1       -5.612  -1.793   1.087  0.00  0.00    +0.030 A 
ATOM     13  C   LIG    1       -5.316  -3.119   1.342  0.00  0.00    +0.060 A 
ATOM     14  C   LIG    1       -4.003  -3.569   1.272  0.00  0.00    +0.100 A 
ATOM     15  C   LIG    1       -2.985  -2.688   0.946  0.00  0.00    +0.100 A 
BRANCH  14  16
ATOM     16  N   LIG    1       -3.709  -4.916   1.532  0.00  0.00    -0.530 N 
ATOM     17  C   LIG    1       -3.046  -5.692   0.666  0.00  0.00    +0.520 C 
ATOM     18  C   LIG    1       -2.895  -7.078   1.254  0.00  0.00    +0.110 C 
ATOM     19  C   LIG    1       -3.602  -6.969   2.621  0.00  0.00    +0.110 C 
ATOM     20  O   LIG    1       -2.631  -5.340  -0.417  0.00  0.00    -0.460 OA
ATOM     21  C   LIG    1       -4.073  -5.532   2.663  0.00  0.00    +0.530 C 
ATOM     22  O   LIG    1       -4.684  -5.020   3.576  0.00  0.00    -0.470 OA
ENDBRANCH  14  16
ENDBRANCH   2  10
BRANCH   1  23
ATOM     23  C   LIG    1       -3.500   1.378   1.380  0.00  0.00    +0.280 C 
BRANCH  23  24
ATOM     24  C   LIG    1       -4.419   2.180   0.457  0.00  0.00    +0.000 C 
BRANCH  24  26
ATOM     25  C   LIG    1       -6.553   3.473   0.325  0.00  0.00    +0.030 C 
ATOM     26  C   LIG    1       -5.633   2.671   1.248  0.00  0.00    +0.020 C 
ENDBRANCH  24  26
ENDBRANCH  23  24
ENDBRANCH   1  23
TORSDOF 6
