REMARK  Name = ZINCtV00001bB3cv.0
REMARK                            x       y       z     vdW  Elec       q    Type
REMARK                         _______ _______ _______ _____ _____    ______ ____
ROOT
ATOM      1  C   LIG    1        5.974  -0.808  -0.047  0.00  0.00    +0.140 C 
ATOM      2  C   LIG    1        4.702   0.000  -0.028  0.00  0.00    +0.190 A 
ATOM      3  N   LIG    1        3.551  -0.622  -0.054  0.00  0.00    -0.470 NA
ATOM      4  C   LIG    1        2.386   0.038  -0.040  0.00  0.00    +0.140 A 
ATOM      5  C   LIG    1        1.166  -0.658  -0.069  0.00  0.00    +0.040 A 
ATOM      6  C   LIG    1       -0.008   0.033  -0.053  0.00  0.00    +0.040 A 
ATOM      7  C   LIG    1       -0.022   1.425  -0.010  0.00  0.00    +0.020 A 
ATOM      8  C   LIG    1        1.142   2.133   0.018  0.00  0.00    +0.040 A 
ATOM      9  C   LIG    1        2.368   1.454   0.004  0.00  0.00    -0.100 A 
ATOM     10  C   LIG    1        3.598   2.156   0.033  0.00  0.00    +0.050 A 
ATOM     11  C   LIG    1        4.782   1.402   0.016  0.00  0.00    -0.190 A 
ENDROOT
BRANCH  10  12
ATOM     12  C   LIG    1        3.633   3.633   0.079  0.00  0.00    -0.060 A 
ATOM     13  C   LIG    1        4.172   4.355  -0.988  0.00  0.00    +0.060 A 
ATOM     14  C   LIG    1        4.199   5.733  -0.941  0.00  0.00    +0.030 A 
ATOM     15  C   LIG    1        3.701   6.401   0.167  0.00  0.00    -0.020 A 
ATOM     16  C   LIG    1        3.170   5.690   1.230  0.00  0.00    +0.030 A 
ATOM     17 CL   LIG    1        3.745   8.135   0.221  0.00  0.00    -0.060 Cl
ATOM     18  C   LIG    1        3.134   4.312   1.193  0.00  0.00    +0.060 A 
ENDBRANCH  10  12
BRANCH  11  19
ATOM     19  C   LIG    1        6.095   2.073   0.044  0.00  0.00    +0.440 C 
ATOM     20  O   LIG    1        6.681   2.309  -0.997  0.00  0.00    -0.440 OA
BRANCH  19  21
ATOM     21  C   LIG    1        6.693   2.456   1.322  0.00  0.00    -0.090 C 
ATOM     22  C   LIG    1        7.841   3.169   1.344  0.00  0.00    +0.130 C 
BRANCH  22  23
ATOM     23  C   LIG    1        8.443   3.553   2.629  0.00  0.00    -0.120 A 
ATOM     24  C   LIG    1        7.828   3.188   3.832  0.00  0.00    +0.070 A 
ATOM     25  C   LIG    1        8.402   3.546   5.032  0.00  0.00    +0.010 A 
ATOM     26  C   LIG    1        9.577   4.277   5.053  0.00  0.00    +0.070 A 
ATOM     27  C   LIG    1       10.191   4.649   3.870  0.00  0.00    -0.020 A 
ATOM     28  C   LIG    1        9.633   4.293   2.657  0.00  0.00    +0.130 A 
ATOM     29  F   LIG    1       10.232   4.656   1.502  0.00  0.00    -0.130 F 
ENDBRANCH  22  23
ENDBRANCH  19  21
ENDBRANCH  11  19
TORSDOF 4
