REMARK  Name = ZINCrD000000Atvp.0
REMARK                            x       y       z     vdW  Elec       q    Type
REMARK                         _______ _______ _______ _____ _____    ______ ____
ROOT
ATOM      1  O   LIG    1       -1.714   2.256   1.150  0.00  0.00    -0.520 OA
ATOM      2  C   LIG    1       -0.718   1.572   1.248  0.00  0.00    +0.540 C 
ATOM      3  N   LIG    1       -0.242   1.246   2.466  0.00  0.00    -0.720 N 
ATOM      4  H   LIG    1        0.555   0.699   2.544  0.00  0.00    +0.410 HD
ENDROOT
BRANCH   3   5
ATOM      5  C   LIG    1       -0.927   1.718   3.671  0.00  0.00    +0.340 C 
BRANCH   5   6
ATOM      6  C   LIG    1       -0.198   1.219   4.892  0.00  0.00    -0.120 A 
ATOM      7  C   LIG    1       -0.669   0.115   5.575  0.00  0.00    +0.080 A 
ATOM      8  C   LIG    1       -0.001  -0.344   6.695  0.00  0.00    +0.000 A 
ATOM      9  C   LIG    1        1.140   0.301   7.135  0.00  0.00    +0.070 A 
ATOM     10  C   LIG    1        1.615   1.407   6.455  0.00  0.00    -0.050 A 
ATOM     11  C   LIG    1        0.950   1.865   5.328  0.00  0.00    +0.120 A 
BRANCH  11  12
ATOM     12  O   LIG    1        1.418   2.949   4.654  0.00  0.00    -0.310 OA
BRANCH  12  13
ATOM     13  C   LIG    1        2.605   3.563   5.160  0.00  0.00    +0.600 C 
ATOM     14  F   LIG    1        2.381   4.002   6.469  0.00  0.00    -0.160 F 
ATOM     15  F   LIG    1        2.945   4.655   4.354  0.00  0.00    -0.130 F 
ATOM     16  F   LIG    1        3.651   2.634   5.152  0.00  0.00    -0.160 F 
ENDBRANCH  12  13
ENDBRANCH  11  12
ENDBRANCH   5   6
ENDBRANCH   3   5
BRANCH   2  17
ATOM     17  C   LIG    1       -0.013   1.086   0.008  0.00  0.00    +0.110 C 
BRANCH  17  18
ATOM     18  S   LIG    1       -0.888   1.685  -1.458  0.00  0.00    +0.080 S 
BRANCH  18  19
ATOM     19  C   LIG    1        0.122   0.990  -2.724  0.00  0.00    +0.140 A 
ATOM     20  N   LIG    1        1.196   0.252  -2.551  0.00  0.00    -0.300 NA
ATOM     21  N   LIG    1        1.680  -0.091  -3.694  0.00  0.00    -0.280 NA
ATOM     22  C   LIG    1        0.948   0.400  -4.650  0.00  0.00    +0.190 A 
ATOM     23  C   LIG    1        1.148   0.226  -6.134  0.00  0.00    +0.160 C 
ATOM     24  C   LIG    1        1.016   1.590  -6.818  0.00  0.00    +0.030 C 
ATOM     25  C   LIG    1       -0.446   1.848  -7.170  0.00  0.00    +0.020 C 
ATOM     26  C   LIG    1       -1.370   1.226  -6.125  0.00  0.00    +0.030 C 
ATOM     27  C   LIG    1       -1.108   1.865  -4.758  0.00  0.00    +0.290 C 
ATOM     28  N   LIG    1       -0.063   1.109  -4.066  0.00  0.00    -0.460 N 
ENDBRANCH  18  19
ENDBRANCH  17  18
ENDBRANCH   2  17
TORSDOF 7
