REMARK  Name = ZINCrH000004pr1u.1
REMARK                            x       y       z     vdW  Elec       q    Type
REMARK                         _______ _______ _______ _____ _____    ______ ____
ROOT
ATOM      1  N   LIG    1        3.425   1.738  -0.909  0.00  0.00    -0.720 N 
ATOM      2  H   LIG    1        3.315   2.684  -1.088  0.00  0.00    +0.400 HD
ATOM      3  C   LIG    1        4.436   1.056  -1.482  0.00  0.00    +0.560 C 
ATOM      4  O   LIG    1        4.574  -0.130  -1.258  0.00  0.00    -0.520 OA
ENDROOT
BRANCH   3   5
ATOM      5  C   LIG    1        5.381   1.754  -2.385  0.00  0.00    -0.060 A 
ATOM      6  C   LIG    1        5.216   3.117  -2.645  0.00  0.00    +0.030 A 
ATOM      7  C   LIG    1        6.092   3.776  -3.480  0.00  0.00    +0.140 A 
ATOM      8  C   LIG    1        7.139   3.075  -4.073  0.00  0.00    -0.160 A 
ATOM      9  C   LIG    1        8.099   3.739  -4.978  0.00  0.00    +0.550 A 
ATOM     10  N   LIG    1        9.089   2.996  -5.517  0.00  0.00    -0.610 N 
ATOM     11  H   LIG    1        9.729   3.416  -6.114  0.00  0.00    +0.450 HD
ATOM     12  C   LIG    1        9.206   1.687  -5.243  0.00  0.00    +0.540 A 
ATOM     13  N   LIG    1        8.361   1.035  -4.428  0.00  0.00    -0.580 N 
ATOM     14  H   LIG    1        8.488   0.087  -4.262  0.00  0.00    +0.450 HD
ATOM     15  S   LIG    1       10.488   0.811  -5.965  0.00  0.00    -0.530 S 
ATOM     16  O   LIG    1        7.999   4.923  -5.232  0.00  0.00    -0.470 OA
ATOM     17  C   LIG    1        7.307   1.702  -3.820  0.00  0.00    +0.170 A 
ATOM     18  C   LIG    1        6.426   1.046  -2.975  0.00  0.00    +0.070 A 
ENDBRANCH   3   5
BRANCH   1  20
ATOM     19  C   LIG    1        3.071   1.010   1.399  0.00  0.00    +0.040 C 
ATOM     20  C   LIG    1        2.490   1.048  -0.016  0.00  0.00    +0.290 C 
BRANCH  20  21
ATOM     21  C   LIG    1        1.175   1.783   0.000  0.00  0.00    -0.100 A 
ATOM     22  C   LIG    1        1.157   3.165   0.008  0.00  0.00    +0.050 A 
ATOM     23  C   LIG    1       -0.050   3.840   0.022  0.00  0.00    +0.030 A 
ATOM     24  C   LIG    1       -1.238   3.133   0.030  0.00  0.00    +0.070 A 
ATOM     25  C   LIG    1       -1.219   1.750   0.017  0.00  0.00    -0.180 A 
ATOM     26  C   LIG    1       -0.013   1.076   0.008  0.00  0.00    +0.080 A 
BRANCH  25  27
ATOM     27  C   LIG    1       -2.514   0.979   0.019  0.00  0.00    +0.510 C 
ATOM     28  F   LIG    1       -2.333  -0.237  -0.648  0.00  0.00    -0.180 F 
ATOM     29  F   LIG    1       -3.502   1.726  -0.631  0.00  0.00    -0.180 F 
ATOM     30  F   LIG    1       -2.908   0.734   1.339  0.00  0.00    -0.170 F 
ENDBRANCH  25  27
ENDBRANCH  20  21
ENDBRANCH   1  20
TORSDOF 4
