REMARK  Name = ZINCvU000000080u.0
REMARK                            x       y       z     vdW  Elec       q    Type
REMARK                         _______ _______ _______ _____ _____    ______ ____
ROOT
ATOM      1  C   LIG    1        2.663  -3.364  -0.135  0.00  0.00    +0.300 A 
ATOM      2  N   LIG    1        3.254  -2.309   0.334  0.00  0.00    -0.460 NA
ATOM      3  C   LIG    1        4.565  -2.386   0.518  0.00  0.00    +0.140 A 
ATOM      4  C   LIG    1        5.126  -3.564   0.186  0.00  0.00    -0.080 A 
ATOM      5  S   LIG    1        3.853  -4.636  -0.393  0.00  0.00    +0.090 S 
ENDROOT
BRANCH   3   6
ATOM      6  C   LIG    1        5.357  -1.252   1.047  0.00  0.00    -0.050 A 
ATOM      7  C   LIG    1        6.263  -1.454   2.074  0.00  0.00    +0.080 A 
ATOM      8  C   LIG    1        7.013  -0.399   2.579  0.00  0.00    -0.090 A 
ATOM      9  C   LIG    1        6.874   0.874   2.071  0.00  0.00    +0.160 A 
ATOM     10  C   LIG    1        5.960   1.117   1.025  0.00  0.00    -0.070 A 
ATOM     11  C   LIG    1        5.797   2.404   0.488  0.00  0.00    +0.040 A 
ATOM     12  C   LIG    1        4.906   2.605  -0.522  0.00  0.00    +0.000 A 
ATOM     13  C   LIG    1        4.157   1.549  -1.037  0.00  0.00    +0.010 A 
ATOM     14  C   LIG    1        4.286   0.289  -0.534  0.00  0.00    +0.040 A 
ATOM     15  C   LIG    1        5.194   0.046   0.506  0.00  0.00    +0.010 A 
BRANCH   9  16
ATOM     16  O   LIG    1        7.616   1.893   2.578  0.00  0.00    -0.310 OA
ATOM     17  C   LIG    1        8.520   1.573   3.637  0.00  0.00    +0.240 C 
ENDBRANCH   9  16
ENDBRANCH   3   6
BRANCH   1  18
ATOM     18  N   LIG    1        1.303  -3.473  -0.392  0.00  0.00    -0.510 N 
ATOM     19  C   LIG    1        0.486  -2.428  -0.154  0.00  0.00    +0.550 C 
ATOM     20  O   LIG    1        0.946  -1.375   0.240  0.00  0.00    -0.450 OA
BRANCH  19  21
ATOM     21  C   LIG    1       -0.970  -2.564  -0.372  0.00  0.00    -0.100 A 
ATOM     22  C   LIG    1       -1.587  -3.807  -0.214  0.00  0.00    +0.040 A 
ATOM     23  C   LIG    1       -2.945  -3.932  -0.412  0.00  0.00    +0.060 A 
ATOM     24  C   LIG    1       -3.702  -2.819  -0.782  0.00  0.00    +0.000 A 
ATOM     25  C   LIG    1       -3.084  -1.577  -0.945  0.00  0.00    +0.080 A 
ATOM     26  C   LIG    1       -1.728  -1.450  -0.742  0.00  0.00    +0.090 A 
BRANCH  24  27
ATOM     27  C   LIG    1       -5.112  -2.950  -0.994  0.00  0.00    +0.240 C 
ATOM     28  N   LIG    1       -6.231  -3.054  -1.162  0.00  0.00    -0.400 NA
ENDBRANCH  24  27
ENDBRANCH  19  21
BRANCH  18  29
ATOM     29  C   LIG    1        0.756  -4.724  -0.923  0.00  0.00    +0.330 C 
BRANCH  29  31
ATOM     30  C   LIG    1       -0.138  -6.744   0.117  0.00  0.00    +0.060 C 
ATOM     31  C   LIG    1        0.730  -5.764   0.167  0.00  0.00    -0.070 C 
ENDBRANCH  29  31
ENDBRANCH  18  29
ENDBRANCH   1  18
TORSDOF 7
