REMARK  Name = ZINCqH0000001nMB.0
REMARK                            x       y       z     vdW  Elec       q    Type
REMARK                         _______ _______ _______ _____ _____    ______ ____
ROOT
ATOM      1  C   LIG    1       -0.488  -0.716   1.097  0.00  0.00    +0.220 A 
ATOM      2  C   LIG    1       -0.252  -2.080   1.169  0.00  0.00    -0.030 A 
ATOM      3  C   LIG    1        0.254  -2.754   0.071  0.00  0.00    -0.010 A 
ATOM      4  C   LIG    1        0.526  -2.069  -1.099  0.00  0.00    -0.010 A 
ATOM      5  C   LIG    1        0.288  -0.709  -1.181  0.00  0.00    +0.030 A 
ATOM      6 CL   LIG    1        0.549  -4.462   0.164  0.00  0.00    -0.070 Cl
ATOM      7  C   LIG    1       -0.214  -0.026  -0.084  0.00  0.00    +0.050 A 
ENDROOT
BRANCH   7   8
ATOM      8  N   LIG    1       -0.450   1.352  -0.163  0.00  0.00    -0.490 N 
ATOM      9  C   LIG    1        0.129   1.916  -1.389  0.00  0.00    +0.180 C 
ATOM     10  C   LIG    1       -0.020   3.439  -1.372  0.00  0.00    +0.040 C 
ATOM     11  C   LIG    1       -1.504   3.801  -1.273  0.00  0.00    -0.010 C 
ATOM     12  C   LIG    1       -2.095   3.161  -0.013  0.00  0.00    +0.030 C 
ATOM     13  C   LIG    1       -1.886   1.646  -0.070  0.00  0.00    +0.180 C 
BRANCH  11  14
ATOM     14  C   LIG    1       -1.656   5.321  -1.194  0.00  0.00    +0.180 C 
BRANCH  14  15
ATOM     15  O   LIG    1       -1.211   5.909  -2.419  0.00  0.00    -0.570 OA
ATOM     16  H   LIG    1       -1.279   6.873  -2.440  0.00  0.00    +0.380 HD
ENDBRANCH  14  15
ENDBRANCH  11  14
ENDBRANCH   7   8
BRANCH   1  17
ATOM     17  N   LIG    1       -1.001  -0.033   2.206  0.00  0.00    -0.740 N 
ATOM     18  H   LIG    1       -1.083   0.934   2.185  0.00  0.00    +0.410 HD
BRANCH  17  19
ATOM     19  C   LIG    1       -1.413  -0.777   3.399  0.00  0.00    +0.430 C 
BRANCH  19  23
ATOM     20  C   LIG    1       -3.144   1.437   5.633  0.00  0.00    +0.180 A 
ATOM     21  N   LIG    1       -1.920   1.498   6.062  0.00  0.00    -0.370 NA
ATOM     22  O   LIG    1       -1.204   0.782   5.394  0.00  0.00    +0.090 OA
ATOM     23  C   LIG    1       -1.925   0.185   4.440  0.00  0.00    +0.160 A 
ATOM     24  N   LIG    1       -3.162   0.593   4.585  0.00  0.00    -0.450 NA
BRANCH  20  25
ATOM     25  C   LIG    1       -4.328   2.175   6.204  0.00  0.00    +0.160 C 
BRANCH  25  27
ATOM     26  C   LIG    1       -6.109   2.120   7.955  0.00  0.00    +0.030 C 
ATOM     27  C   LIG    1       -4.986   1.322   7.290  0.00  0.00    -0.020 C 
ATOM     28  C   LIG    1       -5.565   0.053   6.661  0.00  0.00    +0.020 C 
ENDBRANCH  25  27
ENDBRANCH  20  25
ENDBRANCH  19  23
ENDBRANCH  17  19
ENDBRANCH   1  17
TORSDOF 8
