REMARK  Name = ZINCrH000004vEva.0
REMARK                            x       y       z     vdW  Elec       q    Type
REMARK                         _______ _______ _______ _____ _____    ______ ____
ROOT
ATOM      1  C   LIG    1       -1.256  -0.767   0.009  0.00  0.00    +0.590 C 
ATOM      2  N   LIG    1       -2.434  -0.122   0.125  0.00  0.00    -0.610 N 
ATOM      3  C   LIG    1       -2.504   1.348   0.143  0.00  0.00    +0.280 C 
ATOM      4  C   LIG    1       -3.279   1.791  -1.102  0.00  0.00    +0.080 C 
ATOM      5  C   LIG    1       -4.545   0.990  -1.257  0.00  0.00    -0.070 A 
ATOM      6  C   LIG    1       -5.549   1.521  -2.058  0.00  0.00    +0.050 A 
ATOM      7  C   LIG    1       -6.729   0.833  -2.253  0.00  0.00    +0.020 A 
ATOM      8  C   LIG    1       -6.917  -0.395  -1.646  0.00  0.00    +0.070 A 
ATOM      9  C   LIG    1       -5.924  -0.922  -0.847  0.00  0.00    -0.180 A 
ATOM     10  C   LIG    1       -4.737  -0.230  -0.648  0.00  0.00    -0.040 A 
ATOM     11  C   LIG    1       -3.697  -0.858   0.245  0.00  0.00    +0.340 C 
ATOM     12  O   LIG    1       -1.233  -1.979  -0.093  0.00  0.00    -0.520 OA
ENDROOT
BRANCH   1  18
ATOM     13  O   LIG    1        3.424   2.104   0.188  0.00  0.00    -0.510 OA
ATOM     14  C   LIG    1        2.392   1.462   0.104  0.00  0.00    +0.550 A 
ATOM     15  N   LIG    1        1.654   1.220   1.204  0.00  0.00    -0.620 N 
ATOM     16  H   LIG    1        1.960   1.566   2.057  0.00  0.00    +0.420 HD
ATOM     17  C   LIG    1        0.498   0.513   1.165  0.00  0.00    +0.330 A 
ATOM     18  C   LIG    1        0.002  -0.004   0.007  0.00  0.00    -0.210 A 
ATOM     19  C   LIG    1        0.743   0.209  -1.248  0.00  0.00    +0.030 A 
ATOM     20  C   LIG    1        0.289  -0.287  -2.466  0.00  0.00    +0.010 A 
ATOM     21  C   LIG    1        1.024  -0.061  -3.610  0.00  0.00    +0.060 A 
ATOM     22  C   LIG    1        2.207   0.664  -3.560  0.00  0.00    +0.000 A 
ATOM     23  C   LIG    1        2.672   1.169  -2.366  0.00  0.00    +0.100 A 
ATOM     24  C   LIG    1        1.946   0.948  -1.196  0.00  0.00    -0.150 A 
ENDBRANCH   1  18
BRANCH   9  25
ATOM     25  C   LIG    1       -6.129  -2.260  -0.184  0.00  0.00    +0.510 C 
ATOM     26  F   LIG    1       -6.050  -2.110   1.204  0.00  0.00    -0.180 F 
ATOM     27  F   LIG    1       -5.138  -3.150  -0.614  0.00  0.00    -0.170 F 
ATOM     28  F   LIG    1       -7.388  -2.763  -0.529  0.00  0.00    -0.170 F 
ENDBRANCH   9  25
TORSDOF 2
