REMARK  Name = ZINCvU0000000G6v.0
REMARK                            x       y       z     vdW  Elec       q    Type
REMARK                         _______ _______ _______ _____ _____    ______ ____
ROOT
ATOM      1  C   LIG    1        2.568  -0.217  -3.252  0.00  0.00    +0.170 A 
ATOM      2  N   LIG    1        1.898  -0.232  -2.122  0.00  0.00    -0.240 NA
ATOM      3  N   LIG    1        2.639   0.437  -1.143  0.00  0.00    -0.360 N 
ATOM      4  C   LIG    1        3.795   0.868  -1.668  0.00  0.00    +0.280 A 
ATOM      5  C   LIG    1        3.825   0.493  -2.995  0.00  0.00    -0.280 A 
ENDROOT
BRANCH   1  11
ATOM      6  C   LIG    1        0.982  -1.597  -4.600  0.00  0.00    +0.160 A 
ATOM      7  C   LIG    1        0.588  -2.149  -5.808  0.00  0.00    -0.090 A 
ATOM      8  C   LIG    1        1.335  -1.924  -6.949  0.00  0.00    +0.070 A 
ATOM      9  C   LIG    1        2.479  -1.148  -6.893  0.00  0.00    -0.030 A 
ATOM     10  C   LIG    1        2.881  -0.587  -5.697  0.00  0.00    +0.090 A 
ATOM     11  C   LIG    1        2.139  -0.812  -4.540  0.00  0.00    -0.060 A 
BRANCH   6  13
ATOM     12  C   LIG    1       -0.919  -2.629  -3.616  0.00  0.00    +0.220 C 
ATOM     13  O   LIG    1        0.249  -1.818  -3.479  0.00  0.00    -0.290 OA
ENDBRANCH   6  13
ENDBRANCH   1  11
BRANCH   5  14
ATOM     14  C   LIG    1        4.904   0.755  -3.963  0.00  0.00    +0.600 C 
ATOM     15  N   LIG    1        5.341   2.015  -4.160  0.00  0.00    -0.610 N 
ATOM     16  C   LIG    1        4.810   3.111  -3.345  0.00  0.00    +0.280 C 
ATOM     17  O   LIG    1        5.400  -0.165  -4.584  0.00  0.00    -0.520 OA
BRANCH  15  18
ATOM     18  C   LIG    1        6.347   2.289  -5.189  0.00  0.00    +0.380 C 
BRANCH  18  19
ATOM     19  C   LIG    1        5.659   2.592  -6.495  0.00  0.00    -0.190 A 
ATOM     20  C   LIG    1        5.285   3.805  -6.903  0.00  0.00    +0.030 A 
ATOM     21  C   LIG    1        4.669   3.839  -8.143  0.00  0.00    +0.050 A 
ATOM     22  C   LIG    1        4.543   2.653  -8.741  0.00  0.00    -0.210 A 
ATOM     23 BR   LIG    1        3.750   2.363 -10.433  0.00  0.00    +0.010 Br
ATOM     24  S   LIG    1        5.235   1.401  -7.718  0.00  0.00    +0.190 S 
ENDBRANCH  18  19
ENDBRANCH  15  18
ENDBRANCH   5  14
BRANCH   3  25
ATOM     25  C   LIG    1        2.218   0.632   0.247  0.00  0.00    +0.380 C 
BRANCH  25  26
ATOM     26  C   LIG    1        0.871   1.306   0.274  0.00  0.00    -0.110 A 
ATOM     27  C   LIG    1       -0.283   0.546   0.274  0.00  0.00    +0.040 A 
ATOM     28  C   LIG    1       -1.519   1.165   0.293  0.00  0.00    +0.000 A 
ATOM     29  C   LIG    1       -1.601   2.545   0.323  0.00  0.00    +0.010 A 
ATOM     30  C   LIG    1       -0.447   3.305   0.323  0.00  0.00    +0.000 A 
ATOM     31  C   LIG    1        0.789   2.686   0.298  0.00  0.00    +0.020 A 
ENDBRANCH  25  26
ENDBRANCH   3  25
TORSDOF 7
