REMARK  Name = ZINCvU00000004P5.0
REMARK                            x       y       z     vdW  Elec       q    Type
REMARK                         _______ _______ _______ _____ _____    ______ ____
ROOT
ATOM      1  C   LIG    1       -1.080  -1.634   4.617  0.00  0.00    +0.280 C 
ENDROOT
BRANCH   1   8
ATOM      2  C   LIG    1        2.072  -1.584   4.293  0.00  0.00    +0.160 C 
ATOM      3  C   LIG    1        1.069  -1.187   3.241  0.00  0.00    +0.090 A 
ATOM      4  N   LIG    1        1.348  -0.766   2.034  0.00  0.00    -0.280 NA
ATOM      5  N   LIG    1        0.142  -0.498   1.374  0.00  0.00    -0.360 N 
ATOM      6  C   LIG    1       -0.868  -0.781   2.223  0.00  0.00    +0.100 A 
ATOM      7  C   LIG    1       -2.340  -0.646   1.929  0.00  0.00    +0.140 C 
ATOM      8  C   LIG    1       -0.322  -1.209   3.385  0.00  0.00    -0.230 A 
BRANCH   5   9
ATOM      9  C   LIG    1        0.002  -0.004   0.002  0.00  0.00    +0.380 C 
BRANCH   9  10
ATOM     10  C   LIG    1       -0.018   1.503   0.010  0.00  0.00    -0.110 A 
ATOM     11  C   LIG    1       -1.224   2.178   0.020  0.00  0.00    +0.040 A 
ATOM     12  C   LIG    1       -1.243   3.560   0.033  0.00  0.00    +0.010 A 
ATOM     13  C   LIG    1       -0.056   4.268   0.025  0.00  0.00    +0.030 A 
ATOM     14  C   LIG    1        1.151   3.594   0.010  0.00  0.00    +0.030 A 
ATOM     15  C   LIG    1        1.170   2.211   0.003  0.00  0.00    -0.010 A 
ATOM     16 CL   LIG    1        2.686   1.364  -0.015  0.00  0.00    -0.050 Cl
ENDBRANCH   9  10
ENDBRANCH   5   9
ENDBRANCH   1   8
BRANCH   1  17
ATOM     17  N   LIG    1       -1.353  -3.076   4.550  0.00  0.00    -0.530 NA
ATOM     18  C   LIG    1       -2.274  -3.387   3.448  0.00  0.00    +0.200 C 
BRANCH  17  19
ATOM     19  C   LIG    1       -1.877  -3.573   5.829  0.00  0.00    +0.350 C 
BRANCH  19  20
ATOM     20  C   LIG    1       -1.913  -5.079   5.806  0.00  0.00    +0.200 A 
ATOM     21  N   LIG    1       -0.953  -5.886   6.184  0.00  0.00    -0.460 NA
ATOM     22  C   LIG    1       -1.431  -7.136   5.987  0.00  0.00    +0.210 A 
ATOM     23  N   LIG    1       -2.641  -7.015   5.506  0.00  0.00    -0.370 NA
ATOM     24  O   LIG    1       -2.933  -5.842   5.403  0.00  0.00    +0.080 OA
BRANCH  22  25
ATOM     25  C   LIG    1       -0.716  -8.406   6.264  0.00  0.00    -0.040 A 
ATOM     26  C   LIG    1        0.581  -8.381   6.773  0.00  0.00    +0.110 A 
ATOM     27  C   LIG    1        1.240  -9.565   7.035  0.00  0.00    -0.010 A 
ATOM     28  C   LIG    1        0.619 -10.777   6.781  0.00  0.00    +0.120 A 
ATOM     29  C   LIG    1       -0.669 -10.806   6.269  0.00  0.00    -0.020 A 
ATOM     30  F   LIG    1        1.270 -11.933   7.033  0.00  0.00    -0.130 F 
ATOM     31  C   LIG    1       -1.337  -9.627   6.010  0.00  0.00    +0.090 A 
ENDBRANCH  22  25
ENDBRANCH  19  20
ENDBRANCH  17  19
ENDBRANCH   1  17
TORSDOF 7
