REMARK  Name = ZINCrH00000tj1fM.0
REMARK                            x       y       z     vdW  Elec       q    Type
REMARK                         _______ _______ _______ _____ _____    ______ ____
ROOT
ATOM      1  N   LIG    1        1.956  -3.619  -0.530  0.00  0.00    -0.450 N 
ATOM      2  C   LIG    1        1.027  -2.619  -0.523  0.00  0.00    +0.160 A 
ATOM      3  N   LIG    1       -0.138  -3.167  -0.792  0.00  0.00    -0.290 NA
ATOM      4  N   LIG    1        0.001  -4.431  -0.974  0.00  0.00    -0.250 NA
ATOM      5  C   LIG    1        1.261  -4.770  -0.824  0.00  0.00    +0.220 A 
ENDROOT
BRANCH   5   6
ATOM      6  C   LIG    1        1.826  -6.129  -0.947  0.00  0.00    +0.030 A 
ATOM      7  C   LIG    1        3.075  -6.442  -0.398  0.00  0.00    -0.030 A 
ATOM      8  C   LIG    1        3.562  -7.725  -0.532  0.00  0.00    +0.270 A 
ATOM      9  N   LIG    1        2.872  -8.648  -1.175  0.00  0.00    -0.480 NA
ATOM     10  C   LIG    1        1.694  -8.395  -1.713  0.00  0.00    +0.280 A 
ATOM     11  C   LIG    1        1.129  -7.140  -1.621  0.00  0.00    +0.020 A 
ENDBRANCH   5   6
BRANCH   1  12
ATOM     12  C   LIG    1        3.393  -3.493  -0.277  0.00  0.00    +0.340 C 
BRANCH  12  14
ATOM     13  C   LIG    1        4.484  -4.400   1.710  0.00  0.00    +0.080 C 
ATOM     14  C   LIG    1        3.647  -3.526   1.208  0.00  0.00    -0.060 C 
ENDBRANCH  12  14
ENDBRANCH   1  12
BRANCH   2  15
ATOM     15  S   LIG    1        1.331  -0.913  -0.204  0.00  0.00    +0.080 S 
BRANCH  15  16
ATOM     16  C   LIG    1       -0.348  -0.258  -0.373  0.00  0.00    +0.010 C 
ATOM     17  C   LIG    1       -0.821  -0.432  -1.817  0.00  0.00    +0.080 C 
BRANCH  16  18
ATOM     18  C   LIG    1       -0.354   1.206  -0.016  0.00  0.00    +0.540 C 
ATOM     19  N   LIG    1       -1.509   1.812   0.325  0.00  0.00    -0.590 N 
ATOM     20  C   LIG    1       -1.554   3.262   0.555  0.00  0.00    +0.220 C 
ATOM     21  C   LIG    1       -2.658   3.863  -0.329  0.00  0.00    +0.020 C 
ATOM     22  C   LIG    1       -3.978   3.141  -0.049  0.00  0.00    +0.020 C 
ATOM     23  C   LIG    1       -3.835   1.659  -0.399  0.00  0.00    +0.020 C 
ATOM     24  C   LIG    1       -0.205   3.882   0.187  0.00  0.00    +0.060 C 
ATOM     25  C   LIG    1       -2.746   1.033   0.478  0.00  0.00    +0.230 C 
ATOM     26  C   LIG    1       -3.190   1.060   1.942  0.00  0.00    +0.030 C 
ATOM     27  O   LIG    1        0.679   1.841  -0.040  0.00  0.00    -0.520 OA
ENDBRANCH  16  18
ENDBRANCH  15  16
ENDBRANCH   2  15
TORSDOF 6
