REMARK  Name = ZINCrH000004rfOj.0
REMARK                            x       y       z     vdW  Elec       q    Type
REMARK                         _______ _______ _______ _____ _____    ______ ____
ROOT
ATOM      1  N   LIG    1        3.177   2.934  -2.110  0.00  0.00    -0.700 N 
ATOM      2  H   LIG    1        3.446   2.165  -1.585  0.00  0.00    +0.410 HD
ATOM      3  C   LIG    1        3.080   2.835  -3.451  0.00  0.00    +0.610 C 
ATOM      4  O   LIG    1        2.742   3.800  -4.109  0.00  0.00    -0.510 OA
ENDROOT
BRANCH   3   5
ATOM      5  C   LIG    1        3.384   1.556  -4.120  0.00  0.00    -0.080 A 
ATOM      6  C   LIG    1        3.326   1.299  -5.460  0.00  0.00    +0.050 A 
ATOM      7  C   LIG    1        3.713  -0.066  -5.561  0.00  0.00    +0.050 A 
ATOM      8  N   LIG    1        3.944  -0.474  -4.338  0.00  0.00    -0.320 NA
ATOM      9  O   LIG    1        3.767   0.408  -3.530  0.00  0.00    +0.130 OA
BRANCH   7  10
ATOM     10  C   LIG    1        3.827  -0.869  -6.803  0.00  0.00    -0.040 A 
ATOM     11  C   LIG    1        4.216  -2.205  -6.739  0.00  0.00    +0.090 A 
ATOM     12  C   LIG    1        4.320  -2.949  -7.897  0.00  0.00    +0.040 A 
ATOM     13  C   LIG    1        4.040  -2.371  -9.122  0.00  0.00    +0.080 A 
ATOM     14  C   LIG    1        3.653  -1.045  -9.195  0.00  0.00    -0.070 A 
ATOM     15 CL   LIG    1        3.302  -0.328 -10.736  0.00  0.00    -0.040 Cl
ATOM     16  C   LIG    1        3.540  -0.291  -8.040  0.00  0.00    +0.130 A 
ATOM     17  F   LIG    1        3.157   1.003  -8.110  0.00  0.00    -0.120 F 
ENDBRANCH   7  10
ENDBRANCH   3   5
BRANCH   1  18
ATOM     18  CA  LIG    1        2.876   4.205  -1.446  0.00  0.00    +0.260 C 
BRANCH  18  19
ATOM     19  C   LIG    1        2.451   3.937  -0.001  0.00  0.00    +0.100 C 
BRANCH  19  24
ATOM     20  C   LIG    1       -2.514   0.980   0.019  0.00  0.00    +0.090 C 
ATOM     21  C   LIG    1       -1.219   1.751   0.017  0.00  0.00    -0.090 A 
ATOM     22  C   LIG    1       -0.013   1.076   0.008  0.00  0.00    +0.000 A 
ATOM     23  C   LIG    1        1.175   1.783   0.000  0.00  0.00    +0.010 A 
ATOM     24  C   LIG    1        1.156   3.165   0.008  0.00  0.00    -0.090 A 
ATOM     25  C   LIG    1       -0.050   3.840   0.023  0.00  0.00    +0.010 A 
ATOM     26  C   LIG    1       -1.238   3.133   0.030  0.00  0.00    +0.000 A 
ENDBRANCH  19  24
ENDBRANCH  18  19
BRANCH  18  27
ATOM     27  C   LIG    1        4.121   5.093  -1.455  0.00  0.00    +0.180 C 
BRANCH  27  28
ATOM     28  O   LIG    1        5.145   4.486  -0.663  0.00  0.00    -0.570 OA
ATOM     29  H   LIG    1        5.966   4.996  -0.624  0.00  0.00    +0.380 HD
ENDBRANCH  27  28
ENDBRANCH  18  27
ENDBRANCH   1  18
TORSDOF 7
