REMARK  Name = ZINCvU0000000FOW.0
REMARK                            x       y       z     vdW  Elec       q    Type
REMARK                         _______ _______ _______ _____ _____    ______ ____
ROOT
ATOM      1  O   LIG    1        2.339  -4.949  -0.200  0.00  0.00    -0.430 OA
ATOM      2  C   LIG    1        1.249  -4.411  -0.136  0.00  0.00    +0.490 C 
ATOM      3  O   LIG    1        0.039  -5.009  -0.131  0.00  0.00    -0.290 OA
ATOM      4  C   LIG    1       -0.913  -4.058  -0.054  0.00  0.00    +0.330 C 
ATOM      5  N   LIG    1       -0.392  -2.864  -0.002  0.00  0.00    -0.460 NA
ATOM      6  C   LIG    1        0.969  -2.969  -0.043  0.00  0.00    -0.120 C 
ATOM      7  C   LIG    1        1.888  -1.939  -0.010  0.00  0.00    +0.300 C 
ENDROOT
BRANCH   4   8
ATOM      8  C   LIG    1       -2.362  -4.334  -0.032  0.00  0.00    -0.040 A 
ATOM      9  C   LIG    1       -3.275  -3.279   0.054  0.00  0.00    +0.110 A 
ATOM     10  C   LIG    1       -4.627  -3.541   0.070  0.00  0.00    +0.020 A 
ATOM     11  C   LIG    1       -5.084  -4.852   0.010  0.00  0.00    +0.120 A 
ATOM     12  C   LIG    1       -4.180  -5.904  -0.071  0.00  0.00    +0.000 A 
ATOM     13  C   LIG    1       -2.826  -5.651  -0.093  0.00  0.00    +0.080 A 
BRANCH  11  14
ATOM     14  O   LIG    1       -6.418  -5.106   0.030  0.00  0.00    -0.260 OA
BRANCH  14  15
ATOM     15  C   LIG    1       -6.931  -5.737   1.118  0.00  0.00    +0.120 A 
ATOM     16  C   LIG    1       -6.123  -5.994   2.217  0.00  0.00    -0.060 A 
ATOM     17  C   LIG    1       -6.649  -6.631   3.324  0.00  0.00    +0.050 A 
ATOM     18  C   LIG    1       -7.975  -7.022   3.334  0.00  0.00    -0.020 A 
ATOM     19  C   LIG    1       -8.780  -6.773   2.238  0.00  0.00    +0.050 A 
ATOM     20  C   LIG    1       -8.261  -6.131   1.130  0.00  0.00    -0.010 A 
ENDBRANCH  14  15
ENDBRANCH  11  14
ENDBRANCH   4   8
BRANCH   7  21
ATOM     21  C   LIG    1        1.430  -0.551   0.079  0.00  0.00    -0.240 A 
ATOM     22  C   LIG    1        2.230   0.580   0.120  0.00  0.00    +0.300 A 
ATOM     23  N   LIG    1        1.412   1.646   0.200  0.00  0.00    -0.300 N 
ATOM     24  N   LIG    1        0.088   1.192   0.210  0.00  0.00    -0.300 NA
ATOM     25  C   LIG    1        0.085  -0.111   0.139  0.00  0.00    +0.330 A 
BRANCH  23  26
ATOM     26  C   LIG    1        1.817   2.986   0.262  0.00  0.00    +0.140 A 
ATOM     27  C   LIG    1        3.168   3.305   0.249  0.00  0.00    -0.010 A 
ATOM     28  C   LIG    1        3.565   4.627   0.305  0.00  0.00    +0.050 A 
ATOM     29  C   LIG    1        2.618   5.631   0.385  0.00  0.00    +0.010 A 
ATOM     30  C   LIG    1        1.272   5.316   0.404  0.00  0.00    +0.040 A 
ATOM     31  C   LIG    1        0.869   3.997   0.343  0.00  0.00    +0.030 A 
ENDBRANCH  23  26
ENDBRANCH   7  21
TORSDOF 5
