REMARK  Name = ZINCrH000004v5x7.0
REMARK                            x       y       z     vdW  Elec       q    Type
REMARK                         _______ _______ _______ _____ _____    ______ ____
ROOT
ATOM      1  C   LIG    1        3.470   1.456  -3.942  0.00  0.00    -0.080 A 
ATOM      2  C   LIG    1        2.592   2.536  -3.830  0.00  0.00    +0.080 A 
ATOM      3  C   LIG    1        1.979   2.800  -2.623  0.00  0.00    +0.130 A 
ATOM      4  C   LIG    1        2.231   1.996  -1.525  0.00  0.00    -0.650 A 
ATOM      5  C   LIG    1        3.103   0.928  -1.628  0.00  0.00    +0.120 A 
ATOM      6  C   LIG    1        3.720   0.649  -2.830  0.00  0.00    +0.030 A 
ENDROOT
BRANCH   1   8
ATOM      7  O   LIG    1        3.912   1.871  -6.198  0.00  0.00    -0.500 OA
ATOM      8  C   LIG    1        4.131   1.167  -5.232  0.00  0.00    +0.560 C 
ATOM      9  N   LIG    1        4.978   0.124  -5.337  0.00  0.00    -0.660 N 
ATOM     10  H   LIG    1        5.203  -0.398  -4.551  0.00  0.00    +0.420 HD
BRANCH   9  11
ATOM     11  C   LIG    1        5.531  -0.206  -6.579  0.00  0.00    +0.160 A 
ATOM     12  C   LIG    1        5.843   0.794  -7.489  0.00  0.00    +0.060 A 
ATOM     13  C   LIG    1        6.389   0.466  -8.715  0.00  0.00    +0.070 A 
ATOM     14  C   LIG    1        6.625  -0.859  -9.037  0.00  0.00    -0.040 A 
ATOM     15  C   LIG    1        6.315  -1.860  -8.132  0.00  0.00    +0.070 A 
ATOM     16 CL   LIG    1        7.312  -1.268 -10.578  0.00  0.00    -0.050 Cl
ATOM     17  C   LIG    1        5.774  -1.536  -6.902  0.00  0.00    -0.050 A 
ATOM     18 CL   LIG    1        5.392  -2.791  -5.764  0.00  0.00    -0.050 Cl
ENDBRANCH   9  11
ENDBRANCH   1   8
BRANCH   4  19
ATOM     19  S   LIG    1        1.443   2.341   0.013  0.00  0.00    +2.700 S 
ATOM     20  O   LIG    1        2.263   1.766   1.021  0.00  0.00    -0.950 OA
ATOM     21  O   LIG    1        1.096   3.719  -0.014  0.00  0.00    -0.950 OA
BRANCH  19  22
ATOM     22  N   LIG    1        0.017   1.499   0.033  0.00  0.00    -1.110 NA
ATOM     23  H   LIG    1       -0.827   1.976   0.043  0.00  0.00    +0.420 HD
BRANCH  22  24
ATOM     24  C   LIG    1        0.031   0.035   0.030  0.00  0.00    +0.290 C 
BRANCH  24  25
ATOM     25  C   LIG    1       -1.352  -0.489   0.423  0.00  0.00    +0.150 C 
ATOM     26  C   LIG    1       -1.348  -2.030   0.422  0.00  0.00    +0.010 C 
ATOM     27  C   LIG    1       -1.750  -2.411   1.868  0.00  0.00    +0.000 C 
ATOM     28  C   LIG    1       -2.452  -1.120   2.361  0.00  0.00    +0.200 C 
ATOM     29  O   LIG    1       -1.675  -0.063   1.757  0.00  0.00    -0.370 OA
ENDBRANCH  24  25
ENDBRANCH  22  24
ENDBRANCH  19  22
ENDBRANCH   4  19
TORSDOF 6
