REMARK  Name = ZINCpe000000ZkoZ.0
REMARK                            x       y       z     vdW  Elec       q    Type
REMARK                         _______ _______ _______ _____ _____    ______ ____
ROOT
ATOM      1  O   LIG    1        2.631   0.918   3.798  0.00  0.00    -0.520 OA
ATOM      2  C   LIG    1        1.538   1.436   3.675  0.00  0.00    +0.570 C 
ATOM      3  N   LIG    1        1.182   1.986   2.497  0.00  0.00    -0.710 N 
ATOM      4  H   LIG    1        0.310   2.400   2.399  0.00  0.00    +0.400 HD
ENDROOT
BRANCH   3   5
ATOM      5  C   LIG    1        2.112   1.960   1.365  0.00  0.00    +0.240 C 
ATOM      6  C   LIG    1        2.730   3.332   1.043  0.00  0.00    +0.000 C 
ATOM      7  C   LIG    1        1.530   3.567   0.109  0.00  0.00    +0.170 C 
ATOM      8  C   LIG    1        1.421   2.042  -0.001  0.00  0.00    -0.070 C 
ATOM      9  C   LIG    1       -0.019   1.528   0.010  0.00  0.00    +0.010 C 
ATOM     10  C   LIG    1        0.002  -0.004   0.002  0.00  0.00    +0.210 C 
ATOM     11  O   LIG    1        0.765  -0.460  -1.117  0.00  0.00    -0.380 OA
ATOM     12  C   LIG    1        2.142  -0.079  -1.086  0.00  0.00    +0.210 C 
ATOM     13  C   LIG    1        2.247   1.449  -1.141  0.00  0.00    +0.050 C 
BRANCH   7  14
ATOM     14  O   LIG    1        1.878   4.207  -1.120  0.00  0.00    -0.550 OA
ATOM     15  H   LIG    1        1.949   5.169  -1.057  0.00  0.00    +0.380 HD
ENDBRANCH   7  14
ENDBRANCH   3   5
BRANCH   2  16
ATOM     16  C   LIG    1        0.599   1.462   4.817  0.00  0.00    -0.160 A 
ATOM     17  C   LIG    1       -0.658   2.054   4.688  0.00  0.00    +0.260 A 
ATOM     18  N   LIG    1       -1.497   2.079   5.702  0.00  0.00    -0.460 NA
ATOM     19  C   LIG    1       -1.193   1.553   6.873  0.00  0.00    +0.250 A 
ATOM     20  C   LIG    1        0.038   0.945   7.085  0.00  0.00    +0.110 A 
ATOM     21  C   LIG    1        0.955   0.889   6.043  0.00  0.00    +0.120 A 
BRANCH  20  22
ATOM     22  N   LIG    1        0.348   0.390   8.333  0.00  0.00    -0.560 N 
ATOM     23  C   LIG    1       -0.553   0.400   9.491  0.00  0.00    +0.270 C 
ATOM     24  C   LIG    1        0.006  -0.672  10.455  0.00  0.00    +0.060 C 
ATOM     25  C   LIG    1        1.500  -0.703  10.057  0.00  0.00    +0.070 C 
ATOM     26  C   LIG    1        1.512  -0.215   8.625  0.00  0.00    +0.510 C 
ATOM     27  O   LIG    1        2.438  -0.350   7.854  0.00  0.00    -0.500 OA
ENDBRANCH  20  22
ENDBRANCH   2  16
TORSDOF 4
