REMARK  Name = ZINCrg00000SjSs6.0
REMARK                            x       y       z     vdW  Elec       q    Type
REMARK                         _______ _______ _______ _____ _____    ______ ____
ROOT
ATOM      1  N   LIG    1       -0.020   1.652   0.011  0.00  0.00    -1.000 NA
ATOM      2  C   LIG    1       -1.288   2.401   0.021  0.00  0.00    +0.310 C 
ATOM      3  C   LIG    1       -1.348   3.192   1.333  0.00  0.00    +0.110 C 
ATOM      4  C   LIG    1       -0.051   3.910   1.583  0.00  0.00    -0.220 A 
ATOM      5  C   LIG    1        1.120   3.559   0.999  0.00  0.00    +0.160 A 
ATOM      6  N   LIG    1        2.241   4.230   1.307  0.00  0.00    -0.530 NA
ATOM      7  C   LIG    1        2.240   5.228   2.146  0.00  0.00    +0.590 A 
ATOM      8  N   LIG    1        1.105   5.636   2.747  0.00  0.00    -0.530 N 
ATOM      9  C   LIG    1       -0.055   4.999   2.488  0.00  0.00    +0.520 A 
ATOM     10  O   LIG    1       -1.091   5.356   3.023  0.00  0.00    -0.510 OA
ATOM     11  C   LIG    1        1.222   2.432   0.004  0.00  0.00    +0.400 C 
ENDROOT
BRANCH   1  12
ATOM     12  S   LIG    1        0.002  -0.004   0.002  0.00  0.00    +2.610 S 
ATOM     13  O   LIG    1        1.238  -0.334  -0.617  0.00  0.00    -0.950 OA
ATOM     14  O   LIG    1       -1.236  -0.368  -0.593  0.00  0.00    -0.940 OA
BRANCH  12  16
ATOM     15  C   LIG    1        0.047  -1.991   1.882  0.00  0.00    +0.070 C 
ATOM     16  C   LIG    1        0.025  -0.466   1.756  0.00  0.00    -0.370 C 
ENDBRANCH  12  16
ENDBRANCH   1  12
BRANCH   8  17
ATOM     17  C   LIG    1        1.131   6.766   3.678  0.00  0.00    +0.480 C 
BRANCH  17  18
ATOM     18  C   LIG    1        0.891   8.047   2.921  0.00  0.00    +0.140 A 
ATOM     19  N   LIG    1       -0.271   8.607   2.683  0.00  0.00    -0.440 NA
ATOM     20  C   LIG    1        0.002   9.722   1.981  0.00  0.00    +0.180 A 
ATOM     21  N   LIG    1        1.291   9.781   1.831  0.00  0.00    -0.370 NA
ATOM     22  O   LIG    1        1.821   8.832   2.369  0.00  0.00    +0.090 OA
BRANCH  20  23
ATOM     23  C   LIG    1       -1.003  10.718   1.464  0.00  0.00    +0.100 C 
ATOM     24  C   LIG    1       -0.877  10.849  -0.068  0.00  0.00    +0.020 C 
ATOM     25  C   LIG    1       -1.126  12.354  -0.342  0.00  0.00    +0.020 C 
ATOM     26  C   LIG    1       -0.422  13.041   0.855  0.00  0.00    +0.020 C 
ATOM     27  C   LIG    1       -0.715  12.111   2.050  0.00  0.00    +0.040 C 
ENDBRANCH  20  23
ENDBRANCH  17  18
ENDBRANCH   8  17
TORSDOF 5
