REMARK  Name = ZINCqH0000000tWD.0
REMARK                            x       y       z     vdW  Elec       q    Type
REMARK                         _______ _______ _______ _____ _____    ______ ____
ROOT
ATOM      1  N   LIG    1        3.710  -3.389   3.511  0.00  0.00    -0.420 N 
ATOM      2  C   LIG    1        3.325  -2.563   2.492  0.00  0.00    +0.170 A 
ATOM      3  N   LIG    1        3.038  -3.328   1.464  0.00  0.00    -0.280 NA
ATOM      4  N   LIG    1        3.212  -4.563   1.776  0.00  0.00    -0.280 NA
ATOM      5  C   LIG    1        3.617  -4.661   3.010  0.00  0.00    +0.230 A 
ENDROOT
BRANCH   1  10
ATOM      6  C   LIG    1        5.673  -1.909   6.255  0.00  0.00    +0.160 A 
ATOM      7  C   LIG    1        4.904  -2.277   7.353  0.00  0.00    +0.040 A 
ATOM      8  C   LIG    1        3.746  -3.009   7.173  0.00  0.00    +0.060 A 
ATOM      9  C   LIG    1        3.349  -3.378   5.902  0.00  0.00    +0.020 A 
ATOM     10  C   LIG    1        4.114  -3.014   4.801  0.00  0.00    +0.130 A 
ATOM     11  C   LIG    1        5.279  -2.283   4.978  0.00  0.00    +0.000 A 
BRANCH   6  14
ATOM     12  C   LIG    1        8.791  -0.474   7.798  0.00  0.00    +0.110 C 
ATOM     13  C   LIG    1        7.595  -1.354   7.543  0.00  0.00    +0.510 C 
ATOM     14  N   LIG    1        6.845  -1.168   6.438  0.00  0.00    -0.670 N 
ATOM     15  H   LIG    1        7.119  -0.520   5.770  0.00  0.00    +0.420 HD
ATOM     16  O   LIG    1        7.306  -2.229   8.331  0.00  0.00    -0.520 OA
ENDBRANCH   6  14
ENDBRANCH   1  10
BRANCH   5  17
ATOM     17  C   LIG    1        3.932  -5.937   3.748  0.00  0.00    +0.030 C 
ATOM     18  C   LIG    1        3.963  -7.233   2.936  0.00  0.00    +0.070 C 
ATOM     19  C   LIG    1        2.805  -6.961   3.901  0.00  0.00    +0.060 C 
ENDBRANCH   5  17
BRANCH   2  20
ATOM     20  S   LIG    1        3.238  -0.804   2.545  0.00  0.00    +0.040 S 
BRANCH  20  21
ATOM     21  C   LIG    1        2.671  -0.466   0.860  0.00  0.00    +0.000 C 
ATOM     22  C   LIG    1        2.615   1.047   0.625  0.00  0.00    +0.070 C 
ATOM     23  C   LIG    1        2.005   1.326  -0.750  0.00  0.00    +0.030 C 
ATOM     24  C   LIG    1        0.559   0.830  -0.786  0.00  0.00    +0.030 C 
ATOM     25  C   LIG    1        0.538  -0.691  -0.604  0.00  0.00    +0.030 C 
ATOM     26  C   LIG    1        1.283  -1.034   0.667  0.00  0.00    +0.370 C 
ATOM     27  O   LIG    1        0.782  -1.743   1.506  0.00  0.00    -0.420 OA
ENDBRANCH  20  21
ENDBRANCH   2  20
TORSDOF 5
