REMARK  Name = ZINCrH000004piNA.0
REMARK                            x       y       z     vdW  Elec       q    Type
REMARK                         _______ _______ _______ _____ _____    ______ ____
ROOT
ATOM      1  N   LIG    1       -0.041  -4.996   0.695  0.00  0.00    -0.740 N 
ATOM      2  H   LIG    1       -0.719  -4.586   1.255  0.00  0.00    +0.400 HD
ATOM      3  C   LIG    1        0.556  -6.139   1.087  0.00  0.00    +0.710 C 
ATOM      4  N   LIG    1        0.211  -6.713   2.256  0.00  0.00    -0.630 N 
ATOM      5  C   LIG    1       -0.813  -6.095   3.102  0.00  0.00    +0.280 C 
ATOM      6  O   LIG    1        1.406  -6.652   0.385  0.00  0.00    -0.580 OA
ENDROOT
BRANCH   1   8
ATOM      7  C   LIG    1       -0.468  -5.007  -1.713  0.00  0.00    +0.040 C 
ATOM      8  C   LIG    1        0.334  -4.372  -0.576  0.00  0.00    +0.310 C 
BRANCH   8   9
ATOM      9  C   LIG    1        0.039  -2.895  -0.517  0.00  0.00    -0.080 A 
ATOM     10  C   LIG    1       -1.117  -2.447   0.094  0.00  0.00    +0.020 A 
ATOM     11  C   LIG    1       -1.393  -1.093   0.151  0.00  0.00    +0.050 A 
ATOM     12  C   LIG    1       -0.510  -0.182  -0.404  0.00  0.00    +0.030 A 
ATOM     13  O   LIG    1       -0.544   1.180  -0.482  0.00  0.00    -0.310 OA
ATOM     14  C   LIG    1        0.804   1.582  -0.787  0.00  0.00    +0.430 C 
ATOM     15  O   LIG    1        1.350   0.446  -1.483  0.00  0.00    -0.310 OA
ATOM     16  C   LIG    1        0.655  -0.634  -1.020  0.00  0.00    +0.040 A 
ATOM     17  C   LIG    1        0.925  -1.991  -1.074  0.00  0.00    +0.050 A 
ENDBRANCH   8   9
ENDBRANCH   1   8
BRANCH   4  18
ATOM     18  C   LIG    1        0.860  -7.956   2.681  0.00  0.00    +0.310 C 
ATOM     19  C   LIG    1        1.437  -7.775   4.087  0.00  0.00    +0.050 C 
BRANCH  18  20
ATOM     20  C   LIG    1       -0.153  -9.073   2.694  0.00  0.00    -0.100 A 
ATOM     21  C   LIG    1       -1.290  -8.965   3.471  0.00  0.00    +0.080 A 
ATOM     22  C   LIG    1       -2.221  -9.988   3.479  0.00  0.00    +0.030 A 
ATOM     23  C   LIG    1       -2.009 -11.121   2.717  0.00  0.00    +0.100 A 
ATOM     24  C   LIG    1       -0.869 -11.230   1.943  0.00  0.00    -0.040 A 
ATOM     25  C   LIG    1        0.059 -10.207   1.932  0.00  0.00    +0.120 A 
BRANCH  24  26
ATOM     26  N   LIG    1       -0.641 -12.445   1.128  0.00  0.00    +0.030 N 
ATOM     27  O   LIG    1       -1.459 -13.347   1.138  0.00  0.00    -0.160 OA
ATOM     28  O   LIG    1        0.363 -12.541   0.446  0.00  0.00    -0.150 OA
ENDBRANCH  24  26
ENDBRANCH  18  20
ENDBRANCH   4  18
TORSDOF 5
