REMARK  Name = ZINCrH000004jhbQ.0
REMARK                            x       y       z     vdW  Elec       q    Type
REMARK                         _______ _______ _______ _____ _____    ______ ____
ROOT
ATOM      1  N   LIG    1       -1.635   2.493   1.409  0.00  0.00    -0.530 NA
ATOM      2  C   LIG    1       -0.469   2.867   2.220  0.00  0.00    +0.180 C 
ATOM      3  C   LIG    1       -0.889   3.005   3.685  0.00  0.00    +0.020 C 
ATOM      4  C   LIG    1       -1.978   4.075   3.800  0.00  0.00    +0.180 C 
ATOM      5  C   LIG    1       -3.160   3.686   2.908  0.00  0.00    +0.070 C 
ATOM      6  C   LIG    1       -2.675   3.528   1.466  0.00  0.00    +0.190 C 
ENDROOT
BRANCH   4   7
ATOM      7  C   LIG    1       -2.438   4.176   5.231  0.00  0.00    -0.110 A 
ATOM      8  C   LIG    1       -3.487   3.390   5.675  0.00  0.00    +0.020 A 
ATOM      9  C   LIG    1       -3.909   3.475   6.986  0.00  0.00    +0.020 A 
ATOM     10  C   LIG    1       -3.284   4.361   7.861  0.00  0.00    -0.040 A 
ATOM     11  C   LIG    1       -2.232   5.153   7.407  0.00  0.00    +0.020 A 
ATOM     12  C   LIG    1       -1.814   5.057   6.096  0.00  0.00    +0.010 A 
BRANCH  10  13
ATOM     13  C   LIG    1       -3.737   4.460   9.270  0.00  0.00    -0.050 A 
ATOM     14  C   LIG    1       -3.108   5.341  10.147  0.00  0.00    +0.010 A 
ATOM     15  C   LIG    1       -3.537   5.433  11.456  0.00  0.00    +0.000 A 
ATOM     16  C   LIG    1       -4.582   4.644  11.900  0.00  0.00    +0.000 A 
ATOM     17  C   LIG    1       -5.207   3.763  11.036  0.00  0.00    +0.010 A 
ATOM     18  C   LIG    1       -4.790   3.667   9.724  0.00  0.00    +0.020 A 
ENDBRANCH  10  13
ENDBRANCH   4   7
BRANCH   4  19
ATOM     19  O   LIG    1       -1.456   5.336   3.377  0.00  0.00    -0.550 OA
ATOM     20  H   LIG    1       -0.703   5.645   3.898  0.00  0.00    +0.370 HD
ENDBRANCH   4  19
BRANCH   1  21
ATOM     21  C   LIG    1       -1.243   2.216   0.020  0.00  0.00    +0.330 C 
BRANCH  21  24
ATOM     22  C   LIG    1        1.270  -0.340  -0.012  0.00  0.00    +0.180 A 
ATOM     23  N   LIG    1        0.002  -0.004   0.002  0.00  0.00    -0.470 NA
ATOM     24  C   LIG    1       -0.016   1.341   0.009  0.00  0.00    +0.180 A 
ATOM     25  N   LIG    1        1.218   1.747  -0.000  0.00  0.00    -0.380 NA
ATOM     26  O   LIG    1        1.972   0.797  -0.013  0.00  0.00    +0.080 OA
BRANCH  22  28
ATOM     27  C   LIG    1        2.002  -2.205  -1.472  0.00  0.00    +0.050 C 
ATOM     28  C   LIG    1        1.827  -1.740  -0.025  0.00  0.00    +0.180 C 
ENDBRANCH  22  28
ENDBRANCH  21  24
ENDBRANCH   1  21
TORSDOF 6
