REMARK  Name = ZINCrD000000fKib.0
REMARK                            x       y       z     vdW  Elec       q    Type
REMARK                         _______ _______ _______ _____ _____    ______ ____
ROOT
ATOM      1  N   LIG    1       -2.136  -2.913   0.774  0.00  0.00    -0.670 N 
ATOM      2  H   LIG    1       -3.014  -2.737   0.402  0.00  0.00    +0.410 HD
ATOM      3  C   LIG    1       -1.193  -1.951   0.762  0.00  0.00    +0.520 C 
ATOM      4  O   LIG    1       -0.129  -2.137   1.315  0.00  0.00    -0.510 OA
ENDROOT
BRANCH   1   8
ATOM      5  C   LIG    1       -1.280  -6.652   2.410  0.00  0.00    +0.130 A 
ATOM      6  C   LIG    1       -0.742  -5.505   2.979  0.00  0.00    +0.000 A 
ATOM      7  C   LIG    1       -1.025  -4.268   2.437  0.00  0.00    +0.040 A 
ATOM      8  C   LIG    1       -1.848  -4.169   1.323  0.00  0.00    +0.120 A 
ATOM      9  C   LIG    1       -2.390  -5.316   0.757  0.00  0.00    +0.010 A 
ATOM     10  C   LIG    1       -2.103  -6.554   1.296  0.00  0.00    +0.040 A 
BRANCH   5  13
ATOM     11  C   LIG    1       -0.723 -10.359   2.765  0.00  0.00    +0.110 C 
ATOM     12  C   LIG    1       -0.920  -8.992   2.162  0.00  0.00    +0.510 C 
ATOM     13  N   LIG    1       -0.993  -7.908   2.960  0.00  0.00    -0.670 N 
ATOM     14  H   LIG    1       -0.846  -7.997   3.914  0.00  0.00    +0.410 HD
ATOM     15  O   LIG    1       -1.013  -8.868   0.959  0.00  0.00    -0.520 OA
ENDBRANCH   5  13
ENDBRANCH   1   8
BRANCH   3  16
ATOM     16  C   LIG    1       -1.460  -0.643   0.062  0.00  0.00    +0.260 C 
BRANCH  16  17
ATOM     17  N   LIG    1       -0.499   0.362   0.523  0.00  0.00    -0.710 N 
ATOM     18  H   LIG    1        0.361   0.086   0.875  0.00  0.00    +0.410 HD
ATOM     19  C   LIG    1       -0.811   1.672   0.458  0.00  0.00    +0.570 C 
ATOM     20  O   LIG    1       -1.887   2.019   0.011  0.00  0.00    -0.530 OA
BRANCH  19  21
ATOM     21  C   LIG    1        0.159   2.687   0.923  0.00  0.00    -0.140 A 
ATOM     22  C   LIG    1        1.395   2.291   1.436  0.00  0.00    +0.050 A 
ATOM     23  C   LIG    1        2.297   3.244   1.864  0.00  0.00    +0.000 A 
ATOM     24  C   LIG    1        1.974   4.587   1.796  0.00  0.00    -0.060 A 
ATOM     25  C   LIG    1        0.748   4.985   1.293  0.00  0.00    +0.000 A 
ATOM     26  C   LIG    1        2.962   5.621   2.271  0.00  0.00    +0.100 C 
ATOM     27  C   LIG    1       -0.161   4.044   0.857  0.00  0.00    +0.090 A 
ENDBRANCH  19  21
ENDBRANCH  16  17
BRANCH  16  28
ATOM     28  C   LIG    1       -1.312  -0.834  -1.449  0.00  0.00    -0.020 C 
ATOM     29  C   LIG    1        0.143  -1.167  -1.781  0.00  0.00    +0.030 C 
ATOM     30  C   LIG    1       -1.718   0.454  -2.168  0.00  0.00    +0.040 C 
ENDBRANCH  16  28
ENDBRANCH   3  16
TORSDOF 6
