REMARK  Name = ZINCrg000000q0I5.0
REMARK                            x       y       z     vdW  Elec       q    Type
REMARK                         _______ _______ _______ _____ _____    ______ ____
ROOT
ATOM      1  C   LIG    1       -1.632   1.865   7.430  0.00  0.00    +0.270 C 
ATOM      2  C   LIG    1       -1.125   0.485   7.856  0.00  0.00    +0.030 C 
ATOM      3  C   LIG    1       -0.892   0.470   9.369  0.00  0.00    +0.050 C 
ATOM      4  C   LIG    1        0.174   1.510   9.729  0.00  0.00    +0.300 C 
ATOM      5  N   LIG    1       -0.238   2.815   9.194  0.00  0.00    -0.610 N 
ATOM      6  C   LIG    1       -0.309   3.894   9.998  0.00  0.00    +0.530 C 
ATOM      7  O   LIG    1       -0.120   3.776  11.190  0.00  0.00    -0.490 OA
ATOM      8  C   LIG    1       -0.573   2.920   7.768  0.00  0.00    +0.280 C 
ENDROOT
BRANCH   6   9
ATOM      9  C   LIG    1       -0.622   5.248   9.415  0.00  0.00    +0.140 C 
ATOM     10  C   LIG    1        0.562   5.734   8.568  0.00  0.00    +0.240 C 
ATOM     11  O   LIG    1        0.237   7.025   8.042  0.00  0.00    -0.300 OA
ATOM     12  C   LIG    1       -0.296   7.925   8.914  0.00  0.00    +0.040 A 
ATOM     13  C   LIG    1       -0.302   9.271   8.583  0.00  0.00    +0.030 A 
ATOM     14  C   LIG    1       -0.847  10.196   9.455  0.00  0.00    +0.030 A 
ATOM     15  C   LIG    1       -1.385   9.781  10.658  0.00  0.00    +0.030 A 
ATOM     16  C   LIG    1       -1.380   8.440  10.995  0.00  0.00    +0.030 A 
ATOM     17  C   LIG    1       -0.835   7.508  10.125  0.00  0.00    +0.050 A 
ATOM     18  O   LIG    1       -0.835   6.191  10.472  0.00  0.00    -0.280 OA
ENDBRANCH   6   9
BRANCH   1  21
ATOM     19  C   LIG    1       -1.760   1.494   3.843  0.00  0.00    -0.090 A 
ATOM     20  C   LIG    1       -1.183   1.203   5.048  0.00  0.00    +0.320 A 
ATOM     21  N   LIG    1       -1.883   1.869   5.987  0.00  0.00    -0.360 N 
ATOM     22  N   LIG    1       -2.903   2.562   5.319  0.00  0.00    -0.050 NA
ATOM     23  N   LIG    1       -2.800   2.318   4.058  0.00  0.00    -0.180 NA
BRANCH  19  24
ATOM     24  C   LIG    1       -1.320   0.986   2.532  0.00  0.00    +0.560 C 
ATOM     25  O   LIG    1       -0.361   0.243   2.458  0.00  0.00    -0.500 OA
BRANCH  24  27
ATOM     26  C   LIG    1       -1.492   0.807   0.157  0.00  0.00    +0.290 C 
ATOM     27  O   LIG    1       -1.981   1.346   1.414  0.00  0.00    -0.340 OA
ENDBRANCH  24  27
ENDBRANCH  19  24
ENDBRANCH   1  21
TORSDOF 4
