REMARK  Name = ZINCrD000003UlwA.0
REMARK                            x       y       z     vdW  Elec       q    Type
REMARK                         _______ _______ _______ _____ _____    ______ ____
ROOT
ATOM      1  S   LIG    1       -2.058   1.953   0.828  0.00  0.00    -0.210 S 
ENDROOT
BRANCH   1   2
ATOM      2  C   LIG    1       -1.365   1.445  -0.770  0.00  0.00    +0.200 C 
BRANCH   2   5
ATOM      3  N   LIG    1        2.041   0.254  -0.280  0.00  0.00    -0.240 N 
ATOM      4  C   LIG    1        1.174   1.281  -0.498  0.00  0.00    +0.180 A 
ATOM      5  C   LIG    1       -0.060   0.725  -0.544  0.00  0.00    -0.010 A 
ATOM      6  N   LIG    1        0.107  -0.589  -0.357  0.00  0.00    -0.250 NA
ATOM      7  N   LIG    1        1.360  -0.836  -0.204  0.00  0.00    -0.060 NA
BRANCH   3  14
ATOM      8  C   LIG    1        3.315  -1.081   1.887  0.00  0.00    +0.100 C 
ATOM      9  C   LIG    1        4.094  -0.271   0.883  0.00  0.00    -0.050 A 
ATOM     10  C   LIG    1        5.466  -0.160   1.000  0.00  0.00    +0.030 A 
ATOM     11  C   LIG    1        6.181   0.584   0.079  0.00  0.00    +0.050 A 
ATOM     12  C   LIG    1        5.527   1.217  -0.961  0.00  0.00    +0.030 A 
ATOM     13  C   LIG    1        4.155   1.106  -1.085  0.00  0.00    +0.030 A 
ATOM     14  C   LIG    1        3.434   0.365  -0.159  0.00  0.00    +0.100 A 
ENDBRANCH   3  14
ENDBRANCH   2   5
ENDBRANCH   1   2
BRANCH   1  15
ATOM     15  C   LIG    1       -3.599   2.787   0.356  0.00  0.00    +0.070 C 
BRANCH  15  16
ATOM     16  C   LIG    1       -4.315   3.284   1.614  0.00  0.00    +0.300 C 
BRANCH  16  17
ATOM     17  N   LIG    1       -5.559   3.958   1.233  0.00  0.00    -0.730 N 
ATOM     18  H   LIG    1       -5.806   4.028   0.298  0.00  0.00    +0.400 HD
ATOM     19  C   LIG    1       -6.361   4.479   2.183  0.00  0.00    +0.510 C 
ATOM     20  O   LIG    1       -6.052   4.391   3.352  0.00  0.00    -0.520 OA
BRANCH  19  21
ATOM     21  C   LIG    1       -7.640   5.173   1.791  0.00  0.00    +0.120 C 
BRANCH  21  22
ATOM     22  C   LIG    1       -8.346   5.661   3.030  0.00  0.00    -0.040 A 
ATOM     23  C   LIG    1       -9.261   4.847   3.671  0.00  0.00    +0.010 A 
ATOM     24  C   LIG    1       -9.905   5.292   4.810  0.00  0.00    +0.040 A 
ATOM     25  C   LIG    1       -9.644   6.556   5.303  0.00  0.00    -0.010 A 
ATOM     26  C   LIG    1       -8.731   7.375   4.659  0.00  0.00    +0.100 A 
ATOM     27  F   LIG    1       -8.474   8.611   5.141  0.00  0.00    -0.140 F 
ATOM     28  C   LIG    1       -8.082   6.926   3.522  0.00  0.00    -0.010 A 
ENDBRANCH  21  22
ENDBRANCH  19  21
ENDBRANCH  16  17
ENDBRANCH  15  16
ENDBRANCH   1  15
TORSDOF 8
