REMARK  Name = ZINCqH0000001Rlx.0
REMARK                            x       y       z     vdW  Elec       q    Type
REMARK                         _______ _______ _______ _____ _____    ______ ____
ROOT
ATOM      1  C   LIG    1       -5.737  -2.204   2.162  0.00  0.00    +0.090 C 
ATOM      2  C   LIG    1       -4.745  -1.735   3.229  0.00  0.00    +0.040 C 
ATOM      3  C   LIG    1       -4.503  -0.231   3.069  0.00  0.00    +0.280 C 
ATOM      4  N   LIG    1       -4.076   0.035   1.689  0.00  0.00    -0.620 N 
ATOM      5  C   LIG    1       -4.915  -0.448   0.584  0.00  0.00    +0.270 C 
ATOM      6  C   LIG    1       -2.938   0.715   1.441  0.00  0.00    +0.520 C 
ATOM      7  O   LIG    1       -2.257   1.113   2.361  0.00  0.00    -0.530 OA
ATOM      8  C   LIG    1       -5.150  -1.955   0.772  0.00  0.00    +0.050 C 
ENDROOT
BRANCH   1  13
ATOM      9  N   LIG    1       -7.205  -4.251   2.592  0.00  0.00    -0.470 N 
ATOM     10  C   LIG    1       -6.974  -5.584   2.669  0.00  0.00    +0.360 A 
ATOM     11  N   LIG    1       -5.697  -5.768   2.476  0.00  0.00    -0.300 NA
ATOM     12  N   LIG    1       -5.120  -4.636   2.280  0.00  0.00    -0.290 NA
ATOM     13  C   LIG    1       -6.004  -3.677   2.338  0.00  0.00    +0.180 A 
BRANCH   9  15
ATOM     14  C   LIG    1       -9.470  -4.076   1.687  0.00  0.00    +0.060 C 
ATOM     15  C   LIG    1       -8.492  -3.569   2.748  0.00  0.00    +0.240 C 
ATOM     16  C   LIG    1       -9.056  -3.857   4.141  0.00  0.00    +0.050 C 
ENDBRANCH   9  15
ENDBRANCH   1  13
BRANCH   6  17
ATOM     17  C   LIG    1       -2.514   0.979   0.019  0.00  0.00    +0.120 C 
BRANCH  17  18
ATOM     18  C   LIG    1       -1.219   1.750   0.017  0.00  0.00    -0.070 A 
ATOM     19  C   LIG    1       -0.013   1.076   0.008  0.00  0.00    +0.050 A 
ATOM     20  C   LIG    1        1.175   1.783   0.000  0.00  0.00    +0.010 A 
ATOM     21  C   LIG    1        1.157   3.165   0.008  0.00  0.00    +0.050 A 
ATOM     22  C   LIG    1       -0.050   3.840   0.023  0.00  0.00    -0.170 A 
ATOM     23  C   LIG    1       -1.238   3.133   0.030  0.00  0.00    +0.070 A 
BRANCH  22  24
ATOM     24  C   LIG    1       -0.070   5.347   0.031  0.00  0.00    +0.430 C 
ATOM     25  F   LIG    1       -0.725   5.798   1.182  0.00  0.00    -0.200 F 
ATOM     26  F   LIG    1       -0.747   5.811  -1.102  0.00  0.00    -0.200 F 
ENDBRANCH  22  24
ENDBRANCH  17  18
ENDBRANCH   6  17
TORSDOF 5
