REMARK  Name = ZINCb80000002GOV.0
REMARK                            x       y       z     vdW  Elec       q    Type
REMARK                         _______ _______ _______ _____ _____    ______ ____
ROOT
ATOM      1  O   LIG    1        2.487   5.920   1.221  0.00  0.00    -0.510 OA
ATOM      2  C   LIG    1        2.181   4.747   1.237  0.00  0.00    +0.520 C 
ATOM      3  C   LIG    1        0.850   4.060   1.370  0.00  0.00    +0.080 C 
ATOM      4  C   LIG    1        1.714   2.803   1.258  0.00  0.00    +0.240 C 
ATOM      5  N   LIG    1        2.918   3.625   1.141  0.00  0.00    -0.740 N 
ATOM      6  H   LIG    1        3.864   3.438   1.035  0.00  0.00    +0.420 HD
ENDROOT
BRANCH   4   7
ATOM      7  C   LIG    1        1.421   1.985  -0.001  0.00  0.00    -0.050 C 
ATOM      8  C   LIG    1        2.304   0.720  -0.025  0.00  0.00    +0.040 C 
ATOM      9  C   LIG    1        1.374  -0.368  -0.618  0.00  0.00    +0.040 C 
ATOM     10  C   LIG    1        0.002  -0.004   0.002  0.00  0.00    +0.030 C 
ATOM     11  C   LIG    1       -0.018   1.514   0.010  0.00  0.00    +0.380 C 
ATOM     12  O   LIG    1       -1.001   2.216   0.019  0.00  0.00    -0.430 OA
ENDBRANCH   4   7
TORSDOF 1
