REMARK  Name = ZINCqH0000000rf3.0
REMARK                            x       y       z     vdW  Elec       q    Type
REMARK                         _______ _______ _______ _____ _____    ______ ____
ROOT
ATOM      1  C   LIG    1       -2.505   1.327   2.587  0.00  0.00    +0.510 C 
ATOM      2  N   LIG    1       -2.544   0.848   3.846  0.00  0.00    -0.610 N 
ATOM      3  C   LIG    1       -2.618  -0.599   4.095  0.00  0.00    +0.260 C 
ATOM      4  C   LIG    1       -1.474  -0.990   5.043  0.00  0.00    +0.020 C 
ATOM      5  C   LIG    1       -1.550  -0.130   6.307  0.00  0.00    -0.010 C 
ATOM      6  C   LIG    1       -1.382   1.344   5.934  0.00  0.00    +0.020 C 
ATOM      7  C   LIG    1       -2.519   1.762   4.996  0.00  0.00    +0.270 C 
ATOM      8  O   LIG    1       -2.449   2.523   2.394  0.00  0.00    -0.530 OA
ENDROOT
BRANCH   1   9
ATOM      9  C   LIG    1       -2.530   0.376   1.418  0.00  0.00    +0.060 C 
BRANCH   9  10
ATOM     10  C   LIG    1       -2.477   1.171   0.112  0.00  0.00    +0.350 C 
BRANCH  10  13
ATOM     11  C   LIG    1        0.192   3.797  -0.679  0.00  0.00    +0.100 C 
ATOM     12  C   LIG    1       -1.097   3.016  -0.682  0.00  0.00    +0.520 C 
ATOM     13  N   LIG    1       -1.191   1.868   0.017  0.00  0.00    -0.720 N 
ATOM     14  H   LIG    1       -0.408   1.502   0.458  0.00  0.00    +0.400 HD
ATOM     15  O   LIG    1       -2.051   3.423  -1.311  0.00  0.00    -0.540 OA
ENDBRANCH  10  13
BRANCH  10  16
ATOM     16  C   LIG    1       -2.626   0.231  -1.056  0.00  0.00    -0.190 A 
ATOM     17  C   LIG    1       -3.728   0.090  -1.794  0.00  0.00    +0.020 A 
ATOM     18  C   LIG    1       -3.629  -0.835  -2.819  0.00  0.00    +0.010 A 
ATOM     19  C   LIG    1       -2.450  -1.452  -2.908  0.00  0.00    -0.050 A 
ATOM     20  S   LIG    1       -1.376  -0.856  -1.649  0.00  0.00    +0.100 S 
ENDBRANCH  10  16
ENDBRANCH   9  10
ENDBRANCH   1   9
BRANCH   5  21
ATOM     21  C   LIG    1       -0.436  -0.542   7.272  0.00  0.00    +0.060 C 
BRANCH  21  22
ATOM     22  C   LIG    1       -0.670  -1.957   7.735  0.00  0.00    -0.080 A 
ATOM     23  C   LIG    1       -1.419  -2.197   8.872  0.00  0.00    +0.000 A 
ATOM     24  C   LIG    1       -1.638  -3.495   9.294  0.00  0.00    +0.000 A 
ATOM     25  C   LIG    1       -1.099  -4.552   8.586  0.00  0.00    +0.000 A 
ATOM     26  C   LIG    1       -0.346  -4.312   7.452  0.00  0.00    +0.000 A 
ATOM     27  C   LIG    1       -0.132  -3.014   7.027  0.00  0.00    +0.000 A 
ENDBRANCH  21  22
ENDBRANCH   5  21
TORSDOF 6
