REMARK  Name = ZINCpe000000X8yO.0
REMARK                            x       y       z     vdW  Elec       q    Type
REMARK                         _______ _______ _______ _____ _____    ______ ____
ROOT
ATOM      1  C   LIG    1        1.602   3.801   1.448  0.00  0.00    +0.210 C 
ENDROOT
BRANCH   1   2
ATOM      2  O   LIG    1        0.373   3.552   2.133  0.00  0.00    -0.540 OA
ATOM      3  H   LIG    1       -0.393   3.992   1.739  0.00  0.00    +0.380 HD
ENDBRANCH   1   2
BRANCH   1   4
ATOM      4  C   LIG    1        1.491   3.307   0.005  0.00  0.00    +0.310 C 
BRANCH   4  10
ATOM      5  C   LIG    1        1.762  -1.218   1.237  0.00  0.00    +0.090 C 
ATOM      6  C   LIG    1        1.419  -0.406  -0.014  0.00  0.00    +0.150 C 
ATOM      7  N   LIG    1        0.002  -0.004   0.002  0.00  0.00    -0.720 N 
ATOM      8  H   LIG    1       -0.768  -0.594   0.006  0.00  0.00    +0.440 HD
ATOM      9  C   LIG    1       -0.016   1.341   0.009  0.00  0.00    +0.710 C 
ATOM     10  N   LIG    1        1.213   1.869   0.001  0.00  0.00    -0.570 N 
ATOM     11  O   LIG    1       -1.036   2.003   0.018  0.00  0.00    -0.540 OA
ATOM     12  C   LIG    1        2.164   0.914  -0.014  0.00  0.00    +0.540 C 
ATOM     13  O   LIG    1        3.365   1.077  -0.024  0.00  0.00    -0.460 OA
BRANCH   6  14
ATOM     14  C   LIG    1        1.737  -1.208  -1.278  0.00  0.00    -0.030 C 
ATOM     15  C   LIG    1        0.647  -1.304  -2.346  0.00  0.00    +0.030 C 
ATOM     16  C   LIG    1        0.987  -2.524  -1.487  0.00  0.00    +0.040 C 
ENDBRANCH   6  14
ENDBRANCH   4  10
ENDBRANCH   1   4
BRANCH   1  17
ATOM     17  C   LIG    1        1.892   5.303   1.453  0.00  0.00    +0.180 C 
BRANCH  17  18
ATOM     18  O   LIG    1        2.111   5.742   2.795  0.00  0.00    -0.300 OA
BRANCH  18  19
ATOM     19  C   LIG    1        2.384   7.062   2.976  0.00  0.00    +0.140 A 
ATOM     20  C   LIG    1        2.445   7.913   1.883  0.00  0.00    -0.060 A 
ATOM     21  C   LIG    1        2.718   9.257   2.065  0.00  0.00    +0.080 A 
ATOM     22  C   LIG    1        2.941   9.754   3.339  0.00  0.00    -0.010 A 
ATOM     23  O   LIG    1        3.228  11.014   3.780  0.00  0.00    -0.310 OA
ATOM     24  C   LIG    1        3.750  10.845   5.112  0.00  0.00    +0.430 C 
ATOM     25  O   LIG    1        3.137   9.624   5.567  0.00  0.00    -0.300 OA
ATOM     26  C   LIG    1        2.885   8.899   4.438  0.00  0.00    +0.080 A 
ATOM     27  C   LIG    1        2.607   7.555   4.253  0.00  0.00    +0.020 A 
ENDBRANCH  18  19
ENDBRANCH  17  18
ENDBRANCH   1  17
TORSDOF 7
