REMARK  Name = ZINCvU0000000GrU.0
REMARK                            x       y       z     vdW  Elec       q    Type
REMARK                         _______ _______ _______ _____ _____    ______ ____
ROOT
ATOM      1  C   LIG    1        2.490   1.045  -0.016  0.00  0.00    +0.200 C 
ATOM      2  C   LIG    1        3.288   1.410   1.217  0.00  0.00    -0.280 C 
ATOM      3  C   LIG    1        4.369   2.218   1.168  0.00  0.00    +0.240 C 
ATOM      4  N   LIG    1        4.820   2.771  -0.004  0.00  0.00    -0.630 N 
ATOM      5  H   LIG    1        5.449   3.509   0.005  0.00  0.00    +0.420 HD
ATOM      6  C   LIG    1        4.356   2.248  -1.204  0.00  0.00    +0.320 A 
ATOM      7  N   LIG    1        4.810   2.393  -2.466  0.00  0.00    -0.330 N 
ATOM      8  N   LIG    1        3.977   1.637  -3.307  0.00  0.00    -0.280 NA
ATOM      9  C   LIG    1        3.054   1.062  -2.572  0.00  0.00    +0.120 A 
ATOM     10  C   LIG    1        1.957   0.162  -3.079  0.00  0.00    +0.160 C 
ATOM     11  C   LIG    1        5.148   2.546   2.422  0.00  0.00    +0.100 C 
ATOM     12  C   LIG    1        4.208   2.547   3.629  0.00  0.00    -0.050 C 
ATOM     13  C   LIG    1        3.554   1.165   3.730  0.00  0.00    +0.040 C 
ATOM     14  C   LIG    1        5.005   2.836   4.902  0.00  0.00    +0.040 C 
ATOM     15  C   LIG    1        3.129   3.615   3.442  0.00  0.00    +0.030 C 
ATOM     16  C   LIG    1        2.849   0.865   2.437  0.00  0.00    +0.410 C 
ATOM     17  O   LIG    1        1.877   0.136   2.446  0.00  0.00    -0.470 OA
ATOM     18  C   LIG    1        3.261   1.425  -1.248  0.00  0.00    -0.250 A 
ENDROOT
BRANCH   1  22
ATOM     19  C   LIG    1       -1.237   3.137   0.031  0.00  0.00    +0.120 A 
ATOM     20  C   LIG    1       -1.218   1.750   0.017  0.00  0.00    -0.080 A 
ATOM     21  C   LIG    1       -0.013   1.076   0.008  0.00  0.00    +0.070 A 
ATOM     22  C   LIG    1        1.176   1.783   0.000  0.00  0.00    -0.100 A 
ATOM     23  C   LIG    1        1.160   3.165   0.007  0.00  0.00    +0.040 A 
ATOM     24  C   LIG    1       -0.043   3.844   0.023  0.00  0.00    -0.030 A 
BRANCH  19  26
ATOM     25  C   LIG    1       -3.611   3.009   0.053  0.00  0.00    +0.250 C 
ATOM     26  O   LIG    1       -2.422   3.802   0.045  0.00  0.00    -0.320 OA
ENDBRANCH  19  26
ENDBRANCH   1  22
BRANCH   7  27
ATOM     27  C   LIG    1        5.913   3.159  -2.865  0.00  0.00    +0.160 A 
ATOM     28  C   LIG    1        6.203   4.352  -2.217  0.00  0.00    -0.030 A 
ATOM     29  C   LIG    1        7.295   5.102  -2.609  0.00  0.00    +0.050 A 
ATOM     30  C   LIG    1        8.092   4.672  -3.653  0.00  0.00    +0.010 A 
ATOM     31  C   LIG    1        7.803   3.487  -4.305  0.00  0.00    +0.050 A 
ATOM     32  C   LIG    1        6.716   2.730  -3.914  0.00  0.00    +0.030 A 
ENDBRANCH   7  27
TORSDOF 3
