REMARK  Name = ZINCqH0000001th3.0
REMARK                            x       y       z     vdW  Elec       q    Type
REMARK                         _______ _______ _______ _____ _____    ______ ____
ROOT
ATOM      1  N   LIG    1       -2.895   0.257   4.871  0.00  0.00    -0.720 N 
ATOM      2  H   LIG    1       -2.956   1.175   4.562  0.00  0.00    +0.400 HD
ATOM      3  C   LIG    1       -3.983  -0.359   5.374  0.00  0.00    +0.560 C 
ATOM      4  O   LIG    1       -3.907  -1.509   5.760  0.00  0.00    -0.510 OA
ENDROOT
BRANCH   1   8
ATOM      5  C   LIG    1       -0.556   0.670   2.305  0.00  0.00    +0.150 C 
ATOM      6  C   LIG    1       -1.708  -0.337   2.297  0.00  0.00    -0.010 C 
ATOM      7  C   LIG    1       -1.574  -1.276   3.497  0.00  0.00    +0.010 C 
ATOM      8  C   LIG    1       -1.619  -0.459   4.791  0.00  0.00    +0.240 C 
ATOM      9  C   LIG    1       -0.468   0.548   4.799  0.00  0.00    +0.030 C 
ATOM     10  C   LIG    1       -0.602   1.486   3.598  0.00  0.00    +0.020 C 
BRANCH   5  11
ATOM     11  O   LIG    1       -0.682   1.547   1.184  0.00  0.00    -0.380 OA
BRANCH  11  13
ATOM     12  C   LIG    1        1.423   1.615  -0.003  0.00  0.00    +0.000 C 
ATOM     13  C   LIG    1       -0.013   1.086   0.008  0.00  0.00    +0.140 C 
ATOM     14  C   LIG    1       -0.753   1.593  -1.232  0.00  0.00    +0.040 C 
ENDBRANCH  11  13
ENDBRANCH   5  11
ENDBRANCH   1   8
BRANCH   3  15
ATOM     15  C   LIG    1       -5.268   0.362   5.455  0.00  0.00    -0.170 A 
ATOM     16  C   LIG    1       -5.360   1.684   5.011  0.00  0.00    +0.080 A 
ATOM     17  C   LIG    1       -6.563   2.352   5.090  0.00  0.00    -0.040 A 
ATOM     18  C   LIG    1       -7.682   1.719   5.606  0.00  0.00    +0.080 A 
ATOM     19  C   LIG    1       -7.604   0.413   6.048  0.00  0.00    -0.090 A 
ATOM     20  C   LIG    1       -6.404  -0.276   5.971  0.00  0.00    +0.190 A 
BRANCH  20  21
ATOM     21  O   LIG    1       -6.327  -1.561   6.400  0.00  0.00    -0.270 OA
BRANCH  21  22
ATOM     22  C   LIG    1       -7.525  -2.146   6.914  0.00  0.00    +0.200 C 
BRANCH  22  23
ATOM     23  C   LIG    1       -7.245  -3.587   7.345  0.00  0.00    +0.160 C 
ATOM     24  C   LIG    1       -8.497  -4.186   8.015  0.00  0.00    +0.010 C 
ATOM     25  C   LIG    1       -8.832  -5.428   7.153  0.00  0.00    +0.000 C 
ATOM     26  C   LIG    1       -7.478  -5.712   6.453  0.00  0.00    +0.190 C 
ATOM     27  O   LIG    1       -6.951  -4.393   6.191  0.00  0.00    -0.360 OA
ENDBRANCH  22  23
ENDBRANCH  21  22
ENDBRANCH  20  21
ENDBRANCH   3  15
TORSDOF 7
