REMARK  Name = ZINCpe000027pHbN.0
REMARK                            x       y       z     vdW  Elec       q    Type
REMARK                         _______ _______ _______ _____ _____    ______ ____
ROOT
ATOM      1  C   LIG    1       -6.178   2.898   3.491  0.00  0.00    +0.570 C 
ATOM      2  N   LIG    1       -6.805   3.235   4.636  0.00  0.00    -0.610 N 
ATOM      3  C   LIG    1       -6.148   3.506   5.927  0.00  0.00    +0.260 C 
ATOM      4  C   LIG    1       -7.238   3.228   6.992  0.00  0.00    +0.040 C 
ATOM      5  C   LIG    1       -8.511   3.757   6.280  0.00  0.00    +0.050 C 
ATOM      6  C   LIG    1       -8.256   3.400   4.801  0.00  0.00    +0.270 C 
ATOM      7  O   LIG    1       -6.824   2.697   2.479  0.00  0.00    -0.540 OA
ENDROOT
BRANCH   6   8
ATOM      8  C   LIG    1       -8.751   4.510   3.910  0.00  0.00    -0.040 A 
ATOM      9  C   LIG    1       -8.002   5.662   3.730  0.00  0.00    -0.030 A 
ATOM     10  C   LIG    1       -8.486   6.657   2.902  0.00  0.00    +0.250 A 
ATOM     11  N   LIG    1       -9.649   6.524   2.295  0.00  0.00    -0.490 NA
ATOM     12  C   LIG    1      -10.390   5.444   2.447  0.00  0.00    +0.260 A 
ATOM     13  C   LIG    1       -9.969   4.405   3.256  0.00  0.00    -0.030 A 
ENDBRANCH   6   8
BRANCH   1  15
ATOM     14  C   LIG    1       -4.137   2.440   2.316  0.00  0.00    +0.150 C 
ATOM     15  C   LIG    1       -4.767   2.778   3.465  0.00  0.00    -0.070 C 
BRANCH  14  19
ATOM     16  C   LIG    1       -0.018   1.051   0.019  0.00  0.00    +0.350 C 
ATOM     17  N   LIG    1       -0.701   1.541   1.219  0.00  0.00    -0.530 N 
ATOM     18  C   LIG    1       -2.044   1.750   1.180  0.00  0.00    +0.390 A 
ATOM     19  C   LIG    1       -2.690   2.208   2.314  0.00  0.00    -0.250 A 
ATOM     20  C   LIG    1       -1.880   2.459   3.519  0.00  0.00    +0.560 A 
ATOM     21  N   LIG    1       -0.552   2.228   3.462  0.00  0.00    -0.550 N 
ATOM     22  C   LIG    1        0.280   2.469   4.644  0.00  0.00    +0.350 C 
ATOM     23  O   LIG    1       -2.397   2.866   4.542  0.00  0.00    -0.500 OA
ATOM     24  C   LIG    1        0.014   1.778   2.329  0.00  0.00    +0.690 A 
ATOM     25  O   LIG    1        1.213   1.579   2.310  0.00  0.00    -0.530 OA
ENDBRANCH  14  19
ENDBRANCH   1  15
TORSDOF 3
