REMARK  Name = ZINCpk00001AZj7A.0
REMARK                            x       y       z     vdW  Elec       q    Type
REMARK                         _______ _______ _______ _____ _____    ______ ____
ROOT
ATOM      1  C   LIG    1       -2.050   1.736   1.238  0.00  0.00    +0.040 C 
ATOM      2  C   LIG    1       -2.227   1.176  -0.188  0.00  0.00    +0.060 C 
ATOM      3  C   LIG    1       -0.791   1.227  -0.807  0.00  0.00    +0.040 C 
ATOM      4  C   LIG    1        0.093   0.832   0.399  0.00  0.00    +0.010 C 
ATOM      5  C   LIG    1        1.468   1.499   0.270  0.00  0.00    +0.250 C 
ATOM      6  N   LIG    1        1.456   2.725   1.073  0.00  0.00    -0.610 N 
ATOM      7  C   LIG    1        0.131   2.898   1.679  0.00  0.00    +0.260 C 
ATOM      8  C   LIG    1        2.500   3.563   1.232  0.00  0.00    +0.580 C 
ATOM      9  O   LIG    1        2.358   4.601   1.850  0.00  0.00    -0.520 OA
ATOM     10  C   LIG    1       -0.572   1.528   1.617  0.00  0.00    +0.030 C 
ENDROOT
BRANCH   8  11
ATOM     11  C   LIG    1        3.815   3.221   0.655  0.00  0.00    -0.110 A 
ATOM     12  C   LIG    1        3.894   2.685  -0.626  0.00  0.00    +0.090 A 
ATOM     13  C   LIG    1        5.141   2.367  -1.171  0.00  0.00    -0.190 A 
ATOM     14  C   LIG    1        6.306   2.581  -0.416  0.00  0.00    +0.150 A 
ATOM     15  C   LIG    1        6.215   3.113   0.869  0.00  0.00    +0.090 A 
ATOM     16  C   LIG    1        4.982   3.431   1.401  0.00  0.00    +0.040 A 
BRANCH  15  17
ATOM     17  O   LIG    1        7.343   3.320   1.599  0.00  0.00    -0.300 OA
ATOM     18  C   LIG    1        7.177   3.869   2.908  0.00  0.00    +0.250 C 
ENDBRANCH  15  17
BRANCH  14  19
ATOM     19  O   LIG    1        7.518   2.269  -0.937  0.00  0.00    -0.480 OA
ATOM     20  H   LIG    1        7.803   1.363  -0.755  0.00  0.00    +0.400 HD
ENDBRANCH  14  19
BRANCH  13  21
ATOM     21  C   LIG    1        5.231   1.806  -2.525  0.00  0.00    +0.510 C 
ATOM     22  O   LIG    1        4.224   1.623  -3.175  0.00  0.00    -0.450 OA
ENDBRANCH  13  21
ENDBRANCH   8  11
BRANCH   1  23
ATOM     23  C   LIG    1       -2.938   0.990   2.199  0.00  0.00    +0.470 C 
ATOM     24  O   LIG    1       -2.451   0.351   3.102  0.00  0.00    -0.500 OA
BRANCH  23  26
ATOM     25  C   LIG    1       -5.066   0.291   3.016  0.00  0.00    +0.250 C 
ATOM     26  O   LIG    1       -4.272   1.034   2.053  0.00  0.00    -0.360 OA
ENDBRANCH  23  26
ENDBRANCH   1  23
TORSDOF 6
