REMARK  Name = ZINCpe000000XBpI.0
REMARK                            x       y       z     vdW  Elec       q    Type
REMARK                         _______ _______ _______ _____ _____    ______ ____
ROOT
ATOM      1  C   LIG    1       -2.209   1.800   0.655  0.00  0.00    +0.350 C 
ATOM      2  C   LIG    1       -0.787   1.610   1.239  0.00  0.00    +0.020 C 
ATOM      3  C   LIG    1       -0.013   1.086   0.008  0.00  0.00    +0.070 C 
ATOM      4  C   LIG    1       -0.793   1.611  -1.176  0.00  0.00    +0.520 C 
ATOM      5  O   LIG    1       -0.377   1.667  -2.314  0.00  0.00    -0.520 OA
ATOM      6  N   LIG    1       -2.016   2.009  -0.784  0.00  0.00    -0.610 N 
ATOM      7  C   LIG    1       -3.027   2.578  -1.679  0.00  0.00    +0.310 C 
ENDROOT
BRANCH   1  10
ATOM      8  C   LIG    1       -3.697   1.875   3.406  0.00  0.00    +0.160 C 
ATOM      9  C   LIG    1       -3.515   3.036   2.463  0.00  0.00    +0.120 A 
ATOM     10  C   LIG    1       -2.871   3.004   1.273  0.00  0.00    -0.270 A 
ATOM     11  C   LIG    1       -2.934   4.285   0.715  0.00  0.00    +0.240 A 
ATOM     12  N   LIG    1       -3.587   5.060   1.543  0.00  0.00    -0.300 NA
ATOM     13  N   LIG    1       -3.961   4.295   2.655  0.00  0.00    -0.370 N 
ATOM     14  C   LIG    1       -4.710   4.775   3.819  0.00  0.00    +0.360 C 
ENDBRANCH   1  10
BRANCH   2  15
ATOM     15  C   LIG    1       -0.789   0.590   2.349  0.00  0.00    +0.530 C 
ATOM     16  N   LIG    1        0.374   0.191   2.900  0.00  0.00    -0.630 N 
ATOM     17  H   LIG    1        1.213   0.561   2.582  0.00  0.00    +0.420 HD
ATOM     18  O   LIG    1       -1.838   0.129   2.747  0.00  0.00    -0.450 OA
BRANCH  16  19
ATOM     19  C   LIG    1        0.372  -0.749   3.924  0.00  0.00    +0.400 A 
ATOM     20  N   LIG    1       -0.681  -1.323   4.452  0.00  0.00    -0.270 NA
ATOM     21  N   LIG    1       -0.315  -2.143   5.372  0.00  0.00    -0.280 NA
ATOM     22  C   LIG    1        0.983  -2.131   5.490  0.00  0.00    +0.370 A 
ATOM     23  N   LIG    1        1.466  -1.244   4.572  0.00  0.00    -0.470 N 
BRANCH  23  24
ATOM     24  C   LIG    1        2.869  -0.894   4.333  0.00  0.00    +0.180 C 
ATOM     25  C   LIG    1        3.936  -1.728   5.045  0.00  0.00    +0.070 C 
ATOM     26  C   LIG    1        3.656  -0.294   5.499  0.00  0.00    +0.060 C 
ENDBRANCH  23  24
ENDBRANCH  16  19
ENDBRANCH   2  15
TORSDOF 4
