REMARK  Name = ZINCqH0000000oBK.0
REMARK                            x       y       z     vdW  Elec       q    Type
REMARK                         _______ _______ _______ _____ _____    ______ ____
ROOT
ATOM      1  C   LIG    1        0.009   1.474  -0.054  0.00  0.00    +0.280 C 
ATOM      2  C   LIG    1       -0.721   1.956   1.202  0.00  0.00    +0.040 C 
ENDROOT
BRANCH   1   3
ATOM      3  C   LIG    1        0.039  -0.033  -0.070  0.00  0.00    -0.090 A 
ATOM      4  C   LIG    1        0.976  -0.711   0.688  0.00  0.00    +0.010 A 
ATOM      5  C   LIG    1        1.004  -2.091   0.681  0.00  0.00    +0.020 A 
ATOM      6  C   LIG    1        0.094  -2.800  -0.101  0.00  0.00    -0.040 A 
ATOM      7  C   LIG    1       -0.844  -2.111  -0.867  0.00  0.00    +0.020 A 
ATOM      8  C   LIG    1       -0.867  -0.731  -0.848  0.00  0.00    +0.030 A 
BRANCH   6   9
ATOM      9  C   LIG    1        0.124  -4.284  -0.117  0.00  0.00    -0.050 A 
ATOM     10  C   LIG    1       -0.789  -4.993  -0.895  0.00  0.00    +0.020 A 
ATOM     11  C   LIG    1       -0.754  -6.372  -0.910  0.00  0.00    +0.010 A 
ATOM     12  C   LIG    1        0.180  -7.051  -0.148  0.00  0.00    +0.000 A 
ATOM     13  C   LIG    1        1.085  -6.353   0.630  0.00  0.00    +0.010 A 
ATOM     14  C   LIG    1        1.062  -4.973   0.649  0.00  0.00    +0.020 A 
ENDBRANCH   6   9
ENDBRANCH   1   3
BRANCH   1  16
ATOM     15  C   LIG    1        1.638   3.222  -0.530  0.00  0.00    +0.520 C 
ATOM     16  N   LIG    1        1.380   1.990  -0.050  0.00  0.00    -0.730 N 
ATOM     17  H   LIG    1        2.103   1.444   0.299  0.00  0.00    +0.400 HD
ATOM     18  O   LIG    1        0.735   3.905  -0.966  0.00  0.00    -0.530 OA
BRANCH  15  25
ATOM     19  C   LIG    1        5.763   2.533   2.226  0.00  0.00    +0.100 C 
ATOM     20  C   LIG    1        5.953   3.828   1.479  0.00  0.00    +0.510 C 
ATOM     21  N   LIG    1        4.895   4.442   0.914  0.00  0.00    -0.610 N 
ATOM     22  C   LIG    1        5.042   5.762   0.286  0.00  0.00    +0.280 C 
ATOM     23  C   LIG    1        4.503   5.689  -1.146  0.00  0.00    +0.020 C 
ATOM     24  C   LIG    1        3.066   5.163  -1.120  0.00  0.00    +0.050 C 
ATOM     25  C   LIG    1        3.049   3.753  -0.525  0.00  0.00    -0.020 C 
ATOM     26  C   LIG    1        3.572   3.803   0.914  0.00  0.00    +0.290 C 
ATOM     27  O   LIG    1        7.059   4.318   1.387  0.00  0.00    -0.540 OA
ENDBRANCH  15  25
ENDBRANCH   1  16
TORSDOF 4
