REMARK  Name = ZINCtV00000L6jv2.0
REMARK                            x       y       z     vdW  Elec       q    Type
REMARK                         _______ _______ _______ _____ _____    ______ ____
ROOT
ATOM      1  C   LIG    1        4.708   0.945  -0.649  0.00  0.00    +0.180 C 
ATOM      2  C   LIG    1        3.495   1.773  -0.311  0.00  0.00    +0.160 A 
ATOM      3  C   LIG    1        3.609   3.126  -0.333  0.00  0.00    -0.250 A 
ATOM      4  C   LIG    1        2.412   3.930  -0.021  0.00  0.00    +0.440 A 
ATOM      5  C   LIG    1        1.133   3.194   0.002  0.00  0.00    -0.250 A 
ATOM      6  C   LIG    1       -0.090   3.862   0.021  0.00  0.00    +0.160 A 
ATOM      7  C   LIG    1       -1.254   3.146   0.031  0.00  0.00    -0.090 A 
ATOM      8  C   LIG    1       -1.220   1.753   0.017  0.00  0.00    +0.190 A 
ATOM      9  C   LIG    1       -0.013   1.076   0.008  0.00  0.00    -0.010 A 
ATOM     10  C   LIG    1        1.180   1.788   0.000  0.00  0.00    +0.180 A 
ATOM     11  O   LIG    1        2.474   5.127   0.203  0.00  0.00    -0.450 OA
ATOM     12  O   LIG    1        2.361   1.143  -0.004  0.00  0.00    -0.210 OA
ENDROOT
BRANCH   3  13
ATOM     13  C   LIG    1        4.901   3.778  -0.661  0.00  0.00    -0.010 A 
ATOM     14  C   LIG    1        5.356   3.805  -1.978  0.00  0.00    +0.030 A 
ATOM     15  C   LIG    1        6.555   4.418  -2.278  0.00  0.00    +0.020 A 
ATOM     16  C   LIG    1        7.312   4.994  -1.274  0.00  0.00    +0.030 A 
ATOM     17  C   LIG    1        6.869   4.965   0.037  0.00  0.00    +0.030 A 
ATOM     18  C   LIG    1        5.668   4.360   0.348  0.00  0.00    -0.010 A 
ATOM     19 CL   LIG    1        5.113   4.324   1.993  0.00  0.00    -0.060 Cl
ENDBRANCH   3  13
BRANCH   8  20
ATOM     20  O   LIG    1       -2.383   1.053   0.018  0.00  0.00    -0.280 OA
BRANCH  20  21
ATOM     21  C   LIG    1       -3.595   1.810   0.028  0.00  0.00    +0.230 C 
BRANCH  21  22
ATOM     22  C   LIG    1       -4.774   0.870   0.028  0.00  0.00    +0.430 C 
ATOM     23  O   LIG    1       -4.593  -0.331   0.020  0.00  0.00    -0.410 OA
BRANCH  22  24
ATOM     24  C   LIG    1       -6.087   1.385   0.037  0.00  0.00    -0.310 A 
ATOM     25  C   LIG    1       -7.237   0.636   0.032  0.00  0.00    +0.150 A 
ATOM     26  C   LIG    1       -8.378   1.395   0.046  0.00  0.00    +0.020 A 
ATOM     27  C   LIG    1       -8.179   2.723   0.053  0.00  0.00    -0.150 A 
ATOM     28 CL   LIG    1       -9.448   3.907   0.065  0.00  0.00    +0.010 Cl
ATOM     29  S   LIG    1       -6.513   3.091   0.048  0.00  0.00    +0.270 S 
ENDBRANCH  22  24
ENDBRANCH  21  22
ENDBRANCH  20  21
ENDBRANCH   8  20
TORSDOF 5
