REMARK  Name = ZINCpe00000MGKz8.0
REMARK                            x       y       z     vdW  Elec       q    Type
REMARK                         _______ _______ _______ _____ _____    ______ ____
ROOT
ATOM      1  N   LIG    1        2.142   0.824  -5.880  0.00  0.00    -1.100 NA
ATOM      2  H   LIG    1        2.039   0.366  -6.729  0.00  0.00    +0.420 HD
ENDROOT
BRANCH   1   9
ATOM      3  C   LIG    1       -1.508   0.236  -3.884  0.00  0.00    +0.220 A 
ATOM      4  N   LIG    1       -2.196   1.083  -4.608  0.00  0.00    -0.310 NA
ATOM      5  N   LIG    1       -1.267   1.839  -5.327  0.00  0.00    -0.370 N 
ATOM      6  C   LIG    1       -1.520   2.921  -6.279  0.00  0.00    +0.310 C 
ATOM      7  C   LIG    1       -0.224   3.716  -6.479  0.00  0.00    +0.040 C 
ATOM      8  C   LIG    1        0.925   2.751  -6.787  0.00  0.00    +0.050 C 
ATOM      9  C   LIG    1        1.247   1.931  -5.531  0.00  0.00    +0.370 C 
ATOM     10  C   LIG    1       -0.048   1.384  -4.980  0.00  0.00    +0.250 A 
ATOM     11  N   LIG    1       -0.207   0.424  -4.113  0.00  0.00    -0.500 NA
BRANCH   3  13
ATOM     12  C   LIG    1       -2.225  -2.128  -3.666  0.00  0.00    +0.040 C 
ATOM     13  C   LIG    1       -2.091  -0.786  -2.942  0.00  0.00    +0.150 C 
ENDBRANCH   3  13
ENDBRANCH   1   9
BRANCH   1  14
ATOM     14  S   LIG    1        3.329   0.355  -4.825  0.00  0.00    +2.720 S 
ATOM     15  O   LIG    1        2.705   0.213  -3.556  0.00  0.00    -0.920 OA
ATOM     16  O   LIG    1        4.040  -0.697  -5.463  0.00  0.00    -0.960 OA
BRANCH  14  17
ATOM     17  C   LIG    1        4.457   1.700  -4.677  0.00  0.00    -0.820 A 
ATOM     18  C   LIG    1        5.488   1.970  -5.511  0.00  0.00    +0.380 A 
ATOM     19  N   LIG    1        6.109   3.077  -5.053  0.00  0.00    -0.350 N 
ATOM     20  N   LIG    1        5.431   3.508  -3.905  0.00  0.00    -0.290 NA
ATOM     21  C   LIG    1        4.441   2.682  -3.681  0.00  0.00    +0.330 A 
BRANCH  19  22
ATOM     22  C   LIG    1        7.280   3.719  -5.653  0.00  0.00    +0.250 C 
ATOM     23  C   LIG    1        6.861   4.684  -6.789  0.00  0.00    +0.020 C 
ATOM     24  C   LIG    1        7.046   3.856  -8.076  0.00  0.00    +0.200 C 
ATOM     25  O   LIG    1        7.476   2.543  -7.680  0.00  0.00    -0.370 OA
ATOM     26  C   LIG    1        8.150   2.684  -6.411  0.00  0.00    +0.250 C 
ENDBRANCH  19  22
ENDBRANCH  14  17
ENDBRANCH   1  14
TORSDOF 5
