REMARK  Name = ZINCpk00000eaS5Z.0
REMARK                            x       y       z     vdW  Elec       q    Type
REMARK                         _______ _______ _______ _____ _____    ______ ____
ROOT
ATOM      1  N   LIG    1       -4.119   7.521   4.902  0.00  0.00    -0.470 N 
ATOM      2  C   LIG    1       -3.270   8.508   4.219  0.00  0.00    +0.240 C 
ATOM      3  C   LIG    1       -3.091   8.096   2.756  0.00  0.00    +0.210 C 
ATOM      4  N   LIG    1       -2.489   6.756   2.697  0.00  0.00    -0.540 NA
ATOM      5  C   LIG    1       -3.337   5.770   3.380  0.00  0.00    +0.200 C 
ATOM      6  C   LIG    1       -3.517   6.182   4.843  0.00  0.00    +0.230 C 
ENDROOT
BRANCH   1  13
ATOM      7  C   LIG    1       -6.682   6.624  10.480  0.00  0.00    +0.170 C 
ATOM      8  C   LIG    1       -6.176   6.613   9.061  0.00  0.00    +0.050 A 
ATOM      9  C   LIG    1       -5.380   7.567   8.468  0.00  0.00    +0.030 A 
ATOM     10  N   LIG    1       -4.795   8.732   8.815  0.00  0.00    -0.490 NA
ATOM     11  C   LIG    1       -4.075   9.400   7.952  0.00  0.00    +0.510 A 
ATOM     12  N   LIG    1       -3.857   9.018   6.703  0.00  0.00    -0.560 NA
ATOM     13  C   LIG    1       -4.361   7.897   6.206  0.00  0.00    +0.450 A 
ATOM     14  C   LIG    1       -5.188   7.077   7.089  0.00  0.00    -0.040 A 
ATOM     15  N   LIG    1       -5.844   5.942   7.012  0.00  0.00    -0.250 NA
ATOM     16  N   LIG    1       -6.415   5.670   8.132  0.00  0.00    -0.340 N 
ATOM     17  H   LIG    1       -6.955   4.879   8.288  0.00  0.00    +0.450 HD
ENDBRANCH   1  13
BRANCH   4  18
ATOM     18  C   LIG    1       -2.231   6.356   1.307  0.00  0.00    +0.360 C 
BRANCH  18  19
ATOM     19  C   LIG    1       -1.398   5.100   1.293  0.00  0.00    +0.190 A 
ATOM     20  N   LIG    1       -1.844   3.867   1.290  0.00  0.00    -0.480 NA
ATOM     21  C   LIG    1       -0.749   3.086   1.275  0.00  0.00    +0.180 A 
ATOM     22  N   LIG    1        0.288   3.869   1.275  0.00  0.00    -0.380 NA
ATOM     23  O   LIG    1       -0.063   5.030   1.280  0.00  0.00    +0.090 OA
BRANCH  21  24
ATOM     24  C   LIG    1       -0.729   1.579   1.267  0.00  0.00    +0.100 C 
ATOM     25  C   LIG    1        0.011   1.072   2.506  0.00  0.00    +0.040 C 
ATOM     26  C   LIG    1       -0.013   1.086   0.008  0.00  0.00    +0.040 C 
ENDBRANCH  21  24
ENDBRANCH  18  19
ENDBRANCH   4  18
TORSDOF 4
