REMARK  Name = ZINCtj0000003gIn.1
REMARK                            x       y       z     vdW  Elec       q    Type
REMARK                         _______ _______ _______ _____ _____    ______ ____
ROOT
ATOM      1  C   LIG    1        3.989   2.703   5.223  0.00  0.00    +0.290 C 
ENDROOT
BRANCH   1   2
ATOM      2  N   LIG    1        2.654   3.092   4.748  0.00  0.00    -0.380 N 
ATOM      3  C   LIG    1        2.615   4.545   4.539  0.00  0.00    +0.270 C 
ATOM      4  C   LIG    1        1.194   4.966   4.152  0.00  0.00    +0.310 C 
ATOM      5  N   LIG    1        0.773   4.173   2.986  0.00  0.00    -0.640 N 
ATOM      6  C   LIG    1        0.927   2.712   3.050  0.00  0.00    +0.340 C 
ATOM      7  C   LIG    1        0.258   4.768   1.892  0.00  0.00    +0.720 C 
ATOM      8  N   LIG    1       -0.062   6.077   1.925  0.00  0.00    -0.630 N 
ATOM      9  C   LIG    1       -0.259   6.776   3.205  0.00  0.00    +0.250 C 
ATOM     10  C   LIG    1       -1.596   7.525   3.146  0.00  0.00    +0.210 C 
ATOM     11  O   LIG    1       -1.631   8.334   1.968  0.00  0.00    -0.370 OA
ATOM     12  C   LIG    1       -1.562   7.593   0.747  0.00  0.00    +0.220 C 
ATOM     13  C   LIG    1       -0.224   6.849   0.683  0.00  0.00    +0.280 C 
ATOM     14  O   LIG    1        0.080   4.125   0.876  0.00  0.00    -0.560 OA
ATOM     15  C   LIG    1        2.366   2.397   3.487  0.00  0.00    +0.250 C 
ATOM     16  H   LIG    1        1.964   2.834   5.438  0.00  0.00    +0.420 HD
ENDBRANCH   1   2
BRANCH   1  17
ATOM     17  C   LIG    1        3.995   1.211   5.561  0.00  0.00    +0.080 C 
BRANCH  17  20
ATOM     18  N   LIG    1        5.607  -0.465   6.406  0.00  0.00    -0.660 N 
ATOM     19  H   LIG    1        4.921  -1.140   6.287  0.00  0.00    +0.420 HD
ATOM     20  C   LIG    1        5.364   0.812   6.048  0.00  0.00    +0.520 C 
ATOM     21  O   LIG    1        6.248   1.640   6.119  0.00  0.00    -0.510 OA
BRANCH  18  24
ATOM     22  C   LIG    1        5.674  -2.475   8.418  0.00  0.00    +0.130 C 
ATOM     23  C   LIG    1        6.926  -1.792   7.933  0.00  0.00    -0.040 A 
ATOM     24  C   LIG    1        6.848  -0.815   6.949  0.00  0.00    +0.130 A 
ATOM     25  C   LIG    1        8.004  -0.184   6.508  0.00  0.00    +0.100 A 
ATOM     26  C   LIG    1        9.227  -0.532   7.045  0.00  0.00    +0.060 A 
ATOM     27  C   LIG    1        9.302  -1.509   8.022  0.00  0.00    +0.110 A 
ATOM     28  C   LIG    1        8.153  -2.139   8.463  0.00  0.00    -0.030 A 
BRANCH  28  29
ATOM     29  N   LIG    1        8.238  -3.184   9.508  0.00  0.00    +0.030 N 
ATOM     30  O   LIG    1        7.244  -3.815   9.821  0.00  0.00    -0.150 OA
ATOM     31  O   LIG    1        9.302  -3.414  10.054  0.00  0.00    -0.150 OA
ENDBRANCH  28  29
ENDBRANCH  18  24
ENDBRANCH  17  20
ENDBRANCH   1  17
TORSDOF 5
