REMARK  Name = ZINCrH00000lqTFb.0
REMARK                            x       y       z     vdW  Elec       q    Type
REMARK                         _______ _______ _______ _____ _____    ______ ____
ROOT
ATOM      1  C   LIG    1        2.041   4.195   0.005  0.00  0.00    +0.150 C 
ENDROOT
BRANCH   1   2
ATOM      2  C   LIG    1        1.925   5.050   1.241  0.00  0.00    -0.170 A 
ATOM      3  C   LIG    1        0.873   5.804   1.595  0.00  0.00    +0.240 A 
ATOM      4  N   LIG    1        1.131   6.438   2.780  0.00  0.00    -0.590 N 
ATOM      5  H   LIG    1        0.519   7.038   3.235  0.00  0.00    +0.420 HD
ATOM      6  C   LIG    1        2.387   6.099   3.229  0.00  0.00    +0.100 A 
ATOM      7  C   LIG    1        3.130   6.449   4.351  0.00  0.00    -0.010 A 
ATOM      8  C   LIG    1        4.394   5.929   4.525  0.00  0.00    +0.030 A 
ATOM      9  C   LIG    1        4.935   5.056   3.591  0.00  0.00    -0.020 A 
ATOM     10  C   LIG    1        4.223   4.699   2.481  0.00  0.00    +0.050 A 
ATOM     11  C   LIG    1        2.938   5.210   2.288  0.00  0.00    -0.090 A 
ENDBRANCH   1   2
BRANCH   1  12
ATOM     12  C   LIG    1        0.949   3.156   0.009  0.00  0.00    -0.170 A 
ATOM     13  C   LIG    1        1.144   1.836   0.001  0.00  0.00    +0.000 A 
ATOM     14  C   LIG    1       -0.013   1.076   0.008  0.00  0.00    +0.010 A 
ATOM     15  C   LIG    1       -1.147   1.778   0.017  0.00  0.00    -0.050 A 
ATOM     16  S   LIG    1       -0.776   3.497   0.027  0.00  0.00    +0.100 S 
ENDBRANCH   1  12
BRANCH   1  17
ATOM     17  C   LIG    1        1.902   5.075  -1.238  0.00  0.00    +0.280 C 
BRANCH  17  19
ATOM     18  C   LIG    1        2.061   4.835  -3.658  0.00  0.00    +0.500 C 
ATOM     19  N   LIG    1        2.132   4.266  -2.438  0.00  0.00    -0.720 N 
ATOM     20  H   LIG    1        2.337   3.322  -2.354  0.00  0.00    +0.400 HD
ATOM     21  O   LIG    1        1.806   6.016  -3.763  0.00  0.00    -0.520 OA
BRANCH  18  22
ATOM     22  C   LIG    1        2.298   4.002  -4.891  0.00  0.00    +0.340 C 
BRANCH  22  29
ATOM     23  C   LIG    1       -0.281   4.314  -6.217  0.00  0.00    +0.150 C 
ATOM     24  C   LIG    1        0.967   5.000  -6.712  0.00  0.00    +0.110 A 
ATOM     25  C   LIG    1        0.951   5.787  -7.779  0.00  0.00    -0.040 A 
ATOM     26  S   LIG    1        2.621   6.349  -7.970  0.00  0.00    +0.020 S 
ATOM     27  C   LIG    1        3.220   5.493  -6.601  0.00  0.00    +0.480 A 
ATOM     28  O   LIG    1        4.367   5.479  -6.189  0.00  0.00    -0.470 OA
ATOM     29  N   LIG    1        2.165   4.845  -6.082  0.00  0.00    -0.520 N 
ENDBRANCH  22  29
ENDBRANCH  18  22
ENDBRANCH  17  19
ENDBRANCH   1  17
TORSDOF 6
