REMARK  Name = ZINCrD0000070WTz.0
REMARK                            x       y       z     vdW  Elec       q    Type
REMARK                         _______ _______ _______ _____ _____    ______ ____
ROOT
ATOM      1  C   LIG    1       -1.060  -2.048   1.187  0.00  0.00    +0.200 A 
ATOM      2  C   LIG    1       -2.205  -2.772   1.349  0.00  0.00    +0.030 A 
ATOM      3  C   LIG    1       -3.447  -2.118   1.413  0.00  0.00    -0.000 A 
ATOM      4  C   LIG    1       -4.640  -2.843   1.574  0.00  0.00    +0.010 A 
ATOM      5  C   LIG    1       -5.829  -2.183   1.632  0.00  0.00    +0.040 A 
ATOM      6  C   LIG    1       -5.884  -0.793   1.535  0.00  0.00    +0.000 A 
ATOM      7  C   LIG    1       -4.751  -0.057   1.379  0.00  0.00    +0.040 A 
ATOM      8  C   LIG    1       -3.503  -0.703   1.315  0.00  0.00    -0.090 A 
ATOM      9  C   LIG    1       -2.317   0.029   1.154  0.00  0.00    +0.150 A 
ATOM     10  C   LIG    1       -1.105  -0.639   1.093  0.00  0.00    -0.150 A 
ENDROOT
BRANCH   1  13
ATOM     11  C   LIG    1        1.555  -4.672   0.545  0.00  0.00    +0.110 C 
ATOM     12  C   LIG    1        0.256  -3.909   0.517  0.00  0.00    +0.510 C 
ATOM     13  N   LIG    1        0.168  -2.706   1.118  0.00  0.00    -0.670 N 
ATOM     14  H   LIG    1        0.959  -2.297   1.503  0.00  0.00    +0.420 HD
ATOM     15  O   LIG    1       -0.711  -4.377  -0.046  0.00  0.00    -0.530 OA
ENDBRANCH   1  13
BRANCH  10  16
ATOM     16  C   LIG    1        0.145   0.124   0.925  0.00  0.00    +0.520 C 
ATOM     17  O   LIG    1        1.216  -0.449   0.956  0.00  0.00    -0.510 OA
BRANCH  16  18
ATOM     18  O   LIG    1        0.099   1.458   0.735  0.00  0.00    -0.320 OA
BRANCH  18  19
ATOM     19  C   LIG    1        1.369   2.144   0.577  0.00  0.00    +0.250 C 
BRANCH  19  20
ATOM     20  C   LIG    1        1.121   3.618   0.377  0.00  0.00    +0.520 C 
ATOM     21  N   LIG    1        2.161   4.458   0.207  0.00  0.00    -0.610 N 
ATOM     22  C   LIG    1        3.543   3.973   0.318  0.00  0.00    +0.260 C 
ATOM     23  C   LIG    1        4.291   4.843   1.333  0.00  0.00    +0.010 C 
ATOM     24  C   LIG    1        4.173   6.312   0.924  0.00  0.00    +0.020 C 
ATOM     25  C   LIG    1        2.700   6.727   0.925  0.00  0.00    +0.020 C 
ATOM     26  C   LIG    1        1.933   5.877  -0.099  0.00  0.00    +0.230 C 
ATOM     27  C   LIG    1        0.438   6.188  -0.010  0.00  0.00    +0.050 C 
ATOM     28  O   LIG    1       -0.013   4.046   0.369  0.00  0.00    -0.510 OA
ENDBRANCH  19  20
ENDBRANCH  18  19
ENDBRANCH  16  18
ENDBRANCH  10  16
TORSDOF 5
