REMARK  Name = ZINC650000003W1w.0
REMARK                            x       y       z     vdW  Elec       q    Type
REMARK                         _______ _______ _______ _____ _____    ______ ____
ROOT
ATOM      1  N   LIG    1        0.002  -0.004   0.002  0.00  0.00    -0.760 NA
ATOM      2  H   LIG    1       -0.831  -0.500   0.007  0.00  0.00    +0.320 HD
ATOM      3  C   LIG    1       -0.016   1.314   0.009  0.00  0.00    +0.330 A 
ATOM      4  N   LIG    1       -1.086   2.140   0.018  0.00  0.00    -0.470 NA
ATOM      5  N   LIG    1       -0.841   3.380   0.027  0.00  0.00    -0.000 NA
ATOM      6  N   LIG    1        0.364   3.818   0.018  0.00  0.00    -0.350 NA
ATOM      7  S   LIG    1        1.360   2.438   0.002  0.00  0.00    -0.070 S 
ENDROOT
TORSDOF 0
