REMARK  Name = ZINCpk00000y6wY7.0
REMARK                            x       y       z     vdW  Elec       q    Type
REMARK                         _______ _______ _______ _____ _____    ______ ____
ROOT
ATOM      1  C   LIG    1        1.463   1.890  -0.002  0.00  0.00    -0.070 C 
ATOM      2  C   LIG    1        1.884   2.596   1.252  0.00  0.00    +0.020 C 
ATOM      3  C   LIG    1        2.519   1.654   2.271  0.00  0.00    +0.220 C 
ATOM      4  O   LIG    1        3.577   0.952   1.605  0.00  0.00    -0.370 OA
ATOM      5  C   LIG    1        3.092   0.021   0.648  0.00  0.00    +0.220 C 
ATOM      6  C   LIG    1       -0.018   1.479   0.010  0.00  0.00    +0.280 C 
ATOM      7  N   LIG    1        0.002  -0.004   0.002  0.00  0.00    -0.630 N 
ATOM      8  C   LIG    1       -0.841  -0.845   0.634  0.00  0.00    +0.540 C 
ATOM      9  O   LIG    1       -1.747  -0.403   1.307  0.00  0.00    -0.530 OA
ATOM     10  C   LIG    1        1.159  -0.353  -0.858  0.00  0.00    +0.270 C 
ATOM     11  C   LIG    1        2.252   0.669  -0.435  0.00  0.00    +0.000 C 
ENDROOT
BRANCH   1  15
ATOM     12  N   LIG    1        0.919   4.060  -1.058  0.00  0.00    -0.850 N 
ATOM     13  H   LIG    1        1.010   4.710  -1.772  0.00  0.00    +0.410 HD
ATOM     14  H   LIG    1        0.334   4.244  -0.306  0.00  0.00    +0.400 HD
ATOM     15  C   LIG    1        1.604   2.901  -1.111  0.00  0.00    +0.520 C 
ATOM     16  O   LIG    1        2.335   2.671  -2.051  0.00  0.00    -0.530 OA
ENDBRANCH   1  15
BRANCH   8  17
ATOM     17  C   LIG    1       -0.657  -2.335   0.504  0.00  0.00    +0.070 C 
BRANCH  17  18
ATOM     18  C   LIG    1       -1.738  -3.055   1.312  0.00  0.00    +0.100 C 
BRANCH  18  19
ATOM     19  C   LIG    1       -1.553  -4.545   1.182  0.00  0.00    -0.110 A 
ATOM     20  C   LIG    1       -0.749  -5.221   2.089  0.00  0.00    +0.040 A 
ATOM     21  C   LIG    1       -0.568  -6.583   1.988  0.00  0.00    -0.010 A 
ATOM     22  C   LIG    1       -1.196  -7.290   0.968  0.00  0.00    +0.090 A 
ATOM     23  N   LIG    1       -1.214  -8.619   0.607  0.00  0.00    -0.600 N 
ATOM     24  H   LIG    1       -0.738  -9.328   1.067  0.00  0.00    +0.420 HD
ATOM     25  C   LIG    1       -2.005  -8.790  -0.496  0.00  0.00    +0.220 A 
ATOM     26  C   LIG    1       -2.515  -7.610  -0.882  0.00  0.00    -0.060 A 
ATOM     27  C   LIG    1       -2.010  -6.600   0.051  0.00  0.00    -0.110 A 
ATOM     28  C   LIG    1       -2.184  -5.220   0.175  0.00  0.00    +0.050 A 
ENDBRANCH  18  19
ENDBRANCH  17  18
ENDBRANCH   8  17
TORSDOF 4
