REMARK  Name = ZINCpe000000YSEh.0
REMARK                            x       y       z     vdW  Elec       q    Type
REMARK                         _______ _______ _______ _____ _____    ______ ____
ROOT
ATOM      1  O   LIG    1       -4.121   3.224   0.061  0.00  0.00    -0.540 OA
ATOM      2  C   LIG    1       -4.806   2.223   0.063  0.00  0.00    +0.530 C 
ATOM      3  N   LIG    1       -4.223   1.008   0.050  0.00  0.00    -0.720 N 
ATOM      4  H   LIG    1       -4.770   0.207   0.051  0.00  0.00    +0.420 HD
ENDROOT
BRANCH   3   5
ATOM      5  C   LIG    1       -2.762   0.896   0.035  0.00  0.00    +0.320 C 
BRANCH   5   6
ATOM      6  C   LIG    1       -2.369  -0.559   0.022  0.00  0.00    +0.520 C 
ATOM      7  N   LIG    1       -1.067  -0.905   0.007  0.00  0.00    -0.550 N 
ATOM      8  C   LIG    1       -0.564  -2.281  -0.005  0.00  0.00    +0.290 C 
ATOM      9  C   LIG    1        0.968  -2.151  -0.019  0.00  0.00    +0.110 C 
ATOM     10  C   LIG    1        1.223  -0.660  -0.013  0.00  0.00    -0.130 A 
ATOM     11  C   LIG    1        2.404   0.057  -0.021  0.00  0.00    +0.060 A 
ATOM     12  C   LIG    1        2.377   1.439  -0.014  0.00  0.00    +0.000 A 
ATOM     13  C   LIG    1        1.164   2.103   0.002  0.00  0.00    +0.050 A 
ATOM     14  C   LIG    1       -0.017   1.392   0.010  0.00  0.00    -0.020 A 
ATOM     15  C   LIG    1        0.002  -0.004   0.002  0.00  0.00    +0.130 A 
ATOM     16  O   LIG    1       -3.226  -1.418   0.026  0.00  0.00    -0.510 OA
ENDBRANCH   5   6
ENDBRANCH   3   5
BRANCH   2  17
ATOM     17  C   LIG    1       -6.308   2.338   0.079  0.00  0.00    +0.070 C 
BRANCH  17  18
ATOM     18  C   LIG    1       -6.707   3.815   0.091  0.00  0.00    +0.370 C 
BRANCH  18  19
ATOM     19  N   LIG    1       -8.167   3.927   0.106  0.00  0.00    -0.350 N 
ATOM     20  C   LIG    1       -8.902   4.606   1.012  0.00  0.00    +0.370 A 
ATOM     21  C   LIG    1      -10.205   4.464   0.676  0.00  0.00    -0.190 A 
ATOM     22  C   LIG    1      -10.269   3.670  -0.474  0.00  0.00    +0.330 A 
ATOM     23  N   LIG    1       -9.047   3.352  -0.819  0.00  0.00    -0.270 NA
BRANCH  21  24
ATOM     24  N   LIG    1      -11.359   5.045   1.398  0.00  0.00    +0.070 N 
ATOM     25  O   LIG    1      -12.492   4.845   0.997  0.00  0.00    -0.160 OA
ATOM     26  O   LIG    1      -11.176   5.723   2.393  0.00  0.00    -0.170 OA
ENDBRANCH  21  24
ENDBRANCH  18  19
ENDBRANCH  17  18
ENDBRANCH   2  17
TORSDOF 6
