REMARK  Name = ZINCkj00000GePzq.0
REMARK                            x       y       z     vdW  Elec       q    Type
REMARK                         _______ _______ _______ _____ _____    ______ ____
ROOT
ATOM      1  C   LIG    1       -0.013   1.086   0.008  0.00  0.00    +0.220 C 
ATOM      2  C   LIG    1       -0.689   1.468   1.326  0.00  0.00    +0.220 C 
ATOM      3  N   LIG    1       -2.067   0.962   1.337  0.00  0.00    -0.500 N 
ATOM      4  C   LIG    1       -2.842   1.600   0.266  0.00  0.00    +0.280 C 
ATOM      5  C   LIG    1       -2.247   1.223  -1.093  0.00  0.00    +0.050 C 
ATOM      6  H   LIG    1       -2.058  -0.037   1.194  0.00  0.00    +0.430 HD
ATOM      7  H   LIG    1       -2.494   1.169   2.228  0.00  0.00    +0.430 HD
ATOM      8  C   LIG    1       -0.793   1.699  -1.158  0.00  0.00    +0.190 C 
ENDROOT
BRANCH   1  14
ATOM      9  C   LIG    1        4.627   0.297   1.437  0.00  0.00    +0.020 C 
ATOM     10  C   LIG    1        3.702   1.197   0.616  0.00  0.00    -0.010 C 
ATOM     11  C   LIG    1        3.813   2.639   1.119  0.00  0.00    +0.010 C 
ATOM     12  C   LIG    1        2.840   3.522   0.332  0.00  0.00    +0.020 C 
ATOM     13  C   LIG    1        1.419   2.976   0.493  0.00  0.00    +0.180 C 
ATOM     14  N   LIG    1        1.365   1.595  -0.002  0.00  0.00    -0.490 NA
ATOM     15  C   LIG    1        2.256   0.719   0.769  0.00  0.00    +0.170 C 
ENDBRANCH   1  14
BRANCH   8  16
ATOM     16  C   LIG    1       -0.177   1.264  -2.462  0.00  0.00    +0.100 A 
ATOM     17  C   LIG    1       -0.655   1.782  -3.650  0.00  0.00    -0.040 A 
ATOM     18  C   LIG    1       -0.081   1.374  -4.845  0.00  0.00    +0.070 A 
ATOM     19  C   LIG    1        0.958   0.458  -4.799  0.00  0.00    -0.020 A 
ATOM     20  C   LIG    1        1.384  -0.017  -3.572  0.00  0.00    +0.270 A 
ATOM     21  N   LIG    1        0.817   0.397  -2.456  0.00  0.00    -0.440 NA
ENDBRANCH   8  16
BRANCH   8  22
ATOM     22  O   LIG    1       -0.753   3.124  -1.062  0.00  0.00    -0.540 OA
ATOM     23  H   LIG    1       -1.229   3.580  -1.771  0.00  0.00    +0.390 HD
ENDBRANCH   8  22
TORSDOF 3
