REMARK  Name = ZINCrD000003M05p.0
REMARK                            x       y       z     vdW  Elec       q    Type
REMARK                         _______ _______ _______ _____ _____    ______ ____
ROOT
ATOM      1  C   LIG    1        4.139  -4.722  -1.924  0.00  0.00    +0.280 A 
ATOM      2  N   LIG    1        4.273  -5.415  -0.814  0.00  0.00    -0.280 NA
ATOM      3  N   LIG    1        3.803  -4.602   0.230  0.00  0.00    -0.460 N 
ATOM      4  H   LIG    1        3.773  -4.827   1.173  0.00  0.00    +0.450 HD
ATOM      5  C   LIG    1        3.399  -3.449  -0.335  0.00  0.00    +0.280 A 
ATOM      6  N   LIG    1        3.607  -3.529  -1.623  0.00  0.00    -0.480 NA
ENDROOT
BRANCH   5   7
ATOM      7  C   LIG    1        2.814  -2.267   0.393  0.00  0.00    +0.270 C 
ATOM      8  C   LIG    1        3.536  -0.961  -0.014  0.00  0.00    +0.110 C 
ATOM      9  C   LIG    1        2.397   0.040  -0.013  0.00  0.00    -0.170 A 
ATOM     10  C   LIG    1        2.376   1.417  -0.010  0.00  0.00    +0.060 A 
ATOM     11  C   LIG    1        1.167   2.090   0.002  0.00  0.00    -0.010 A 
ATOM     12  C   LIG    1       -0.017   1.375   0.010  0.00  0.00    +0.050 A 
ATOM     13  C   LIG    1        0.002  -0.004   0.002  0.00  0.00    +0.000 A 
ATOM     14  C   LIG    1        1.214  -0.689  -0.011  0.00  0.00    +0.100 A 
ATOM     15  O   LIG    1        1.461  -2.028  -0.030  0.00  0.00    -0.290 OA
ENDBRANCH   5   7
BRANCH   1  19
ATOM     16  C   LIG    1        5.190  -6.004  -5.792  0.00  0.00    +0.120 A 
ATOM     17  C   LIG    1        5.404  -6.874  -4.725  0.00  0.00    +0.080 A 
ATOM     18  C   LIG    1        5.059  -6.454  -3.453  0.00  0.00    +0.050 A 
ATOM     19  C   LIG    1        4.513  -5.184  -3.283  0.00  0.00    +0.190 A 
ATOM     20  N   LIG    1        4.319  -4.385  -4.324  0.00  0.00    -0.420 NA
ATOM     21  C   LIG    1        4.641  -4.752  -5.547  0.00  0.00    +0.270 A 
BRANCH  16  28
ATOM     22  C   LIG    1        3.608  -5.207  -8.295  0.00  0.00    +0.160 C 
ATOM     23  C   LIG    1        4.850  -6.056  -8.222  0.00  0.00    +0.090 A 
ATOM     24  C   LIG    1        5.494  -6.621  -9.270  0.00  0.00    -0.100 A 
ATOM     25  C   LIG    1        6.592  -7.329  -8.769  0.00  0.00    +0.090 A 
ATOM     26  N   LIG    1        6.611  -7.191  -7.468  0.00  0.00    -0.290 NA
ATOM     27  C   LIG    1        7.583  -8.116  -9.588  0.00  0.00    +0.160 C 
ATOM     28  N   LIG    1        5.524  -6.389  -7.097  0.00  0.00    -0.330 N 
ENDBRANCH  16  28
ENDBRANCH   1  19
TORSDOF 3
