REMARK  Name = ZINCpe000000WZdf.0
REMARK                            x       y       z     vdW  Elec       q    Type
REMARK                         _______ _______ _______ _____ _____    ______ ____
ROOT
ATOM      1  N   LIG    1       -5.780   5.947   0.018  0.00  0.00    -0.740 N 
ATOM      2  H   LIG    1       -5.265   6.488  -0.601  0.00  0.00    +0.400 HD
ATOM      3  C   LIG    1       -5.239   4.832   0.549  0.00  0.00    +0.710 C 
ATOM      4  N   LIG    1       -3.983   4.471   0.222  0.00  0.00    -0.750 N 
ATOM      5  H   LIG    1       -3.468   5.012  -0.397  0.00  0.00    +0.400 HD
ATOM      6  O   LIG    1       -5.885   4.154   1.325  0.00  0.00    -0.580 OA
ENDROOT
BRANCH   1  11
ATOM      7  C   LIG    1       -8.517   9.633   1.188  0.00  0.00    +0.080 C 
ATOM      8  C   LIG    1       -9.295   8.320   1.298  0.00  0.00    -0.420 C 
ATOM      9  C   LIG    1       -8.535   7.349   2.204  0.00  0.00    +0.080 C 
ATOM     10  C   LIG    1       -7.119   7.141   1.672  0.00  0.00    +0.010 C 
ATOM     11  C   LIG    1       -7.146   6.340   0.374  0.00  0.00    +0.290 C 
ATOM     12  C   LIG    1       -7.739   7.190  -0.751  0.00  0.00    -0.350 C 
ATOM     13  S   LIG    1       -9.469   7.577  -0.350  0.00  0.00    +2.420 S 
ATOM     14  O   LIG    1      -10.190   6.359  -0.227  0.00  0.00    -0.930 OA
ATOM     15  O   LIG    1       -9.932   8.573  -1.252  0.00  0.00    -0.930 OA
ENDBRANCH   1  11
BRANCH   4  16
ATOM     16  C   LIG    1       -3.395   3.260   0.799  0.00  0.00    +0.310 C 
BRANCH  16  17
ATOM     17  C   LIG    1       -1.931   3.148   0.368  0.00  0.00    +0.050 C 
ATOM     18  C   LIG    1       -1.137   4.343   0.948  0.00  0.00    -0.280 C 
ATOM     19  S   LIG    1        0.500   3.556   1.207  0.00  0.00    +2.470 S 
ATOM     20  C   LIG    1       -0.068   1.877   1.327  0.00  0.00    -0.630 A 
ATOM     21  C   LIG    1        0.570   0.743   1.783  0.00  0.00    +0.140 A 
ATOM     22  C   LIG    1       -0.089  -0.473   1.787  0.00  0.00    +0.010 A 
ATOM     23  C   LIG    1       -1.392  -0.533   1.329  0.00  0.00    +0.070 A 
ATOM     24  C   LIG    1       -2.023   0.601   0.871  0.00  0.00    +0.020 A 
ATOM     25  O   LIG    1        1.295   3.604   0.030  0.00  0.00    -0.920 OA
ATOM     26  O   LIG    1        1.033   3.868   2.487  0.00  0.00    -0.930 OA
ATOM     27  C   LIG    1       -1.369   1.836   0.858  0.00  0.00    -0.040 A 
ENDBRANCH  16  17
ENDBRANCH   4  16
TORSDOF 3
