REMARK  Name = ZINCpk00000eavuu.0
REMARK                            x       y       z     vdW  Elec       q    Type
REMARK                         _______ _______ _______ _____ _____    ______ ____
ROOT
ATOM      1  N   LIG    1       -4.721   1.592   3.760  0.00  0.00    -0.560 N 
ATOM      2  C   LIG    1       -6.147   1.319   3.980  0.00  0.00    +0.310 C 
ATOM      3  C   LIG    1       -6.589   2.304   5.085  0.00  0.00    +0.000 C 
ATOM      4  C   LIG    1       -5.256   2.570   5.822  0.00  0.00    +0.090 C 
ATOM      5  C   LIG    1       -4.193   2.283   4.785  0.00  0.00    +0.520 C 
ATOM      6  O   LIG    1       -3.033   2.629   4.865  0.00  0.00    -0.500 OA
ENDROOT
BRANCH   1  11
ATOM      7  C   LIG    1       -1.980   1.176   1.340  0.00  0.00    +0.160 A 
ATOM      8  C   LIG    1       -2.587   0.359   0.397  0.00  0.00    -0.100 A 
ATOM      9  C   LIG    1       -3.897  -0.046   0.571  0.00  0.00    +0.080 A 
ATOM     10  C   LIG    1       -4.606   0.361   1.685  0.00  0.00    -0.060 A 
ATOM     11  C   LIG    1       -4.003   1.180   2.632  0.00  0.00    +0.200 A 
ATOM     12  C   LIG    1       -2.687   1.583   2.461  0.00  0.00    -0.030 A 
BRANCH   7  14
ATOM     13  C   LIG    1       -0.022   1.111  -0.007  0.00  0.00    +0.250 C 
ATOM     14  O   LIG    1       -0.692   1.573   1.168  0.00  0.00    -0.310 OA
ENDBRANCH   7  14
ENDBRANCH   1  11
BRANCH   3  15
ATOM     15  C   LIG    1       -7.597   1.664   6.005  0.00  0.00    +0.530 C 
ATOM     16  N   LIG    1       -8.107   2.365   7.037  0.00  0.00    -0.720 N 
ATOM     17  H   LIG    1       -7.824   3.280   7.188  0.00  0.00    +0.400 HD
ATOM     18  O   LIG    1       -7.949   0.519   5.816  0.00  0.00    -0.520 OA
BRANCH  16  19
ATOM     19  C   LIG    1       -9.086   1.743   7.932  0.00  0.00    +0.240 C 
ATOM     20  C   LIG    1      -10.487   1.888   7.333  0.00  0.00    +0.040 C 
BRANCH  19  21
ATOM     21  C   LIG    1       -9.041   2.433   9.296  0.00  0.00    +0.330 C 
BRANCH  21  22
ATOM     22  N   LIG    1       -7.738   2.194   9.922  0.00  0.00    -0.370 N 
ATOM     23  C   LIG    1       -6.888   3.140  10.374  0.00  0.00    +0.220 A 
ATOM     24  C   LIG    1       -5.802   2.511  10.879  0.00  0.00    -0.120 A 
ATOM     25  C   LIG    1       -5.995   1.133  10.731  0.00  0.00    +0.230 A 
ATOM     26  N   LIG    1       -7.157   0.942  10.163  0.00  0.00    -0.290 NA
ENDBRANCH  21  22
ENDBRANCH  19  21
ENDBRANCH  16  19
ENDBRANCH   3  15
TORSDOF 6
