REMARK  Name = ZINCrg00000Bodir.0
REMARK                            x       y       z     vdW  Elec       q    Type
REMARK                         _______ _______ _______ _____ _____    ______ ____
ROOT
ATOM      1  C   LIG    1       -4.494  -2.057   0.011  0.00  0.00    +0.250 C 
ATOM      2  C   LIG    1       -5.042  -2.564  -1.334  0.00  0.00    +0.000 C 
ATOM      3  C   LIG    1       -6.016  -3.432  -0.519  0.00  0.00    +0.100 C 
ATOM      4  C   LIG    1       -5.867  -2.399   0.611  0.00  0.00    +0.070 C 
ENDROOT
BRANCH   1   7
ATOM      5  O   LIG    1       -2.005  -1.017   0.004  0.00  0.00    -0.530 OA
ATOM      6  C   LIG    1       -2.910  -0.205   0.014  0.00  0.00    +0.580 C 
ATOM      7  N   LIG    1       -4.191  -0.623   0.018  0.00  0.00    -0.710 N 
ATOM      8  H   LIG    1       -4.913   0.025   0.025  0.00  0.00    +0.400 HD
BRANCH   6   9
ATOM      9  C   LIG    1       -2.607   1.232   0.021  0.00  0.00    -0.140 A 
ATOM     10  C   LIG    1       -3.555   2.178   0.031  0.00  0.00    -0.020 A 
ATOM     11  S   LIG    1       -2.899   3.747   0.050  0.00  0.00    +0.180 S 
ATOM     12  C   LIG    1       -1.244   3.154   0.030  0.00  0.00    -0.160 A 
ATOM     13  C   LIG    1       -0.030   3.849   0.023  0.00  0.00    +0.050 A 
ATOM     14  C   LIG    1        1.162   3.163   0.008  0.00  0.00    +0.030 A 
ATOM     15  C   LIG    1        1.169   1.776   0.000  0.00  0.00    +0.010 A 
ATOM     16  C   LIG    1       -0.013   1.076   0.008  0.00  0.00    +0.070 A 
ATOM     17  C   LIG    1       -1.242   1.759   0.018  0.00  0.00    -0.040 A 
ENDBRANCH   6   9
ENDBRANCH   1   7
BRANCH   3  18
ATOM     18  O   LIG    1       -7.332  -3.489  -1.073  0.00  0.00    -0.540 OA
ATOM     19  H   LIG    1       -7.432  -4.136  -1.784  0.00  0.00    +0.370 HD
ENDBRANCH   3  18
BRANCH   3  20
ATOM     20  C   LIG    1       -5.460  -4.812  -0.165  0.00  0.00    +0.290 C 
BRANCH  20  21
ATOM     21  N   LIG    1       -5.539  -5.686  -1.338  0.00  0.00    -0.730 N 
ATOM     22  H   LIG    1       -5.904  -5.348  -2.171  0.00  0.00    +0.400 HD
ATOM     23  C   LIG    1       -5.103  -6.959  -1.261  0.00  0.00    +0.530 C 
ATOM     24  O   LIG    1       -4.645  -7.381  -0.220  0.00  0.00    -0.500 OA
BRANCH  23  25
ATOM     25  C   LIG    1       -5.184  -7.858  -2.468  0.00  0.00    +0.140 C 
ATOM     26  C   LIG    1       -6.652  -8.097  -2.830  0.00  0.00    +0.220 C 
ATOM     27  O   LIG    1       -6.723  -9.039  -3.905  0.00  0.00    -0.370 OA
ATOM     28  C   LIG    1       -6.102 -10.293  -3.609  0.00  0.00    +0.200 C 
ATOM     29  C   LIG    1       -4.633 -10.054  -3.247  0.00  0.00    +0.200 C 
ATOM     30  O   LIG    1       -4.561  -9.112  -2.172  0.00  0.00    -0.350 OA
ENDBRANCH  23  25
ENDBRANCH  20  21
ENDBRANCH   3  20
TORSDOF 6
