REMARK  Name = ZINCpk00000ebvku.0
REMARK                            x       y       z     vdW  Elec       q    Type
REMARK                         _______ _______ _______ _____ _____    ______ ____
ROOT
ATOM      1  O   LIG    1       -1.417   5.938  -0.054  0.00  0.00    -0.490 OA
ATOM      2  C   LIG    1       -0.272   6.339  -0.063  0.00  0.00    +0.510 C 
ATOM      3  N   LIG    1        0.750   5.465   0.024  0.00  0.00    -0.670 N 
ATOM      4  H   LIG    1        1.661   5.789   0.094  0.00  0.00    +0.420 HD
ENDROOT
BRANCH   3   5
ATOM      5  C   LIG    1        0.495   4.087   0.014  0.00  0.00    +0.160 A 
ATOM      6  C   LIG    1        1.301   3.227   0.746  0.00  0.00    +0.010 A 
ATOM      7  C   LIG    1        1.048   1.868   0.742  0.00  0.00    +0.060 A 
ATOM      8  C   LIG    1       -0.004   1.360  -0.002  0.00  0.00    +0.020 A 
ATOM      9  O   LIG    1       -0.455   0.082  -0.176  0.00  0.00    -0.310 OA
ATOM     10  C   LIG    1       -1.293   0.125  -1.346  0.00  0.00    +0.430 C 
ATOM     11  O   LIG    1       -1.773   1.483  -1.373  0.00  0.00    -0.300 OA
ATOM     12  C   LIG    1       -0.815   2.221  -0.739  0.00  0.00    +0.060 A 
ATOM     13  C   LIG    1       -0.564   3.582  -0.729  0.00  0.00    +0.040 A 
ENDBRANCH   3   5
BRANCH   2  14
ATOM     14  C   LIG    1        0.008   7.816  -0.172  0.00  0.00    +0.240 C 
BRANCH  14  15
ATOM     15  O   LIG    1       -1.228   8.530  -0.251  0.00  0.00    -0.280 OA
BRANCH  15  16
ATOM     16  C   LIG    1       -1.152   9.883  -0.354  0.00  0.00    +0.150 A 
ATOM     17  C   LIG    1        0.085  10.510  -0.379  0.00  0.00    -0.060 A 
ATOM     18  C   LIG    1        0.163  11.886  -0.484  0.00  0.00    +0.100 A 
ATOM     19  C   LIG    1       -0.991  12.641  -0.565  0.00  0.00    -0.020 A 
ATOM     20  C   LIG    1       -2.232  12.019  -0.540  0.00  0.00    +0.170 A 
ATOM     21  C   LIG    1       -2.312  10.638  -0.440  0.00  0.00    +0.020 A 
BRANCH  20  22
ATOM     22  N   LIG    1       -3.404  12.786  -0.623  0.00  0.00    -0.330 N 
ATOM     23  C   LIG    1       -3.499  14.118  -0.823  0.00  0.00    +0.470 A 
ATOM     24  N   LIG    1       -4.771  14.419  -0.832  0.00  0.00    -0.330 NA
ATOM     25  N   LIG    1       -5.487  13.368  -0.651  0.00  0.00    -0.030 NA
ATOM     26  N   LIG    1       -4.730  12.332  -0.522  0.00  0.00    -0.070 NA
ENDBRANCH  20  22
ENDBRANCH  15  16
ENDBRANCH  14  15
ENDBRANCH   2  14
TORSDOF 5
