REMARK  Name = ZINCqH0000038q6x.0
REMARK                            x       y       z     vdW  Elec       q    Type
REMARK                         _______ _______ _______ _____ _____    ______ ____
ROOT
ATOM      1  C   LIG    1       -2.224   7.800  -1.204  0.00  0.00    +0.530 C 
ATOM      2  N   LIG    1       -2.524   9.025  -1.680  0.00  0.00    -0.610 N 
ATOM      3  C   LIG    1       -1.552  10.018  -2.170  0.00  0.00    +0.240 C 
ATOM      4  C   LIG    1       -2.264  11.384  -2.007  0.00  0.00    +0.040 C 
ATOM      5  C   LIG    1       -3.728  11.017  -2.367  0.00  0.00    +0.050 C 
ATOM      6  C   LIG    1       -3.877   9.588  -1.803  0.00  0.00    +0.270 C 
ATOM      7  O   LIG    1       -3.109   7.062  -0.827  0.00  0.00    -0.520 OA
ENDROOT
BRANCH   6   8
ATOM      8  C   LIG    1       -4.699   8.746  -2.744  0.00  0.00    -0.090 A 
ATOM      9  C   LIG    1       -5.948   8.298  -2.358  0.00  0.00    -0.060 A 
ATOM     10  C   LIG    1       -6.704   7.529  -3.223  0.00  0.00    -0.010 A 
ATOM     11  C   LIG    1       -6.208   7.201  -4.471  0.00  0.00    +0.010 A 
ATOM     12  C   LIG    1       -4.956   7.646  -4.855  0.00  0.00    -0.010 A 
ATOM     13  C   LIG    1       -6.488   8.651  -0.996  0.00  0.00    +0.090 C 
ATOM     14  C   LIG    1       -4.202   8.418  -3.992  0.00  0.00    -0.070 A 
ATOM     15  C   LIG    1       -2.838   8.902  -4.411  0.00  0.00    +0.090 C 
ENDBRANCH   6   8
BRANCH   1  16
ATOM     16  C   LIG    1       -0.788   7.348  -1.140  0.00  0.00    +0.310 C 
BRANCH  16  18
ATOM     17  C   LIG    1        0.464   5.379  -0.439  0.00  0.00    +0.560 C 
ATOM     18  N   LIG    1       -0.727   5.992  -0.589  0.00  0.00    -0.720 N 
ATOM     19  H   LIG    1       -1.544   5.535  -0.333  0.00  0.00    +0.410 HD
ATOM     20  O   LIG    1        1.487   5.951  -0.759  0.00  0.00    -0.530 OA
BRANCH  17  27
ATOM     21  C   LIG    1        3.035   4.172   0.112  0.00  0.00    +0.110 C 
ATOM     22  C   LIG    1        1.760   3.417   0.387  0.00  0.00    -0.020 A 
ATOM     23  C   LIG    1        1.810   2.140   0.905  0.00  0.00    +0.000 A 
ATOM     24  C   LIG    1        0.640   1.446   1.157  0.00  0.00    +0.040 A 
ATOM     25  C   LIG    1       -0.587   2.027   0.893  0.00  0.00    -0.010 A 
ATOM     26  C   LIG    1       -0.651   3.305   0.375  0.00  0.00    +0.050 A 
ATOM     27  C   LIG    1        0.525   4.010   0.117  0.00  0.00    -0.140 A 
ENDBRANCH  17  27
ENDBRANCH  16  18
ENDBRANCH   1  16
TORSDOF 4
