REMARK  Name = ZINCvU0000000C3g.0
REMARK                            x       y       z     vdW  Elec       q    Type
REMARK                         _______ _______ _______ _____ _____    ______ ____
ROOT
ATOM      1  O   LIG    1        3.108   3.331  -0.958  0.00  0.00    -0.510 OA
ATOM      2  C   LIG    1        4.091   2.716  -0.602  0.00  0.00    +0.520 C 
ATOM      3  N   LIG    1        3.966   1.456  -0.140  0.00  0.00    -0.670 N 
ATOM      4  H   LIG    1        4.740   0.990   0.214  0.00  0.00    +0.410 HD
ENDROOT
BRANCH   2   5
ATOM      5  C   LIG    1        5.451   3.360  -0.677  0.00  0.00    -0.010 C 
ATOM      6  C   LIG    1        5.314   4.780  -1.232  0.00  0.00    +0.060 C 
ATOM      7  C   LIG    1        6.699   5.423  -1.339  0.00  0.00    +0.020 C 
ATOM      8  C   LIG    1        7.329   5.506   0.056  0.00  0.00    +0.270 C 
ATOM      9  N   LIG    1        7.331   4.164   0.654  0.00  0.00    -0.600 N 
ATOM     10  C   LIG    1        8.472   3.627   1.129  0.00  0.00    +0.560 C 
ATOM     11  O   LIG    1        8.457   2.525   1.643  0.00  0.00    -0.530 OA
ATOM     12  C   LIG    1        6.067   3.419   0.724  0.00  0.00    +0.300 C 
BRANCH  10  13
ATOM     13  C   LIG    1        9.741   4.377   1.027  0.00  0.00    -0.130 A 
ATOM     14  C   LIG    1        9.738   5.772   1.094  0.00  0.00    +0.070 A 
ATOM     15  C   LIG    1       10.926   6.466   1.004  0.00  0.00    +0.020 A 
ATOM     16  C   LIG    1       12.120   5.783   0.836  0.00  0.00    -0.010 A 
ATOM     17  C   LIG    1       12.128   4.400   0.762  0.00  0.00    +0.030 A 
ATOM     18 CL   LIG    1       13.610   6.665   0.716  0.00  0.00    -0.060 Cl
ATOM     19  C   LIG    1       10.947   3.695   0.857  0.00  0.00    +0.090 A 
ENDBRANCH  10  13
ENDBRANCH   2   5
BRANCH   3  20
ATOM     20  C   LIG    1        2.718   0.819  -0.169  0.00  0.00    +0.110 A 
ATOM     21  C   LIG    1        2.366  -0.065   0.843  0.00  0.00    +0.020 A 
ATOM     22  C   LIG    1        1.137  -0.692   0.814  0.00  0.00    -0.030 A 
ATOM     23  C   LIG    1        0.252  -0.440  -0.226  0.00  0.00    +0.110 A 
ATOM     24  C   LIG    1        0.605   0.444  -1.238  0.00  0.00    +0.010 A 
ATOM     25  C   LIG    1        1.834   1.071  -1.209  0.00  0.00    +0.040 A 
BRANCH  23  26
ATOM     26  N   LIG    1       -0.994  -1.076  -0.256  0.00  0.00    -0.500 N 
ATOM     27  C   LIG    1       -1.192  -1.909   0.952  0.00  0.00    +0.190 C 
ATOM     28  C   LIG    1       -2.385  -2.819   0.843  0.00  0.00    +0.040 C 
ATOM     29  C   LIG    1       -1.910  -4.189   0.316  0.00  0.00    +0.000 C 
ATOM     30  C   LIG    1       -1.686  -4.178  -1.125  0.00  0.00    +0.000 C 
ATOM     31  C   LIG    1       -0.594  -3.168  -1.538  0.00  0.00    -0.010 C 
ATOM     32  C   LIG    1       -1.195  -1.789  -1.537  0.00  0.00    +0.220 C 
ENDBRANCH  23  26
ENDBRANCH   3  20
TORSDOF 4
