REMARK  Name = ZINCpe00000zgRaD.0
REMARK                            x       y       z     vdW  Elec       q    Type
REMARK                         _______ _______ _______ _____ _____    ______ ____
ROOT
ATOM      1  C   LIG    1       -0.464   9.922   0.670  0.00  0.00    +0.320 C 
ATOM      2  N   LIG    1       -1.302  11.102   0.493  0.00  0.00    -0.700 N 
ATOM      3  H   LIG    1       -1.134  11.868   1.064  0.00  0.00    +0.410 HD
ATOM      4  C   LIG    1       -2.284  11.193  -0.404  0.00  0.00    +0.530 C 
ATOM      5  C   LIG    1       -2.682  10.068  -1.316  0.00  0.00    +0.090 C 
ATOM      6  C   LIG    1       -1.563   9.025  -1.374  0.00  0.00    +0.040 C 
ATOM      7  O   LIG    1       -2.889  12.241  -0.488  0.00  0.00    -0.540 OA
ATOM      8  C   LIG    1       -1.137   8.691   0.061  0.00  0.00    +0.260 C 
ENDROOT
BRANCH   1  14
ATOM      9  C   LIG    1        2.241   9.278   2.038  0.00  0.00    +0.320 C 
ATOM     10  N   LIG    1        0.951   9.409   2.720  0.00  0.00    -0.450 N 
ATOM     11  C   LIG    1        0.725   9.271   4.063  0.00  0.00    +0.140 A 
ATOM     12  C   LIG    1       -0.593   9.470   4.259  0.00  0.00    +0.150 A 
ATOM     13  N   LIG    1       -1.155   9.729   3.068  0.00  0.00    -0.460 NA
ATOM     14  C   LIG    1       -0.237   9.689   2.141  0.00  0.00    +0.180 A 
ENDBRANCH   1  14
BRANCH   8  15
ATOM     15  N   LIG    1       -0.192   7.572   0.045  0.00  0.00    -0.720 N 
ATOM     16  H   LIG    1        0.763   7.743   0.037  0.00  0.00    +0.390 HD
ATOM     17  C   LIG    1       -0.650   6.304   0.043  0.00  0.00    +0.610 C 
ATOM     18  O   LIG    1       -1.848   6.090   0.053  0.00  0.00    -0.540 OA
BRANCH  17  19
ATOM     19  C   LIG    1        0.295   5.184   0.027  0.00  0.00    -0.320 A 
ATOM     20  C   LIG    1       -0.028   3.813   0.022  0.00  0.00    +0.170 A 
ATOM     21  C   LIG    1       -1.246   3.121   0.030  0.00  0.00    +0.050 A 
ATOM     22  C   LIG    1       -1.238   1.757   0.018  0.00  0.00    +0.080 A 
ATOM     23  C   LIG    1       -0.013   1.076   0.008  0.00  0.00    +0.010 A 
ATOM     24  C   LIG    1        1.151   1.764   0.001  0.00  0.00    +0.290 A 
ATOM     25  N   LIG    1        1.153   3.127   0.007  0.00  0.00    -0.260 N 
ATOM     26  N   LIG    1        2.195   4.062   0.003  0.00  0.00    -0.310 NA
ATOM     27  C   LIG    1        1.698   5.272   0.014  0.00  0.00    +0.310 A 
ENDBRANCH  17  19
ENDBRANCH   8  15
TORSDOF 3
