REMARK  Name = ZINCrH00000and3Y.0
REMARK                            x       y       z     vdW  Elec       q    Type
REMARK                         _______ _______ _______ _____ _____    ______ ____
ROOT
ATOM      1  N   LIG    1       -3.073   7.687   0.510  0.00  0.00    -0.710 N 
ATOM      2  H   LIG    1       -2.280   8.246   0.498  0.00  0.00    +0.410 HD
ATOM      3  C   LIG    1       -2.957   6.358   0.697  0.00  0.00    +0.590 C 
ATOM      4  O   LIG    1       -3.950   5.657   0.712  0.00  0.00    -0.500 OA
ENDROOT
BRANCH   3   5
ATOM      5  C   LIG    1       -1.625   5.753   0.884  0.00  0.00    -0.060 A 
ATOM      6  N   LIG    1       -0.546   6.504   0.869  0.00  0.00    -0.140 NA
ATOM      7  N   LIG    1        0.644   6.059   1.022  0.00  0.00    -0.420 N 
ATOM      8  H   LIG    1        1.379   6.691   0.996  0.00  0.00    +0.450 HD
ATOM      9  C   LIG    1        0.933   4.731   1.222  0.00  0.00    +0.110 A 
ATOM     10  C   LIG    1        2.246   4.290   1.385  0.00  0.00    +0.060 A 
ATOM     11  C   LIG    1        2.498   2.948   1.584  0.00  0.00    +0.060 A 
ATOM     12  C   LIG    1        1.460   2.027   1.624  0.00  0.00    +0.030 A 
ATOM     13  C   LIG    1        0.155   2.440   1.461  0.00  0.00    +0.120 A 
ATOM     14  F   LIG    1        3.267   5.173   1.348  0.00  0.00    -0.130 F 
ATOM     15  C   LIG    1       -0.116   3.792   1.265  0.00  0.00    -0.170 A 
ATOM     16  C   LIG    1       -1.490   4.299   1.088  0.00  0.00    +0.410 A 
ATOM     17  O   LIG    1       -2.457   3.558   1.111  0.00  0.00    -0.410 OA
ENDBRANCH   3   5
BRANCH   1  19
ATOM     18  C   LIG    1       -4.794   8.200  -1.149  0.00  0.00    +0.020 C 
ATOM     19  C   LIG    1       -4.396   8.289   0.325  0.00  0.00    +0.260 C 
BRANCH  19  20
ATOM     20  C   LIG    1       -4.354   9.756   0.755  0.00  0.00    -0.050 C 
ATOM     21  C   LIG    1       -4.490   9.957   2.274  0.00  0.00    +0.030 C 
ATOM     22  C   LIG    1       -5.383  11.167   1.954  0.00  0.00    +0.010 C 
ATOM     23  C   LIG    1       -5.705  10.477   0.618  0.00  0.00    +0.040 C 
BRANCH  20  24
ATOM     24  C   LIG    1       -3.202  10.512   0.145  0.00  0.00    -0.060 A 
ATOM     25  C   LIG    1       -2.162  10.951   0.944  0.00  0.00    +0.010 A 
ATOM     26  C   LIG    1       -1.103  11.640   0.383  0.00  0.00    +0.000 A 
ATOM     27  C   LIG    1       -1.089  11.900  -0.975  0.00  0.00    +0.000 A 
ATOM     28  C   LIG    1       -2.131  11.465  -1.772  0.00  0.00    +0.000 A 
ATOM     29  C   LIG    1       -3.187  10.771  -1.213  0.00  0.00    +0.020 A 
ENDBRANCH  20  24
ENDBRANCH  19  20
ENDBRANCH   1  19
TORSDOF 4
