REMARK  Name = ZINCvU000000054s.0
REMARK                            x       y       z     vdW  Elec       q    Type
REMARK                         _______ _______ _______ _____ _____    ______ ____
ROOT
ATOM      1  C   LIG    1        2.486   1.290  -0.199  0.00  0.00    -0.100 A 
ATOM      2  C   LIG    1        2.396  -0.099  -0.195  0.00  0.00    +0.090 A 
ATOM      3  C   LIG    1        1.174  -0.712   0.013  0.00  0.00    +0.030 A 
ATOM      4  C   LIG    1        0.036   0.047   0.218  0.00  0.00    +0.060 A 
ATOM      5  C   LIG    1        0.106   1.427   0.218  0.00  0.00    +0.050 A 
ATOM      6  C   LIG    1        1.327   2.063   0.010  0.00  0.00    -0.090 A 
ENDROOT
BRANCH   1   7
ATOM      7  C   LIG    1        3.790   1.950  -0.420  0.00  0.00    +0.510 C 
ATOM      8  O   LIG    1        3.849   3.158  -0.527  0.00  0.00    -0.490 OA
BRANCH   7   9
ATOM      9  O   LIG    1        4.914   1.211  -0.503  0.00  0.00    -0.330 OA
BRANCH   9  10
ATOM     10  C   LIG    1        6.158   1.926  -0.722  0.00  0.00    +0.240 C 
BRANCH  10  12
ATOM     11  O   LIG    1        7.083  -0.244  -0.661  0.00  0.00    -0.420 OA
ATOM     12  C   LIG    1        7.298   0.942  -0.787  0.00  0.00    +0.400 C 
BRANCH  12  13
ATOM     13  C   LIG    1        8.672   1.422  -1.002  0.00  0.00    -0.170 A 
ATOM     14  C   LIG    1        8.924   2.789  -1.153  0.00  0.00    +0.080 A 
ATOM     15  C   LIG    1       10.214   3.232  -1.349  0.00  0.00    +0.020 A 
ATOM     16  C   LIG    1       11.259   2.324  -1.409  0.00  0.00    -0.000 A 
ATOM     17  C   LIG    1       11.017   0.968  -1.265  0.00  0.00    +0.030 A 
ATOM     18 CL   LIG    1       12.881   2.890  -1.664  0.00  0.00    -0.050 Cl
ATOM     19  C   LIG    1        9.732   0.511  -1.063  0.00  0.00    +0.110 A 
ENDBRANCH  12  13
ENDBRANCH  10  12
ENDBRANCH   9  10
ENDBRANCH   7   9
ENDBRANCH   1   7
BRANCH   6  20
ATOM     20  C   LIG    1        1.407   3.539   0.008  0.00  0.00    +0.460 C 
ATOM     21  O   LIG    1        1.025   4.167  -0.959  0.00  0.00    -0.410 OA
BRANCH  20  22
ATOM     22  C   LIG    1        1.952   4.250   1.182  0.00  0.00    -0.140 A 
ATOM     23  C   LIG    1        2.469   3.529   2.262  0.00  0.00    +0.130 A 
ATOM     24  C   LIG    1        2.976   4.199   3.355  0.00  0.00    +0.050 A 
ATOM     25  C   LIG    1        2.974   5.585   3.384  0.00  0.00    +0.040 A 
ATOM     26  C   LIG    1        2.463   6.305   2.316  0.00  0.00    -0.050 A 
ATOM     27 CL   LIG    1        3.615   6.421   4.764  0.00  0.00    +0.010 Cl
ATOM     28  C   LIG    1        1.958   5.648   1.215  0.00  0.00    +0.180 A 
BRANCH  26  29
ATOM     29  N   LIG    1        2.465   7.785   2.356  0.00  0.00    +0.020 N 
ATOM     30  O   LIG    1        2.916   8.368   3.326  0.00  0.00    -0.130 OA
ATOM     31  O   LIG    1        2.016   8.420   1.418  0.00  0.00    -0.150 OA
ENDBRANCH  26  29
ENDBRANCH  20  22
ENDBRANCH   6  20
TORSDOF 8
