REMARK  Name = ZINCqH0000000tXd.0
REMARK                            x       y       z     vdW  Elec       q    Type
REMARK                         _______ _______ _______ _____ _____    ______ ____
ROOT
ATOM      1  N   LIG    1        6.152   0.120  -2.201  0.00  0.00    -0.320 N 
ATOM      2  N   LIG    1        7.090   0.537  -1.240  0.00  0.00    -0.060 NA
ATOM      3  N   LIG    1        6.449   0.688  -0.133  0.00  0.00    -0.030 NA
ATOM      4  N   LIG    1        5.204   0.416  -0.292  0.00  0.00    -0.320 NA
ATOM      5  C   LIG    1        4.964   0.067  -1.538  0.00  0.00    +0.210 A 
ENDROOT
BRANCH   1  10
ATOM      6  C   LIG    1        7.569   0.251  -5.599  0.00  0.00    +0.160 A 
ATOM      7  C   LIG    1        6.850  -0.762  -6.221  0.00  0.00    +0.010 A 
ATOM      8  C   LIG    1        5.905  -1.476  -5.509  0.00  0.00    +0.080 A 
ATOM      9  C   LIG    1        5.676  -1.189  -4.177  0.00  0.00    +0.010 A 
ATOM     10  C   LIG    1        6.389  -0.174  -3.552  0.00  0.00    +0.140 A 
ATOM     11  C   LIG    1        7.338   0.545  -4.263  0.00  0.00    +0.050 A 
BRANCH   6  14
ATOM     12  C   LIG    1       10.727   2.086  -6.510  0.00  0.00    +0.110 C 
ATOM     13  C   LIG    1        9.651   1.398  -5.711  0.00  0.00    +0.510 C 
ATOM     14  N   LIG    1        8.526   0.974  -6.320  0.00  0.00    -0.680 N 
ATOM     15  H   LIG    1        8.380   1.170  -7.259  0.00  0.00    +0.420 HD
ATOM     16  O   LIG    1        9.796   1.226  -4.519  0.00  0.00    -0.520 OA
ENDBRANCH   6  14
ENDBRANCH   1  10
BRANCH   5  17
ATOM     17  S   LIG    1        3.403  -0.391  -2.216  0.00  0.00    +0.060 S 
BRANCH  17  18
ATOM     18  C   LIG    1        2.336  -0.080  -0.788  0.00  0.00    +0.080 C 
ATOM     19  C   LIG    1        2.624  -1.122   0.292  0.00  0.00    +0.050 C 
ATOM     20  C   LIG    1        1.568  -0.979   1.395  0.00  0.00    +0.040 C 
ATOM     21  C   LIG    1        0.226  -1.454   0.841  0.00  0.00    +0.070 C 
ATOM     22  C   LIG    1       -0.075  -0.777  -0.471  0.00  0.00    -0.050 A 
ATOM     23  C   LIG    1       -1.387  -0.800  -0.924  0.00  0.00    +0.010 A 
ATOM     24  C   LIG    1       -1.726  -0.201  -2.120  0.00  0.00    +0.020 A 
ATOM     25  C   LIG    1       -0.752   0.425  -2.875  0.00  0.00    +0.010 A 
ATOM     26  C   LIG    1        0.552   0.450  -2.425  0.00  0.00    +0.020 A 
ATOM     27  C   LIG    1        0.895  -0.150  -1.221  0.00  0.00    -0.070 A 
ENDBRANCH  17  18
ENDBRANCH   5  17
TORSDOF 4
