REMARK  Name = ZINCpk00000eaXtI.0
REMARK                            x       y       z     vdW  Elec       q    Type
REMARK                         _______ _______ _______ _____ _____    ______ ____
ROOT
ATOM      1  C   LIG    1       -3.745  -0.766  -0.017  0.00  0.00    +0.300 C 
ENDROOT
BRANCH   1   2
ATOM      2  C   LIG    1       -4.904   0.222  -0.167  0.00  0.00    +0.170 C 
ATOM      3  O   LIG    1       -4.828   1.207   0.867  0.00  0.00    -0.380 OA
ATOM      4  C   LIG    1       -5.891   2.163   0.830  0.00  0.00    +0.220 C 
ATOM      5  C   LIG    1       -7.231   1.432   0.954  0.00  0.00    +0.160 C 
ATOM      6  N   LIG    1       -7.341   0.436  -0.121  0.00  0.00    -0.530 NA
ATOM      7  C   LIG    1       -8.639  -0.250  -0.073  0.00  0.00    +0.200 C 
ATOM      8  C   LIG    1       -6.233  -0.528  -0.053  0.00  0.00    +0.160 C 
BRANCH   8   9
ATOM      9  C   LIG    1       -6.354  -1.514  -1.187  0.00  0.00    -0.090 A 
ATOM     10  C   LIG    1       -6.750  -1.082  -2.439  0.00  0.00    +0.040 A 
ATOM     11  C   LIG    1       -6.856  -1.985  -3.480  0.00  0.00    +0.000 A 
ATOM     12  C   LIG    1       -6.575  -3.321  -3.267  0.00  0.00    +0.010 A 
ATOM     13  C   LIG    1       -6.184  -3.754  -2.014  0.00  0.00    +0.000 A 
ATOM     14  C   LIG    1       -6.073  -2.850  -0.974  0.00  0.00    +0.010 A 
ENDBRANCH   8   9
ENDBRANCH   1   2
BRANCH   1  16
ATOM     15  C   LIG    1       -1.309  -0.718  -0.017  0.00  0.00    +0.580 C 
ATOM     16  N   LIG    1       -2.473  -0.047  -0.120  0.00  0.00    -0.720 N 
ATOM     17  H   LIG    1       -2.469   0.913  -0.263  0.00  0.00    +0.400 HD
ATOM     18  O   LIG    1       -1.312  -1.931   0.070  0.00  0.00    -0.530 OA
BRANCH  15  27
ATOM     19  C   LIG    1        1.216  -2.192  -0.003  0.00  0.00    +0.120 C 
ATOM     20  C   LIG    1        1.197  -0.685  -0.007  0.00  0.00    +0.060 A 
ATOM     21  C   LIG    1        2.360   0.019  -0.001  0.00  0.00    -0.090 A 
ATOM     22  C   LIG    1        2.318   1.426   0.001  0.00  0.00    +0.520 A 
ATOM     23  N   LIG    1        1.139   2.075  -0.002  0.00  0.00    -0.600 N 
ATOM     24  H   LIG    1        1.128   3.044  -0.000  0.00  0.00    +0.420 HD
ATOM     25  C   LIG    1       -0.024   1.398  -0.007  0.00  0.00    +0.360 A 
ATOM     26  O   LIG    1        3.359   2.063   0.006  0.00  0.00    -0.540 OA
ATOM     27  C   LIG    1       -0.032   0.018  -0.010  0.00  0.00    -0.240 A 
ENDBRANCH  15  27
ENDBRANCH   1  16
TORSDOF 4
