REMARK  Name = ZINCpe00000yeEhJ.2
REMARK                            x       y       z     vdW  Elec       q    Type
REMARK                         _______ _______ _______ _____ _____    ______ ____
ROOT
ATOM      1  C   LIG    1       -8.694   2.139   4.465  0.00  0.00    +0.290 C 
ENDROOT
BRANCH   1   6
ATOM      2  C   LIG    1       -4.350   1.354   2.167  0.00  0.00    +0.530 C 
ATOM      3  N   LIG    1       -5.267   1.831   3.032  0.00  0.00    -0.620 N 
ATOM      4  C   LIG    1       -4.988   2.705   4.181  0.00  0.00    +0.240 C 
ATOM      5  C   LIG    1       -6.332   2.970   4.893  0.00  0.00    +0.040 C 
ATOM      6  C   LIG    1       -7.208   1.774   4.436  0.00  0.00    -0.020 C 
ATOM      7  C   LIG    1       -6.717   1.569   2.979  0.00  0.00    +0.270 C 
ATOM      8  O   LIG    1       -4.696   0.639   1.251  0.00  0.00    -0.520 OA
BRANCH   2   9
ATOM      9  C   LIG    1       -2.896   1.710   2.339  0.00  0.00    +0.200 C 
BRANCH   9  10
ATOM     10  N   LIG    1       -2.107   1.071   1.277  0.00  0.00    -0.530 NA
ATOM     11  C   LIG    1       -2.127  -0.392   1.414  0.00  0.00    +0.200 C 
BRANCH  10  13
ATOM     12  C   LIG    1       -0.013   1.086   0.008  0.00  0.00    +0.030 C 
ATOM     13  C   LIG    1       -0.729   1.579   1.267  0.00  0.00    +0.150 C 
ENDBRANCH  10  13
ENDBRANCH   9  10
ENDBRANCH   2   9
ENDBRANCH   1   6
BRANCH   1  14
ATOM     14  N   LIG    1       -9.116   2.361   5.850  0.00  0.00    -0.710 N 
ATOM     15  H   LIG    1       -8.476   2.266   6.573  0.00  0.00    +0.410 HD
ATOM     16  C   LIG    1      -10.393   2.696   6.120  0.00  0.00    +0.610 C 
ATOM     17  O   LIG    1      -11.196   2.816   5.213  0.00  0.00    -0.540 OA
BRANCH  16  18
ATOM     18  C   LIG    1      -10.814   2.917   7.504  0.00  0.00    +0.070 A 
ATOM     19  N   LIG    1      -10.037   2.812   8.572  0.00  0.00    -0.400 NA
ATOM     20  C   LIG    1      -10.733   3.082   9.661  0.00  0.00    +0.180 A 
ATOM     21  C   LIG    1      -12.040   3.369   9.275  0.00  0.00    +0.030 A 
ATOM     22  C   LIG    1      -13.203   3.714   9.984  0.00  0.00    +0.070 A 
ATOM     23  C   LIG    1      -14.358   3.938   9.296  0.00  0.00    +0.030 A 
ATOM     24  C   LIG    1      -14.367   3.821   7.898  0.00  0.00    +0.030 A 
ATOM     25  C   LIG    1      -13.239   3.488   7.233  0.00  0.00    +0.240 A 
ATOM     26  N   LIG    1      -12.077   3.261   7.907  0.00  0.00    -0.320 N 
ENDBRANCH  16  18
ENDBRANCH   1  14
TORSDOF 6
