REMARK  Name = ZINCrg000000ot4m.0
REMARK                            x       y       z     vdW  Elec       q    Type
REMARK                         _______ _______ _______ _____ _____    ______ ____
ROOT
ATOM      1  C   LIG    1       -5.081   8.016   5.154  0.00  0.00    +0.150 A 
ATOM      2  C   LIG    1       -4.843   9.170   4.419  0.00  0.00    +0.010 A 
ATOM      3  C   LIG    1       -4.217   9.092   3.190  0.00  0.00    +0.060 A 
ATOM      4  C   LIG    1       -3.820   7.866   2.691  0.00  0.00    +0.020 A 
ATOM      5  C   LIG    1       -4.060   6.708   3.419  0.00  0.00    +0.190 A 
ATOM      6  C   LIG    1       -4.689   6.784   4.653  0.00  0.00    -0.020 A 
ENDROOT
BRANCH   1  11
ATOM      7  C   LIG    1       -6.610   7.604   8.445  0.00  0.00    +0.240 C 
ATOM      8  N   LIG    1       -6.785   9.031   8.122  0.00  0.00    -0.720 N 
ATOM      9  H   LIG    1       -7.214   9.702   8.675  0.00  0.00    +0.440 HD
ATOM     10  C   LIG    1       -6.227   9.223   6.913  0.00  0.00    +0.700 C 
ATOM     11  N   LIG    1       -5.716   8.097   6.401  0.00  0.00    -0.520 N 
ATOM     12  O   LIG    1       -6.194  10.298   6.347  0.00  0.00    -0.520 OA
ATOM     13  C   LIG    1       -5.883   7.052   7.235  0.00  0.00    +0.520 C 
ATOM     14  O   LIG    1       -5.526   5.907   7.055  0.00  0.00    -0.450 OA
BRANCH   7  16
ATOM     15  C   LIG    1       -8.624   7.406   9.910  0.00  0.00    +0.040 C 
ATOM     16  C   LIG    1       -7.968   6.921   8.616  0.00  0.00    +0.050 C 
ENDBRANCH   7  16
ENDBRANCH   1  11
BRANCH   5  17
ATOM     17  N   LIG    1       -3.662   5.466   2.911  0.00  0.00    -0.680 N 
ATOM     18  H   LIG    1       -3.370   4.765   3.515  0.00  0.00    +0.410 HD
ATOM     19  C   LIG    1       -3.685   5.243   1.581  0.00  0.00    +0.710 C 
ATOM     20  N   LIG    1       -3.202   4.088   1.083  0.00  0.00    -0.720 N 
ATOM     21  H   LIG    1       -2.838   3.416   1.681  0.00  0.00    +0.410 HD
ATOM     22  O   LIG    1       -4.142   6.085   0.832  0.00  0.00    -0.570 OA
BRANCH  20  23
ATOM     23  CA  LIG    1       -3.228   3.846  -0.361  0.00  0.00    +0.370 C 
BRANCH  23  24
ATOM     24  C   LIG    1       -2.147   2.860  -0.724  0.00  0.00    +0.180 A 
ATOM     25  N   LIG    1       -2.099   1.611  -0.349  0.00  0.00    -0.440 NA
ATOM     26  C   LIG    1       -0.997   1.039  -0.856  0.00  0.00    +0.140 A 
ATOM     27  C   LIG    1       -0.341   1.966  -1.579  0.00  0.00    +0.140 A 
ATOM     28  N   LIG    1       -1.070   3.122  -1.496  0.00  0.00    -0.560 N 
ATOM     29  H   LIG    1       -0.854   3.970  -1.914  0.00  0.00    +0.420 HD
ENDBRANCH  23  24
BRANCH  23  30
ATOM     30  C   LIG    1       -4.591   3.277  -0.759  0.00  0.00    +0.180 C 
BRANCH  30  31
ATOM     31  O   LIG    1       -4.766   1.993  -0.158  0.00  0.00    -0.540 OA
ATOM     32  H   LIG    1       -5.611   1.572  -0.368  0.00  0.00    +0.380 HD
ENDBRANCH  30  31
ENDBRANCH  23  30
ENDBRANCH  20  23
ENDBRANCH   5  17
TORSDOF 7
