REMARK  Name = ZINCvU0000000Cyd.0
REMARK                            x       y       z     vdW  Elec       q    Type
REMARK                         _______ _______ _______ _____ _____    ______ ____
ROOT
ATOM      1  N   LIG    1        2.776   3.796  -0.903  0.00  0.00    -0.480 N 
ATOM      2  C   LIG    1        3.151   4.092  -2.164  0.00  0.00    +0.530 C 
ATOM      3  O   LIG    1        4.317   4.314  -2.412  0.00  0.00    -0.470 OA
ENDROOT
BRANCH   2   4
ATOM      4  C   LIG    1        2.122   4.148  -3.263  0.00  0.00    -0.010 C 
ATOM      5  C   LIG    1        2.611   5.080  -4.374  0.00  0.00    +0.050 C 
ATOM      6  C   LIG    1        1.552   5.162  -5.476  0.00  0.00    +0.030 C 
ATOM      7  C   LIG    1        1.335   3.769  -6.075  0.00  0.00    +0.270 C 
ATOM      8  N   LIG    1        1.005   2.834  -4.990  0.00  0.00    -0.600 N 
ATOM      9  C   LIG    1       -0.107   2.076  -5.052  0.00  0.00    +0.560 C 
ATOM     10  O   LIG    1       -0.421   1.379  -4.106  0.00  0.00    -0.520 OA
ATOM     11  C   LIG    1        1.911   2.743  -3.837  0.00  0.00    +0.310 C 
BRANCH   9  12
ATOM     12  C   LIG    1       -0.945   2.091  -6.269  0.00  0.00    -0.130 A 
ATOM     13  C   LIG    1       -2.337   2.055  -6.162  0.00  0.00    +0.090 A 
ATOM     14  C   LIG    1       -3.113   2.076  -7.301  0.00  0.00    +0.030 A 
ATOM     15  C   LIG    1       -2.515   2.119  -8.550  0.00  0.00    -0.010 A 
ATOM     16  C   LIG    1       -1.135   2.148  -8.663  0.00  0.00    +0.020 A 
ATOM     17 CL   LIG    1       -3.500   2.137  -9.980  0.00  0.00    -0.060 Cl
ATOM     18  C   LIG    1       -0.348   2.134  -7.530  0.00  0.00    +0.060 A 
ENDBRANCH   9  12
ENDBRANCH   2   4
BRANCH   1  19
ATOM     19  C   LIG    1        1.452   3.419  -0.637  0.00  0.00    +0.130 A 
ATOM     20  C   LIG    1        0.428   4.349  -0.746  0.00  0.00    +0.040 A 
ATOM     21  C   LIG    1       -0.876   3.974  -0.488  0.00  0.00    +0.040 A 
ATOM     22  C   LIG    1       -1.160   2.673  -0.111  0.00  0.00    -0.020 A 
ATOM     23  C   LIG    1       -0.141   1.745   0.004  0.00  0.00    +0.050 A 
ATOM     24 CL   LIG    1       -2.799   2.206   0.220  0.00  0.00    -0.060 Cl
ATOM     25  C   LIG    1        1.164   2.115  -0.258  0.00  0.00    +0.050 A 
ENDBRANCH   1  19
BRANCH   1  30
ATOM     26  C   LIG    1        4.090   4.763   3.397  0.00  0.00    +0.060 C 
ATOM     27  C   LIG    1        4.491   3.723   2.349  0.00  0.00    +0.200 C 
ATOM     28  C   LIG    1        5.821   4.144   1.704  0.00  0.00    +0.060 C 
ATOM     29  S   LIG    1        5.397   4.308  -0.060  0.00  0.00    -0.090 S 
ATOM     30  C   LIG    1        3.696   3.865   0.127  0.00  0.00    +0.390 C 
ATOM     31  N   LIG    1        3.442   3.617   1.360  0.00  0.00    -0.550 NA
ENDBRANCH   1  30
TORSDOF 4
