REMARK  Name = ZINCpk00000y6ua8.0
REMARK                            x       y       z     vdW  Elec       q    Type
REMARK                         _______ _______ _______ _____ _____    ______ ____
ROOT
ATOM      1  C   LIG    1        1.220  -3.610  -1.745  0.00  0.00    -0.140 A 
ATOM      2  C   LIG    1        0.105  -3.139  -2.457  0.00  0.00    +0.160 A 
ATOM      3  C   LIG    1       -0.027  -3.494  -3.772  0.00  0.00    +0.010 A 
ATOM      4  C   LIG    1        0.940  -4.306  -4.362  0.00  0.00    +0.330 A 
ATOM      5  N   LIG    1        1.984  -4.737  -3.667  0.00  0.00    -0.510 NA
ATOM      6  C   LIG    1        2.152  -4.415  -2.401  0.00  0.00    +0.310 A 
ENDROOT
BRANCH   1  12
ATOM      7  C   LIG    1        0.644  -2.143   1.551  0.00  0.00    +0.190 A 
ATOM      8  C   LIG    1        1.718  -2.577   2.273  0.00  0.00    -0.130 A 
ATOM      9  C   LIG    1        2.672  -3.401   1.645  0.00  0.00    +0.530 A 
ATOM     10  N   LIG    1        2.496  -3.723   0.346  0.00  0.00    -0.630 N 
ATOM     11  H   LIG    1        3.142  -4.286  -0.108  0.00  0.00    +0.420 HD
ATOM     12  C   LIG    1        1.406  -3.253  -0.326  0.00  0.00    +0.450 A 
ATOM     13  O   LIG    1        3.641  -3.811   2.262  0.00  0.00    -0.530 OA
ATOM     14  N   LIG    1        0.515  -2.487   0.272  0.00  0.00    -0.520 NA
BRANCH   7  16
ATOM     15  C   LIG    1       -0.066   0.203   1.925  0.00  0.00    +0.040 C 
ATOM     16  C   LIG    1       -0.394  -1.265   2.202  0.00  0.00    +0.100 C 
ENDBRANCH   7  16
ENDBRANCH   1  12
BRANCH   4  17
ATOM     17  N   LIG    1        0.810  -4.667  -5.693  0.00  0.00    -0.480 N 
ATOM     18  C   LIG    1        1.943  -4.174  -6.486  0.00  0.00    +0.210 C 
ATOM     19  C   LIG    1        1.695  -4.463  -7.968  0.00  0.00    +0.000 C 
ATOM     20  C   LIG    1        1.526  -5.972  -8.167  0.00  0.00    +0.050 C 
ATOM     21  C   LIG    1        0.370  -6.468  -7.294  0.00  0.00    +0.050 C 
ATOM     22  C   LIG    1        0.657  -6.121  -5.831  0.00  0.00    +0.140 C 
ATOM     23  C   LIG    1       -0.505  -6.597  -4.957  0.00  0.00    +0.040 C 
BRANCH  19  24
ATOM     24  C   LIG    1        2.868  -3.977  -8.779  0.00  0.00    +0.520 C 
ATOM     25  O   LIG    1        3.507  -4.759  -9.450  0.00  0.00    -0.540 OA
ATOM     26  N   LIG    1        3.208  -2.673  -8.758  0.00  0.00    -0.860 N 
ATOM     27  H   LIG    1        3.963  -2.360  -9.280  0.00  0.00    +0.400 HD
ATOM     28  H   LIG    1        2.696  -2.047  -8.221  0.00  0.00    +0.400 HD
ENDBRANCH  19  24
ENDBRANCH   4  17
TORSDOF 4
