REMARK  Name = ZINCkj00000B7fUo.1
REMARK                            x       y       z     vdW  Elec       q    Type
REMARK                         _______ _______ _______ _____ _____    ______ ____
ROOT
ATOM      1  C   LIG    1       -0.016   1.321   0.009  0.00  0.00    +0.390 C 
ATOM      2  N   LIG    1        0.002  -0.004   0.002  0.00  0.00    -0.560 NA
ATOM      3  C   LIG    1        1.155  -0.670  -0.013  0.00  0.00    +0.520 C 
ATOM      4  C   LIG    1        2.349   0.044  -0.020  0.00  0.00    -0.160 C 
ATOM      5  C   LIG    1        2.291   1.435  -0.012  0.00  0.00    +0.510 C 
ATOM      6  N   LIG    1        1.102   2.033   0.003  0.00  0.00    -0.560 NA
ATOM      7  H   LIG    1        1.053   3.001   0.008  0.00  0.00    +0.440 HD
ENDROOT
BRANCH   5   8
ATOM      8  N   LIG    1        3.455   2.187  -0.019  0.00  0.00    -0.810 NA
ATOM      9  H   LIG    1        3.407   3.155  -0.013  0.00  0.00    +0.420 HD
ATOM     10  H   LIG    1        4.318   1.744  -0.029  0.00  0.00    +0.440 HD
ENDBRANCH   5   8
BRANCH   3  11
ATOM     11  N   LIG    1        1.165  -2.056  -0.020  0.00  0.00    -0.790 NA
ATOM     12  H   LIG    1        2.008  -2.535  -0.030  0.00  0.00    +0.430 HD
ATOM     13  H   LIG    1        0.328  -2.547  -0.014  0.00  0.00    +0.430 HD
ENDBRANCH   3  11
BRANCH   1  14
ATOM     14  S   LIG    1       -1.566   2.158   0.021  0.00  0.00    +0.170 S 
BRANCH  14  15
ATOM     15  C   LIG    1       -2.690   0.739   0.019  0.00  0.00    +0.120 C 
BRANCH  15  17
ATOM     16  N   LIG    1       -5.131   0.341   0.028  0.00  0.00    -0.590 N 
ATOM     17  C   LIG    1       -4.115   1.227   0.028  0.00  0.00    +0.530 C 
ATOM     18  O   LIG    1       -4.349   2.417   0.035  0.00  0.00    -0.520 OA
BRANCH  16  19
ATOM     19  C   LIG    1       -4.849  -1.097   0.019  0.00  0.00    +0.270 C 
BRANCH  19  21
ATOM     20  C   LIG    1       -4.449  -3.107   1.448  0.00  0.00    +0.030 C 
ATOM     21  C   LIG    1       -4.744  -1.605   1.458  0.00  0.00    -0.010 C 
ENDBRANCH  19  21
ENDBRANCH  16  19
BRANCH  16  22
ATOM     22  C   LIG    1       -6.517   0.815   0.037  0.00  0.00    +0.320 C 
BRANCH  22  23
ATOM     23  C   LIG    1       -7.006   0.988  -1.402  0.00  0.00    -0.080 C 
ATOM     24  C   LIG    1       -7.375   2.401  -1.858  0.00  0.00    +0.020 C 
ATOM     25  C   LIG    1       -8.474   1.366  -1.609  0.00  0.00    +0.030 C 
ENDBRANCH  22  23
ENDBRANCH  16  22
ENDBRANCH  15  17
ENDBRANCH  14  15
ENDBRANCH   1  14
TORSDOF 9
