REMARK  Name = ZINCtV00000L6kpT.0
REMARK                            x       y       z     vdW  Elec       q    Type
REMARK                         _______ _______ _______ _____ _____    ______ ____
ROOT
ATOM      1  C   LIG    1       -2.015   5.727   0.024  0.00  0.00    -0.170 A 
ATOM      2  C   LIG    1       -3.143   6.552   0.029  0.00  0.00    +0.080 A 
ATOM      3  C   LIG    1       -4.403   5.993   0.021  0.00  0.00    -0.030 A 
ATOM      4  C   LIG    1       -4.557   4.617   0.006  0.00  0.00    +0.080 A 
ATOM      5  C   LIG    1       -3.451   3.790  -0.004  0.00  0.00    -0.080 A 
ATOM      6  C   LIG    1       -2.176   4.335   0.009  0.00  0.00    +0.190 A 
ENDROOT
BRANCH   1   8
ATOM      7  O   LIG    1        0.315   5.597   0.029  0.00  0.00    -0.500 OA
ATOM      8  C   LIG    1       -0.664   6.318   0.033  0.00  0.00    +0.570 C 
ATOM      9  N   LIG    1       -0.514   7.657   0.047  0.00  0.00    -0.670 N 
ATOM     10  H   LIG    1       -1.292   8.233  -0.015  0.00  0.00    +0.410 HD
BRANCH   9  11
ATOM     11  C   LIG    1        0.765   8.218   0.151  0.00  0.00    +0.140 A 
ATOM     12  C   LIG    1        1.849   7.593  -0.447  0.00  0.00    +0.060 A 
ATOM     13  C   LIG    1        3.111   8.148  -0.344  0.00  0.00    +0.010 A 
ATOM     14  C   LIG    1        3.296   9.326   0.355  0.00  0.00    +0.030 A 
ATOM     15  C   LIG    1        2.220   9.956   0.954  0.00  0.00    -0.030 A 
ATOM     16  C   LIG    1        0.952   9.409   0.850  0.00  0.00    +0.080 A 
BRANCH  16  17
ATOM     17  O   LIG    1       -0.108  10.030   1.434  0.00  0.00    -0.320 OA
BRANCH  17  18
ATOM     18  C   LIG    1        0.158  11.246   2.134  0.00  0.00    +0.590 C 
ATOM     19  F   LIG    1        0.702  12.184   1.250  0.00  0.00    -0.200 F 
ATOM     20  F   LIG    1        1.066  11.000   3.170  0.00  0.00    -0.200 F 
ENDBRANCH  17  18
ENDBRANCH  16  17
ENDBRANCH   9  11
ENDBRANCH   1   8
BRANCH   6  21
ATOM     21  O   LIG    1       -1.088   3.523   0.003  0.00  0.00    -0.280 OA
BRANCH  21  22
ATOM     22  C   LIG    1       -1.329   2.115  -0.012  0.00  0.00    +0.280 C 
BRANCH  22  23
ATOM     23  C   LIG    1       -0.014   1.380  -0.017  0.00  0.00    -0.080 A 
ATOM     24  C   LIG    1        1.173   2.088  -0.013  0.00  0.00    +0.090 A 
ATOM     25  C   LIG    1        2.380   1.415  -0.023  0.00  0.00    +0.040 A 
ATOM     26  C   LIG    1        2.401   0.031  -0.037  0.00  0.00    -0.020 A 
ATOM     27  C   LIG    1        1.213  -0.678  -0.041  0.00  0.00    +0.050 A 
ATOM     28 CL   LIG    1        3.917  -0.814  -0.050  0.00  0.00    -0.050 Cl
ATOM     29  C   LIG    1        0.005  -0.004  -0.030  0.00  0.00    -0.020 A 
ATOM     30 CL   LIG    1       -1.486  -0.893  -0.036  0.00  0.00    -0.050 Cl
ENDBRANCH  22  23
ENDBRANCH  21  22
ENDBRANCH   6  21
TORSDOF 7
