REMARK  Name = ZINCpk00000y6uMF.0
REMARK                            x       y       z     vdW  Elec       q    Type
REMARK                         _______ _______ _______ _____ _____    ______ ____
ROOT
ATOM      1  C   LIG    1        1.878  -3.237   3.579  0.00  0.00    +0.110 C 
ATOM      2  C   LIG    1        3.257  -3.693   3.179  0.00  0.00    +0.510 C 
ATOM      3  N   LIG    1        3.430  -4.405   2.048  0.00  0.00    -0.610 N 
ATOM      4  C   LIG    1        2.273  -4.857   1.264  0.00  0.00    +0.290 C 
ATOM      5  C   LIG    1        2.447  -4.392  -0.185  0.00  0.00    +0.240 C 
ATOM      6  C   LIG    1        3.796  -4.882  -0.716  0.00  0.00    +0.060 C 
ATOM      7  C   LIG    1        4.925  -4.281   0.124  0.00  0.00    +0.040 C 
ATOM      8  C   LIG    1        4.779  -4.745   1.577  0.00  0.00    +0.220 C 
ATOM      9  O   LIG    1        4.212  -3.418   3.875  0.00  0.00    -0.520 OA
ENDROOT
BRANCH   5  10
ATOM     10  N   LIG    1        2.404  -2.928  -0.237  0.00  0.00    -0.710 N 
ATOM     11  H   LIG    1        3.229  -2.418  -0.218  0.00  0.00    +0.400 HD
ATOM     12  C   LIG    1        1.219  -2.291  -0.311  0.00  0.00    +0.580 C 
ATOM     13  O   LIG    1        0.185  -2.931  -0.335  0.00  0.00    -0.530 OA
BRANCH  12  14
ATOM     14  C   LIG    1        1.175  -0.817  -0.364  0.00  0.00    -0.160 A 
ATOM     15  C   LIG    1       -0.025  -0.172  -0.439  0.00  0.00    +0.340 A 
ATOM     16  N   LIG    1       -0.074   1.185  -0.487  0.00  0.00    -0.400 N 
ATOM     17  C   LIG    1       -1.095   2.085  -0.569  0.00  0.00    +0.360 A 
ATOM     18  N   LIG    1       -0.564   3.279  -0.581  0.00  0.00    -0.250 NA
ATOM     19  N   LIG    1        0.719   3.199  -0.521  0.00  0.00    -0.280 NA
ATOM     20  C   LIG    1        1.081   1.929  -0.462  0.00  0.00    +0.200 A 
ATOM     21  C   LIG    1        2.333   1.284  -0.385  0.00  0.00    +0.100 A 
ATOM     22  C   LIG    1        2.381  -0.071  -0.336  0.00  0.00    +0.080 A 
ENDBRANCH  12  14
ENDBRANCH   5  10
BRANCH   8  23
ATOM     23  C   LIG    1        5.820  -4.040   2.448  0.00  0.00    +0.470 C 
ATOM     24  F   LIG    1        5.533  -2.671   2.501  0.00  0.00    -0.170 F 
ATOM     25  F   LIG    1        7.093  -4.228   1.898  0.00  0.00    -0.190 F 
ATOM     26  F   LIG    1        5.787  -4.574   3.740  0.00  0.00    -0.160 F 
ENDBRANCH   8  23
TORSDOF 3
