REMARK  Name = ZINCAx0000000eBB.0
REMARK                            x       y       z     vdW  Elec       q    Type
REMARK                         _______ _______ _______ _____ _____    ______ ____
ROOT
ATOM      1  C   LIG    1       -5.182  -1.689   2.745  0.00  0.00    +0.520 C 
ATOM      2  O   LIG    1       -5.856  -2.018   1.790  0.00  0.00    -0.500 OA
ENDROOT
BRANCH   1   5
ATOM      3  C   LIG    1       -7.560  -2.328   5.580  0.00  0.00    +0.100 A 
ATOM      4  C   LIG    1       -7.045  -2.240   4.301  0.00  0.00    +0.040 A 
ATOM      5  C   LIG    1       -5.739  -1.780   4.107  0.00  0.00    -0.130 A 
ATOM      6  C   LIG    1       -4.964  -1.401   5.207  0.00  0.00    +0.100 A 
ATOM      7  C   LIG    1       -5.487  -1.486   6.480  0.00  0.00    -0.040 A 
ATOM      8  C   LIG    1       -6.781  -1.948   6.673  0.00  0.00    +0.140 A 
BRANCH   3  10
ATOM      9  C   LIG    1       -9.567  -3.153   4.608  0.00  0.00    +0.250 C 
ATOM     10  O   LIG    1       -8.828  -2.781   5.772  0.00  0.00    -0.300 OA
ENDBRANCH   3  10
BRANCH   8  11
ATOM     11  O   LIG    1       -7.291  -2.030   7.928  0.00  0.00    -0.270 OA
BRANCH  11  12
ATOM     12  C   LIG    1       -6.440  -1.625   9.002  0.00  0.00    +0.240 C 
BRANCH  12  13
ATOM     13  C   LIG    1       -7.170  -1.784  10.310  0.00  0.00    +0.520 C 
ATOM     14  N   LIG    1       -6.559  -1.460  11.467  0.00  0.00    -0.620 N 
ATOM     15  C   LIG    1       -5.177  -0.956  11.479  0.00  0.00    +0.250 C 
ATOM     16  C   LIG    1       -5.145   0.334  12.315  0.00  0.00    +0.220 C 
ATOM     17  O   LIG    1       -5.738   0.080  13.591  0.00  0.00    -0.380 OA
ATOM     18  C   LIG    1       -7.117  -0.291  13.531  0.00  0.00    +0.220 C 
ATOM     19  C   LIG    1       -7.253  -1.607  12.757  0.00  0.00    +0.270 C 
ATOM     20  O   LIG    1       -8.309  -2.203  10.322  0.00  0.00    -0.510 OA
ENDBRANCH  12  13
ENDBRANCH  11  12
ENDBRANCH   8  11
ENDBRANCH   1   5
BRANCH   1  21
ATOM     21  O   LIG    1       -3.925  -1.240   2.559  0.00  0.00    -0.330 OA
BRANCH  21  22
ATOM     22  C   LIG    1       -3.442  -1.177   1.191  0.00  0.00    +0.270 C 
BRANCH  22  23
ATOM     23  C   LIG    1       -2.029  -0.655   1.181  0.00  0.00    +0.520 C 
ATOM     24  N   LIG    1       -1.372  -0.511   0.012  0.00  0.00    -0.720 N 
ATOM     25  H   LIG    1       -1.810  -0.743  -0.822  0.00  0.00    +0.410 HD
ATOM     26  O   LIG    1       -1.481  -0.365   2.224  0.00  0.00    -0.510 OA
BRANCH  24  27
ATOM     27  C   LIG    1        0.002  -0.004   0.002  0.00  0.00    +0.350 C 
ATOM     28  C   LIG    1       -0.019   1.526   0.010  0.00  0.00    +0.060 C 
BRANCH  27  29
ATOM     29  C   LIG    1        0.707  -0.490  -1.238  0.00  0.00    +0.020 A 
ATOM     30  C   LIG    1        1.980  -0.908  -1.282  0.00  0.00    -0.020 A 
ATOM     31  C   LIG    1        2.238  -1.284  -2.678  0.00  0.00    -0.130 A 
ATOM     32  C   LIG    1        3.344  -1.784  -3.363  0.00  0.00    +0.060 A 
ATOM     33  C   LIG    1        3.250  -2.036  -4.714  0.00  0.00    +0.000 A 
ATOM     34  C   LIG    1        2.062  -1.797  -5.389  0.00  0.00    +0.050 A 
ATOM     35  C   LIG    1        0.961  -1.303  -4.723  0.00  0.00    +0.020 A 
ATOM     36  C   LIG    1        1.035  -1.041  -3.361  0.00  0.00    +0.060 A 
ATOM     37  O   LIG    1        0.150  -0.572  -2.458  0.00  0.00    -0.190 OA
ENDBRANCH  27  29
ENDBRANCH  24  27
ENDBRANCH  22  23
ENDBRANCH  21  22
ENDBRANCH   1  21
TORSDOF 10
