REMARK  Name = ZINCvU00000005bO.0
REMARK                            x       y       z     vdW  Elec       q    Type
REMARK                         _______ _______ _______ _____ _____    ______ ____
ROOT
ATOM      1  C   LIG    1       -4.572   3.173  -4.840  0.00  0.00    +0.240 C 
ATOM      2  C   LIG    1       -3.082   3.221  -4.496  0.00  0.00    +0.000 C 
ATOM      3  C   LIG    1       -2.712   4.631  -4.029  0.00  0.00    +0.040 C 
ATOM      4  C   LIG    1       -3.534   4.990  -2.790  0.00  0.00    +0.250 C 
ATOM      5  C   LIG    1       -5.024   4.941  -3.134  0.00  0.00    +0.020 C 
ATOM      6  C   LIG    1       -5.394   3.532  -3.600  0.00  0.00    +0.010 C 
ENDROOT
BRANCH   1   8
ATOM      7  C   LIG    1       -5.431   1.633  -6.521  0.00  0.00    +0.520 C 
ATOM      8  N   LIG    1       -4.927   1.823  -5.286  0.00  0.00    -0.610 N 
ATOM      9  C   LIG    1       -4.733   0.681  -4.390  0.00  0.00    +0.280 C 
ATOM     10  O   LIG    1       -5.495   2.561  -7.300  0.00  0.00    -0.540 OA
BRANCH   7  11
ATOM     11  C   LIG    1       -5.915   0.267  -6.935  0.00  0.00    -0.020 C 
BRANCH  11  12
ATOM     12  C   LIG    1       -5.641   0.059  -8.426  0.00  0.00    +0.040 C 
BRANCH  12  14
ATOM     13  C   LIG    1       -3.866   0.031 -10.184  0.00  0.00    +0.000 C 
ATOM     14  C   LIG    1       -4.133   0.121  -8.681  0.00  0.00    -0.010 C 
ENDBRANCH  12  14
ENDBRANCH  11  12
BRANCH  11  15
ATOM     15  C   LIG    1       -7.419   0.158  -6.673  0.00  0.00    +0.030 C 
BRANCH  15  16
ATOM     16  C   LIG    1       -7.868  -1.290  -6.877  0.00  0.00    -0.020 C 
ATOM     17  C   LIG    1       -7.866  -1.638  -8.380  0.00  0.00    +0.020 C 
ATOM     18  C   LIG    1       -9.101  -2.556  -8.559  0.00  0.00    +0.010 C 
ATOM     19  C   LIG    1      -10.143  -1.915  -7.610  0.00  0.00    -0.010 C 
ATOM     20  C   LIG    1       -9.316  -1.467  -6.387  0.00  0.00    +0.000 C 
ENDBRANCH  15  16
ENDBRANCH  11  15
ENDBRANCH   7  11
ENDBRANCH   1   8
BRANCH   4  21
ATOM     21  N   LIG    1       -3.248   4.031  -1.720  0.00  0.00    -0.690 N 
ATOM     22  H   LIG    1       -2.932   3.140  -1.939  0.00  0.00    +0.410 HD
BRANCH  21  23
ATOM     23  C   LIG    1       -3.430   4.396  -0.393  0.00  0.00    +0.470 A 
ATOM     24  N   LIG    1       -3.861   5.612  -0.085  0.00  0.00    -0.570 NA
ATOM     25  C   LIG    1       -4.034   5.954   1.177  0.00  0.00    +0.540 A 
ATOM     26  N   LIG    1       -3.787   5.125   2.164  0.00  0.00    -0.560 NA
ATOM     27  C   LIG    1       -3.343   3.882   1.945  0.00  0.00    +0.210 A 
ATOM     28  C   LIG    1       -3.076   3.030   3.148  0.00  0.00    +0.110 C 
ATOM     29  C   LIG    1       -3.095   1.540   2.853  0.00  0.00    +0.050 C 
ATOM     30  C   LIG    1       -2.015   1.220   1.809  0.00  0.00    +0.110 C 
ATOM     31  S   LIG    1       -2.595   1.869   0.214  0.00  0.00    -0.120 S 
ATOM     32  C   LIG    1       -3.159   3.483   0.641  0.00  0.00    -0.250 A 
ENDBRANCH  21  23
ENDBRANCH   4  21
TORSDOF 8
