REMARK  Name = ZINCqH0000032UlP.0
REMARK                            x       y       z     vdW  Elec       q    Type
REMARK                         _______ _______ _______ _____ _____    ______ ____
ROOT
ATOM      1  C   LIG    1        8.435  -0.771  -0.260  0.00  0.00    -0.660 A 
ATOM      2  C   LIG    1        8.396  -2.149  -0.362  0.00  0.00    +0.100 A 
ATOM      3  C   LIG    1        7.182  -2.812  -0.360  0.00  0.00    +0.020 A 
ATOM      4  C   LIG    1        6.005  -2.099  -0.250  0.00  0.00    +0.050 A 
ATOM      5  C   LIG    1        6.040  -0.714  -0.152  0.00  0.00    +0.120 A 
ATOM      6  C   LIG    1        7.261  -0.051  -0.155  0.00  0.00    +0.140 A 
ENDROOT
BRANCH   5   7
ATOM      7  N   LIG    1        4.850   0.012  -0.046  0.00  0.00    -0.670 N 
ATOM      8  H   LIG    1        4.098  -0.358   0.443  0.00  0.00    +0.410 HD
ATOM      9  C   LIG    1        4.746   1.226  -0.623  0.00  0.00    +0.560 C 
ATOM     10  O   LIG    1        5.713   1.726  -1.163  0.00  0.00    -0.500 OA
BRANCH   9  11
ATOM     11  C   LIG    1        3.459   1.947  -0.598  0.00  0.00    -0.180 A 
ATOM     12  C   LIG    1        2.346   1.373   0.023  0.00  0.00    +0.110 A 
ATOM     13  C   LIG    1        1.147   2.050   0.044  0.00  0.00    -0.060 A 
ATOM     14  C   LIG    1        1.041   3.301  -0.551  0.00  0.00    +0.190 A 
ATOM     15  C   LIG    1        2.146   3.876  -1.171  0.00  0.00    -0.140 A 
ATOM     16 BR   LIG    1        1.996   5.579  -1.979  0.00  0.00    -0.020 Br
ATOM     17  C   LIG    1        3.349   3.205  -1.196  0.00  0.00    +0.170 A 
BRANCH  14  18
ATOM     18  O   LIG    1       -0.141   3.967  -0.522  0.00  0.00    -0.300 OA
ATOM     19  C   LIG    1       -1.235   3.319   0.130  0.00  0.00    +0.250 C 
ENDBRANCH  14  18
ENDBRANCH   9  11
ENDBRANCH   5   7
BRANCH   1  20
ATOM     20  S   LIG    1        9.985   0.068  -0.263  0.00  0.00    +2.690 S 
ATOM     21  O   LIG    1        9.721   1.395  -0.698  0.00  0.00    -0.950 OA
ATOM     22  O   LIG    1       10.907  -0.795  -0.914  0.00  0.00    -0.950 OA
BRANCH  20  23
ATOM     23  N   LIG    1       10.484   0.183   1.312  0.00  0.00    -1.120 NA
ATOM     24  H   LIG    1       10.562   1.053   1.733  0.00  0.00    +0.420 HD
BRANCH  23  25
ATOM     25  C   LIG    1       10.806  -1.029   2.068  0.00  0.00    +0.260 C 
BRANCH  25  26
ATOM     26  C   LIG    1       11.581  -0.651   3.332  0.00  0.00    +0.010 C 
BRANCH  26  28
ATOM     27  C   LIG    1       12.693  -1.539   5.386  0.00  0.00    +0.020 C 
ATOM     28  C   LIG    1       11.918  -1.917   4.122  0.00  0.00    +0.010 C 
ENDBRANCH  26  28
ENDBRANCH  25  26
ENDBRANCH  23  25
ENDBRANCH  20  23
ENDBRANCH   1  20
TORSDOF 8
