REMARK  Name = ZINCrg00000J2Pjl.0
REMARK                            x       y       z     vdW  Elec       q    Type
REMARK                         _______ _______ _______ _____ _____    ______ ____
ROOT
ATOM      1  N   LIG    1        6.255   0.795  -0.656  0.00  0.00    -0.740 N 
ATOM      2  H   LIG    1        7.207   0.814  -0.843  0.00  0.00    +0.400 HD
ATOM      3  C   LIG    1        5.370   0.783  -1.673  0.00  0.00    +0.710 C 
ATOM      4  N   LIG    1        5.801   0.901  -2.944  0.00  0.00    -0.630 N 
ATOM      5  C   LIG    1        4.849   0.994  -4.062  0.00  0.00    +0.280 C 
ATOM      6  C   LIG    1        5.237   2.207  -4.923  0.00  0.00    +0.230 C 
ATOM      7  O   LIG    1        6.619   2.109  -5.274  0.00  0.00    -0.370 OA
ATOM      8  C   LIG    1        7.511   2.144  -4.156  0.00  0.00    +0.220 C 
ATOM      9  C   LIG    1        7.239   0.934  -3.256  0.00  0.00    +0.280 C 
ATOM     10  O   LIG    1        4.181   0.667  -1.442  0.00  0.00    -0.580 OA
ENDROOT
BRANCH   8  11
ATOM     11  C   LIG    1        8.935   2.097  -4.647  0.00  0.00    +0.200 A 
ATOM     12  C   LIG    1        9.211   2.140  -6.004  0.00  0.00    -0.070 A 
ATOM     13  C   LIG    1       10.535   2.095  -6.413  0.00  0.00    +0.340 A 
ATOM     14  N   LIG    1       11.489   2.012  -5.502  0.00  0.00    -0.550 NA
ATOM     15  C   LIG    1       11.191   1.972  -4.211  0.00  0.00    +0.490 A 
ATOM     16  N   LIG    1        9.937   2.019  -3.787  0.00  0.00    -0.520 NA
BRANCH  15  17
ATOM     17  N   LIG    1       12.215   1.885  -3.284  0.00  0.00    -0.450 N 
ATOM     18  C   LIG    1       12.122   0.624  -2.505  0.00  0.00    +0.210 C 
ATOM     19  C   LIG    1       13.555   0.448  -1.943  0.00  0.00    +0.030 C 
ATOM     20  C   LIG    1       14.446   0.943  -3.105  0.00  0.00    +0.020 C 
ATOM     21  C   LIG    1       13.534   1.850  -3.952  0.00  0.00    +0.220 C 
ENDBRANCH  15  17
ENDBRANCH   8  11
BRANCH   1  22
ATOM     22  C   LIG    1        5.780   0.780   0.729  0.00  0.00    +0.370 C 
BRANCH  22  26
ATOM     23  C   LIG    1        9.493   2.360   3.702  0.00  0.00    +0.360 C 
ATOM     24  N   LIG    1        8.576   1.492   2.959  0.00  0.00    -0.370 N 
ATOM     25  C   LIG    1        7.564   1.901   2.165  0.00  0.00    +0.260 A 
ATOM     26  C   LIG    1        6.961   0.797   1.665  0.00  0.00    -0.270 A 
ATOM     27  C   LIG    1        7.627  -0.324   2.171  0.00  0.00    +0.250 A 
ATOM     28  N   LIG    1        8.595   0.092   2.947  0.00  0.00    -0.290 NA
ENDBRANCH  22  26
ENDBRANCH   1  22
TORSDOF 4
