REMARK  Name = ZINCpe00000R8Rtp.0
REMARK                            x       y       z     vdW  Elec       q    Type
REMARK                         _______ _______ _______ _____ _____    ______ ____
ROOT
ATOM      1  N   LIG    1       -4.719   8.188  -0.396  0.00  0.00    -0.570 N 
ATOM      2  C   LIG    1       -5.298   8.357   0.944  0.00  0.00    +0.290 C 
ATOM      3  C   LIG    1       -5.535   6.973   1.557  0.00  0.00    +0.020 C 
ATOM      4  C   LIG    1       -4.227   6.178   1.533  0.00  0.00    +0.010 C 
ATOM      5  C   LIG    1       -3.768   5.993   0.085  0.00  0.00    +0.220 C 
ATOM      6  C   LIG    1       -3.510   7.365  -0.545  0.00  0.00    +0.300 C 
ENDROOT
BRANCH   1  12
ATOM      7  C   LIG    1       -4.623   9.340  -5.182  0.00  0.00    +0.320 C 
ATOM      8  N   LIG    1       -5.245   9.355  -3.856  0.00  0.00    -0.480 N 
ATOM      9  C   LIG    1       -6.442   9.978  -3.662  0.00  0.00    +0.160 A 
ATOM     10  C   LIG    1       -7.024   9.997  -2.444  0.00  0.00    +0.190 A 
ATOM     11  N   LIG    1       -6.460   9.410  -1.389  0.00  0.00    -0.500 NA
ATOM     12  C   LIG    1       -5.303   8.794  -1.500  0.00  0.00    +0.350 A 
ATOM     13  C   LIG    1       -4.640   8.752  -2.809  0.00  0.00    +0.480 A 
ATOM     14  O   LIG    1       -3.569   8.186  -2.948  0.00  0.00    -0.530 OA
ENDBRANCH   1  12
BRANCH   5  15
ATOM     15  N   LIG    1       -2.533   5.205   0.061  0.00  0.00    -0.700 N 
ATOM     16  H   LIG    1       -1.673   5.652   0.033  0.00  0.00    +0.410 HD
ATOM     17  C   LIG    1       -2.592   3.858   0.079  0.00  0.00    +0.580 C 
ATOM     18  O   LIG    1       -3.670   3.298   0.114  0.00  0.00    -0.510 OA
BRANCH  17  19
ATOM     19  C   LIG    1       -1.346   3.063   0.054  0.00  0.00    +0.030 A 
ATOM     20  N   LIG    1       -0.171   3.681   0.015  0.00  0.00    -0.400 NA
ATOM     21  C   LIG    1        0.960   3.012  -0.007  0.00  0.00    +0.260 A 
ATOM     22  C   LIG    1        0.969   1.623   0.008  0.00  0.00    +0.110 A 
ATOM     23  C   LIG    1       -0.236   0.935   0.049  0.00  0.00    +0.010 A 
ATOM     24  F   LIG    1        2.139   0.948  -0.016  0.00  0.00    -0.110 F 
ATOM     25  C   LIG    1       -1.415   1.668   0.067  0.00  0.00    +0.150 A 
ATOM     26  F   LIG    1       -2.611   1.041   0.101  0.00  0.00    -0.090 F 
ENDBRANCH  17  19
ENDBRANCH   5  15
TORSDOF 3
