REMARK  Name = ZINCrH000004qP8p.0
REMARK                            x       y       z     vdW  Elec       q    Type
REMARK                         _______ _______ _______ _____ _____    ______ ____
ROOT
ATOM      1  N   LIG    1       -0.400  -1.446  -0.074  0.00  0.00    -0.740 N 
ATOM      2  H   LIG    1       -0.221  -2.399  -0.074  0.00  0.00    +0.400 HD
ENDROOT
BRANCH   1   6
ATOM      3  C   LIG    1        4.426  -0.496  -0.473  0.00  0.00    +0.110 C 
ATOM      4  C   LIG    1        2.989  -0.054  -0.366  0.00  0.00    -0.050 A 
ATOM      5  C   LIG    1        1.974  -0.989  -0.271  0.00  0.00    -0.020 A 
ATOM      6  C   LIG    1        0.660  -0.535  -0.173  0.00  0.00    +0.170 A 
ATOM      7  C   LIG    1        0.414   0.830  -0.175  0.00  0.00    +0.180 A 
ATOM      8  N   LIG    1        1.407   1.694  -0.267  0.00  0.00    -0.470 NA
ATOM      9  C   LIG    1        2.667   1.299  -0.361  0.00  0.00    +0.230 A 
BRANCH   9  10
ATOM     10  N   LIG    1        3.681   2.249  -0.456  0.00  0.00    -0.470 N 
ATOM     11  C   LIG    1        3.585   2.997  -1.716  0.00  0.00    +0.170 C 
ATOM     12  C   LIG    1        4.793   3.926  -1.853  0.00  0.00    +0.020 C 
ATOM     13  C   LIG    1        4.826   4.892  -0.665  0.00  0.00    +0.000 C 
ATOM     14  C   LIG    1        4.877   4.086   0.636  0.00  0.00    +0.030 C 
ATOM     15  C   LIG    1        3.666   3.152   0.701  0.00  0.00    +0.140 C 
ATOM     16  C   LIG    1        3.724   2.331   1.990  0.00  0.00    +0.030 C 
ENDBRANCH   9  10
ENDBRANCH   1   6
BRANCH   1  17
ATOM     17  C   LIG    1       -1.777  -0.958   0.028  0.00  0.00    +0.310 C 
BRANCH  17  18
ATOM     18  C   LIG    1       -2.719  -2.131   0.121  0.00  0.00    -0.100 A 
ATOM     19  C   LIG    1       -3.055  -2.649   1.358  0.00  0.00    +0.050 A 
ATOM     20  C   LIG    1       -3.919  -3.725   1.453  0.00  0.00    +0.030 A 
ATOM     21  C   LIG    1       -4.450  -4.285   0.305  0.00  0.00    +0.090 A 
ATOM     22  O   LIG    1       -5.302  -5.342   0.379  0.00  0.00    -0.300 OA
ATOM     23  C   LIG    1       -6.322  -5.417  -0.621  0.00  0.00    +0.300 C 
ATOM     24  C   LIG    1       -5.718  -5.166  -1.980  0.00  0.00    +0.490 C 
ATOM     25  N   LIG    1       -4.655  -4.342  -2.099  0.00  0.00    -0.660 N 
ATOM     26  H   LIG    1       -4.273  -4.154  -2.970  0.00  0.00    +0.420 HD
ATOM     27  O   LIG    1       -6.186  -5.702  -2.962  0.00  0.00    -0.510 OA
ATOM     28  C   LIG    1       -4.111  -3.764  -0.943  0.00  0.00    +0.090 A 
ATOM     29  C   LIG    1       -3.250  -2.683  -1.031  0.00  0.00    +0.040 A 
ENDBRANCH  17  18
ENDBRANCH   1  17
TORSDOF 4
