REMARK  Name = ZINCqH0000000ev4.0
REMARK                            x       y       z     vdW  Elec       q    Type
REMARK                         _______ _______ _______ _____ _____    ______ ____
ROOT
ATOM      1  C   LIG    1        2.261   1.185   1.787  0.00  0.00    +0.520 C 
ATOM      2  N   LIG    1        3.569   1.441   1.992  0.00  0.00    -0.690 N 
ATOM      3  H   LIG    1        4.067   1.966   1.346  0.00  0.00    +0.410 HD
ATOM      4  C   LIG    1        4.183   0.969   3.095  0.00  0.00    +0.690 C 
ATOM      5  N   LIG    1        5.490   1.225   3.300  0.00  0.00    -0.680 N 
ATOM      6  H   LIG    1        6.006   1.688   2.622  0.00  0.00    +0.410 HD
ATOM      7  O   LIG    1        3.558   0.312   3.904  0.00  0.00    -0.510 OA
ATOM      8  O   LIG    1        1.638   0.529   2.594  0.00  0.00    -0.440 OA
ENDROOT
BRANCH   5   9
ATOM      9  C   LIG    1        6.104   0.822   4.494  0.00  0.00    +0.120 A 
ATOM     10  C   LIG    1        7.099   1.606   5.062  0.00  0.00    +0.030 A 
ATOM     11  C   LIG    1        7.700   1.211   6.241  0.00  0.00    -0.060 A 
ATOM     12  C   LIG    1        7.317   0.026   6.852  0.00  0.00    +0.120 A 
ATOM     13  C   LIG    1        6.327  -0.761   6.282  0.00  0.00    +0.010 A 
ATOM     14  C   LIG    1        5.722  -0.364   5.105  0.00  0.00    +0.070 A 
BRANCH  12  15
ATOM     15  O   LIG    1        7.913  -0.365   8.010  0.00  0.00    -0.320 OA
ATOM     16  C   LIG    1        8.925   0.493   8.541  0.00  0.00    +0.250 C 
ENDBRANCH  12  15
ENDBRANCH   5   9
BRANCH   1  17
ATOM     17  C   LIG    1        1.575   1.713   0.554  0.00  0.00    +0.230 C 
BRANCH  17  18
ATOM     18  N   LIG    1        0.165   1.300   0.564  0.00  0.00    -0.510 NA
BRANCH  18  19
ATOM     19  C   LIG    1        0.042  -0.158   0.434  0.00  0.00    +0.250 C 
BRANCH  19  21
ATOM     20  C   LIG    1        1.526  -1.488  -0.976  0.00  0.00    +0.030 C 
ATOM     21  C   LIG    1        0.575  -0.590  -0.907  0.00  0.00    -0.100 C 
ENDBRANCH  19  21
ENDBRANCH  18  19
BRANCH  18  22
ATOM     22  C   LIG    1       -0.592   1.988  -0.491  0.00  0.00    +0.280 C 
BRANCH  22  23
ATOM     23  C   LIG    1       -2.068   1.847  -0.222  0.00  0.00    -0.170 A 
ATOM     24  C   LIG    1       -2.819   2.736   0.430  0.00  0.00    +0.040 A 
ATOM     25  C   LIG    1       -4.154   2.392   0.556  0.00  0.00    +0.030 A 
ATOM     26  C   LIG    1       -4.487   1.222   0.006  0.00  0.00    -0.150 A 
ATOM     27 CL   LIG    1       -6.080   0.533   0.007  0.00  0.00    -0.010 Cl
ATOM     28  S   LIG    1       -3.066   0.490  -0.728  0.00  0.00    +0.150 S 
ENDBRANCH  22  23
ENDBRANCH  18  22
ENDBRANCH  17  18
ENDBRANCH   1  17
TORSDOF 8
