REMARK  Name = ZINCqH0000009BQg.0
REMARK                            x       y       z     vdW  Elec       q    Type
REMARK                         _______ _______ _______ _____ _____    ______ ____
ROOT
ATOM      1  C   LIG    1       -1.040   4.549   3.245  0.00  0.00    +0.040 C 
ENDROOT
BRANCH   1   4
ATOM      2  N   LIG    1       -1.035   5.844   5.353  0.00  0.00    -0.730 N 
ATOM      3  H   LIG    1       -0.108   6.068   5.176  0.00  0.00    +0.400 HD
ATOM      4  C   LIG    1       -1.718   5.069   4.487  0.00  0.00    +0.520 C 
ATOM      5  O   LIG    1       -2.877   4.789   4.708  0.00  0.00    -0.530 OA
BRANCH   2   7
ATOM      6  C   LIG    1       -2.448   7.638   6.228  0.00  0.00    +0.040 C 
ATOM      7  C   LIG    1       -1.694   6.350   6.560  0.00  0.00    +0.280 C 
BRANCH   7   8
ATOM      8  C   LIG    1       -0.657   6.633   7.617  0.00  0.00    -0.080 A 
ATOM      9  C   LIG    1        0.552   7.202   7.264  0.00  0.00    +0.020 A 
ATOM     10  C   LIG    1        1.501   7.467   8.233  0.00  0.00    +0.040 A 
ATOM     11  C   LIG    1        1.246   7.152   9.554  0.00  0.00    +0.030 A 
ATOM     12  C   LIG    1        0.038   6.577   9.908  0.00  0.00    -0.030 A 
ATOM     13 CL   LIG    1       -0.283   6.181  11.567  0.00  0.00    -0.060 Cl
ATOM     14  C   LIG    1       -0.913   6.317   8.938  0.00  0.00    +0.040 A 
ENDBRANCH   7   8
ENDBRANCH   2   7
ENDBRANCH   1   4
BRANCH   1  15
ATOM     15  C   LIG    1       -2.029   3.702   2.442  0.00  0.00    +0.330 C 
BRANCH  15  16
ATOM     16  N   LIG    1       -1.371   3.197   1.235  0.00  0.00    -0.550 N 
ATOM     17  C   LIG    1       -0.723   2.011   1.252  0.00  0.00    +0.490 C 
ATOM     18  C   LIG    1       -0.019   1.526   0.010  0.00  0.00    +0.180 C 
ATOM     19  O   LIG    1       -0.709   1.999  -1.149  0.00  0.00    -0.300 OA
ATOM     20  C   LIG    1       -1.064   3.311  -1.156  0.00  0.00    +0.080 A 
ATOM     21  C   LIG    1       -1.092   4.029  -2.338  0.00  0.00    +0.030 A 
ATOM     22  C   LIG    1       -1.456   5.364  -2.326  0.00  0.00    +0.030 A 
ATOM     23  C   LIG    1       -1.791   5.983  -1.137  0.00  0.00    +0.020 A 
ATOM     24  C   LIG    1       -1.765   5.272   0.050  0.00  0.00    +0.000 A 
ATOM     25  C   LIG    1        0.002  -0.004   0.002  0.00  0.00    +0.100 C 
ATOM     26  O   LIG    1       -0.708   1.340   2.262  0.00  0.00    -0.500 OA
ATOM     27  C   LIG    1       -1.403   3.936   0.044  0.00  0.00    +0.090 A 
ENDBRANCH  15  16
ENDBRANCH   1  15
TORSDOF 5
