REMARK  Name = ZINCrg00000fSouh.0
REMARK                            x       y       z     vdW  Elec       q    Type
REMARK                         _______ _______ _______ _____ _____    ______ ____
ROOT
ATOM      1  O   LIG    1       -2.482   5.313   0.992  0.00  0.00    -0.310 OA
ENDROOT
BRANCH   1   2
ATOM      2  C   LIG    1       -3.572   6.092   1.139  0.00  0.00    +0.550 C 
ATOM      3  O   LIG    1       -4.673   5.651   0.878  0.00  0.00    -0.490 OA
BRANCH   2   4
ATOM      4  C   LIG    1       -3.428   7.480   1.618  0.00  0.00    +0.050 A 
ATOM      5  N   LIG    1       -2.242   7.964   1.902  0.00  0.00    -0.150 NA
ATOM      6  N   LIG    1       -2.032   9.154   2.321  0.00  0.00    -0.360 N 
ATOM      7  C   LIG    1       -3.014  10.058   2.521  0.00  0.00    +0.510 A 
ATOM      8  C   LIG    1       -4.401   9.658   2.244  0.00  0.00    -0.140 A 
ATOM      9  C   LIG    1       -5.483  10.514   2.417  0.00  0.00    +0.090 A 
ATOM     10  C   LIG    1       -6.755  10.062   2.134  0.00  0.00    +0.030 A 
ATOM     11  C   LIG    1       -6.962   8.767   1.680  0.00  0.00    +0.060 A 
ATOM     12  C   LIG    1       -5.902   7.902   1.502  0.00  0.00    +0.070 A 
ATOM     13  O   LIG    1       -2.757  11.178   2.922  0.00  0.00    -0.490 OA
ATOM     14  C   LIG    1       -0.652   9.558   2.599  0.00  0.00    +0.370 C 
ATOM     15  C   LIG    1       -4.612   8.340   1.776  0.00  0.00    -0.030 A 
ENDBRANCH   2   4
ENDBRANCH   1   2
BRANCH   1  16
ATOM     16  C   LIG    1       -2.699   3.958   0.517  0.00  0.00    +0.270 C 
BRANCH  16  19
ATOM     17  N   LIG    1       -1.332   1.965  -0.006  0.00  0.00    -0.650 N 
ATOM     18  H   LIG    1       -2.143   1.524  -0.304  0.00  0.00    +0.410 HD
ATOM     19  C   LIG    1       -1.376   3.244   0.416  0.00  0.00    +0.510 C 
ATOM     20  O   LIG    1       -0.351   3.820   0.714  0.00  0.00    -0.490 OA
BRANCH  17  28
ATOM     21  C   LIG    1        0.895   2.339  -2.152  0.00  0.00    +0.160 C 
ATOM     22  C   LIG    1        0.915   1.410  -0.966  0.00  0.00    +0.090 A 
ATOM     23  N   LIG    1        1.888   0.596  -0.646  0.00  0.00    -0.290 NA
ATOM     24  N   LIG    1        1.523  -0.093   0.518  0.00  0.00    -0.370 N 
ATOM     25  C   LIG    1        0.289   0.337   0.888  0.00  0.00    +0.100 A 
ATOM     26  C   LIG    1       -0.496  -0.134   2.085  0.00  0.00    +0.150 C 
ATOM     27  C   LIG    1        2.329  -1.100   1.212  0.00  0.00    +0.360 C 
ATOM     28  C   LIG    1       -0.108   1.269  -0.016  0.00  0.00    -0.020 A 
ENDBRANCH  17  28
ENDBRANCH  16  19
ENDBRANCH   1  16
TORSDOF 5
