REMARK  Name = ZINCpe00000VSJjK.0
REMARK                            x       y       z     vdW  Elec       q    Type
REMARK                         _______ _______ _______ _____ _____    ______ ____
ROOT
ATOM      1  N   LIG    1        1.143   1.901   0.001  0.00  0.00    -0.730 N 
ATOM      2  H   LIG    1        1.130   2.871   0.007  0.00  0.00    +0.400 HD
ATOM      3  C   LIG    1       -0.014   1.212   0.009  0.00  0.00    +0.700 C 
ATOM      4  N   LIG    1       -1.191   1.869   0.018  0.00  0.00    -0.650 N 
ATOM      5  H   LIG    1       -1.204   2.839   0.023  0.00  0.00    +0.420 HD
ATOM      6  O   LIG    1        0.002  -0.004   0.002  0.00  0.00    -0.520 OA
ENDROOT
BRANCH   4   7
ATOM      7  C   LIG    1       -2.384   1.159   0.020  0.00  0.00    +0.600 A 
ATOM      8  N   LIG    1       -2.347  -0.165   0.007  0.00  0.00    -0.520 NA
ATOM      9  C   LIG    1       -3.464  -0.876   0.014  0.00  0.00    +0.390 A 
ATOM     10  C   LIG    1       -4.681  -0.222   0.023  0.00  0.00    -0.110 A 
ATOM     11  C   LIG    1       -4.688   1.172   0.031  0.00  0.00    +0.400 A 
ATOM     12  N   LIG    1       -3.530   1.822   0.029  0.00  0.00    -0.610 NA
BRANCH  11  13
ATOM     13  O   LIG    1       -5.858   1.854   0.040  0.00  0.00    -0.280 OA
BRANCH  13  14
ATOM     14  C   LIG    1       -5.778   3.281   0.046  0.00  0.00    +0.180 C 
ATOM     15  C   LIG    1       -5.756   3.797  -1.394  0.00  0.00    +0.090 C 
BRANCH  14  16
ATOM     16  C   LIG    1       -6.993   3.857   0.776  0.00  0.00    +0.460 C 
ATOM     17  F   LIG    1       -8.163   3.459   0.120  0.00  0.00    -0.170 F 
ATOM     18  F   LIG    1       -6.915   5.253   0.783  0.00  0.00    -0.170 F 
ATOM     19  F   LIG    1       -7.013   3.384   2.093  0.00  0.00    -0.170 F 
ENDBRANCH  14  16
ENDBRANCH  13  14
ENDBRANCH  11  13
ENDBRANCH   4   7
BRANCH   1  20
ATOM     20  C   LIG    1        2.422   1.186  -0.015  0.00  0.00    +0.270 C 
BRANCH  20  21
ATOM     21  C   LIG    1        3.571   2.196  -0.020  0.00  0.00    +0.230 C 
BRANCH  21  22
ATOM     22  O   LIG    1        3.473   3.023  -1.182  0.00  0.00    -0.540 OA
ATOM     23  H   LIG    1        3.517   2.536  -2.016  0.00  0.00    +0.380 HD
ENDBRANCH  21  22
BRANCH  21  24
ATOM     24  C   LIG    1        4.907   1.449  -0.037  0.00  0.00    +0.090 C 
BRANCH  24  25
ATOM     25  C   LIG    1        6.037   2.438   0.081  0.00  0.00    +0.460 C 
ATOM     26  O   LIG    1        5.799   3.620   0.170  0.00  0.00    -0.490 OA
BRANCH  25  28
ATOM     27  C   LIG    1        8.346   3.016   0.205  0.00  0.00    +0.260 C 
ATOM     28  O   LIG    1        7.308   2.007   0.088  0.00  0.00    -0.360 OA
ENDBRANCH  25  28
ENDBRANCH  24  25
ENDBRANCH  21  24
ENDBRANCH  20  21
ENDBRANCH   1  20
TORSDOF 10
