REMARK  Name = ZINCrD00000hQ5NA.0
REMARK                            x       y       z     vdW  Elec       q    Type
REMARK                         _______ _______ _______ _____ _____    ______ ____
ROOT
ATOM      1  C   LIG    1        5.074   1.192  -0.021  0.00  0.00    +0.520 C 
ATOM      2  N   LIG    1        6.152   2.001  -0.033  0.00  0.00    -0.610 N 
ATOM      3  C   LIG    1        5.995   3.458  -0.134  0.00  0.00    +0.290 C 
ATOM      4  C   LIG    1        6.804   3.967  -1.330  0.00  0.00    +0.040 C 
ATOM      5  C   LIG    1        8.267   3.542  -1.171  0.00  0.00    +0.000 C 
ATOM      6  C   LIG    1        8.345   2.019  -1.091  0.00  0.00    -0.090 C 
ATOM      7  C   LIG    1        9.777   1.472  -1.140  0.00  0.00    +0.020 C 
ATOM      8  C   LIG    1        9.230   0.350  -2.039  0.00  0.00    +0.010 C 
ATOM      9  C   LIG    1        8.103   1.320  -2.434  0.00  0.00    +0.010 C 
ATOM     10  C   LIG    1        7.510   1.443   0.060  0.00  0.00    +0.320 C 
ATOM     11  O   LIG    1        5.219  -0.010   0.063  0.00  0.00    -0.530 OA
ENDROOT
BRANCH   5  12
ATOM     12  C   LIG    1        9.075   4.032  -2.375  0.00  0.00    +0.460 C 
ATOM     13  F   LIG    1        8.512   3.525  -3.551  0.00  0.00    -0.170 F 
ATOM     14  F   LIG    1       10.397   3.588  -2.261  0.00  0.00    -0.170 F 
ATOM     15  F   LIG    1        9.054   5.430  -2.413  0.00  0.00    -0.180 F 
ENDBRANCH   5  12
BRANCH   1  16
ATOM     16  C   LIG    1        3.690   1.780  -0.111  0.00  0.00    +0.050 C 
BRANCH  16  17
ATOM     17  C   LIG    1        2.654   0.654  -0.076  0.00  0.00    +0.290 C 
BRANCH  17  20
ATOM     18  O   LIG    1        0.376  -0.790  -0.067  0.00  0.00    -0.540 OA
ATOM     19  C   LIG    1        0.231   0.416  -0.151  0.00  0.00    +0.550 C 
ATOM     20  N   LIG    1        1.308   1.225  -0.164  0.00  0.00    -0.730 N 
ATOM     21  H   LIG    1        1.193   2.186  -0.231  0.00  0.00    +0.400 HD
BRANCH  19  22
ATOM     22  C   LIG    1       -1.070   0.968  -0.242  0.00  0.00    -0.090 C 
ATOM     23  C   LIG    1       -2.154   0.153  -0.235  0.00  0.00    +0.180 C 
BRANCH  23  24
ATOM     24  C   LIG    1       -3.455   0.705  -0.326  0.00  0.00    -0.020 A 
ATOM     25  C   LIG    1       -4.639  -0.002  -0.336  0.00  0.00    +0.000 A 
ATOM     26  C   LIG    1       -5.670   0.946  -0.435  0.00  0.00    -0.060 A 
ATOM     27  C   LIG    1       -5.088   2.164  -0.490  0.00  0.00    +0.200 A 
ATOM     28  O   LIG    1       -3.757   2.017  -0.424  0.00  0.00    -0.170 OA
ENDBRANCH  23  24
ENDBRANCH  19  22
ENDBRANCH  17  20
ENDBRANCH  16  17
ENDBRANCH   1  16
TORSDOF 6
