REMARK  Name = ZINCqH0000002TU5.0
REMARK                            x       y       z     vdW  Elec       q    Type
REMARK                         _______ _______ _______ _____ _____    ______ ____
ROOT
ATOM      1  C   LIG    1        2.122   1.105   0.011  0.00  0.00    +0.160 A 
ATOM      2  N   LIG    1        1.252   2.067   0.053  0.00  0.00    -0.270 NA
ATOM      3  O   LIG    1       -0.055   1.530   0.046  0.00  0.00    -0.080 OA
ATOM      4  C   LIG    1        0.013   0.184  -0.002  0.00  0.00    +0.300 A 
ATOM      5  N   LIG    1       -0.906  -0.768  -0.026  0.00  0.00    -0.460 NA
ATOM      6  C   LIG    1       -0.588  -2.044  -0.074  0.00  0.00    +0.240 A 
ATOM      7  C   LIG    1        0.732  -2.464  -0.101  0.00  0.00    -0.030 A 
ATOM      8  C   LIG    1        1.750  -1.511  -0.077  0.00  0.00    -0.000 A 
ATOM      9  C   LIG    1        1.377  -0.154  -0.026  0.00  0.00    -0.200 A 
ENDROOT
BRANCH   8  10
ATOM     10  C   LIG    1        3.174  -1.912  -0.105  0.00  0.00    +0.560 C 
ATOM     11  N   LIG    1        3.509  -3.216  -0.030  0.00  0.00    -0.710 N 
ATOM     12  H   LIG    1        2.816  -3.891   0.042  0.00  0.00    +0.400 HD
ATOM     13  O   LIG    1        4.042  -1.066  -0.195  0.00  0.00    -0.510 OA
BRANCH  11  14
ATOM     14  C   LIG    1        4.919  -3.613  -0.058  0.00  0.00    +0.240 C 
BRANCH  14  15
ATOM     15  C   LIG    1        5.034  -5.047  -0.578  0.00  0.00    +0.170 C 
ATOM     16  C   LIG    1        4.442  -5.138  -2.000  0.00  0.00    +0.010 C 
ATOM     17  C   LIG    1        3.714  -6.509  -1.967  0.00  0.00    +0.010 C 
ATOM     18  C   LIG    1        3.230  -6.550  -0.496  0.00  0.00    +0.200 C 
ATOM     19  O   LIG    1        4.281  -5.930   0.262  0.00  0.00    -0.370 OA
ENDBRANCH  14  15
BRANCH  14  20
ATOM     20  C   LIG    1        5.498  -3.534   1.356  0.00  0.00    +0.010 C 
ATOM     21  C   LIG    1        5.497  -2.079   1.828  0.00  0.00    +0.010 C 
ENDBRANCH  14  20
ENDBRANCH  11  14
ENDBRANCH   8  10
BRANCH   6  22
ATOM     22  C   LIG    1       -1.687  -3.075  -0.099  0.00  0.00    +0.010 C 
ATOM     23  C   LIG    1       -1.315  -4.495  -0.532  0.00  0.00    +0.040 C 
ATOM     24  C   LIG    1       -2.133  -3.599  -1.466  0.00  0.00    +0.060 C 
ENDBRANCH   6  22
BRANCH   1  25
ATOM     25  C   LIG    1        3.621   1.256   0.002  0.00  0.00    +0.180 C 
BRANCH  25  27
ATOM     26  C   LIG    1        5.508   2.887   0.152  0.00  0.00    +0.030 C 
ATOM     27  C   LIG    1        3.986   2.733   0.161  0.00  0.00    +0.010 C 
ENDBRANCH  25  27
ENDBRANCH   1  25
TORSDOF 7
