REMARK  Name = ZINCwl00000004A5.0
REMARK                            x       y       z     vdW  Elec       q    Type
REMARK                         _______ _______ _______ _____ _____    ______ ____
ROOT
ATOM      1  C   LIG    1       -4.227   0.244   6.144  0.00  0.00    +0.250 C 
ATOM      2  C   LIG    1       -3.052   0.027   7.061  0.00  0.00    +0.400 C 
ATOM      3  N   LIG    1       -1.910   0.644   6.969  0.00  0.00    -0.370 N 
ATOM      4  C   LIG    1       -1.079   0.216   7.954  0.00  0.00    +0.060 A 
ATOM      5  C   LIG    1        0.230   0.539   8.318  0.00  0.00    +0.080 A 
ATOM      6  C   LIG    1        0.812  -0.080   9.389  0.00  0.00    +0.080 A 
ATOM      7  C   LIG    1        0.115  -1.030  10.122  0.00  0.00    +0.090 A 
ATOM      8  C   LIG    1       -1.179  -1.365   9.780  0.00  0.00    +0.060 A 
ATOM      9  C   LIG    1       -1.786  -0.746   8.697  0.00  0.00    +0.090 A 
ATOM     10  N   LIG    1       -3.029  -0.846   8.105  0.00  0.00    -0.420 N 
ENDROOT
BRANCH   3  11
ATOM     11  C   LIG    1       -1.574   1.651   5.960  0.00  0.00    +0.360 C 
BRANCH  11  12
ATOM     12  C   LIG    1       -0.970   0.975   4.757  0.00  0.00    +0.500 C 
ATOM     13  N   LIG    1       -0.581   1.710   3.696  0.00  0.00    -0.600 N 
ATOM     14  C   LIG    1        0.012   1.072   2.509  0.00  0.00    +0.280 C 
ATOM     15  C   LIG    1       -0.729   1.579   1.267  0.00  0.00    +0.140 C 
ATOM     16  O   LIG    1       -0.744   3.009   1.278  0.00  0.00    -0.360 OA
ATOM     17  C   LIG    1       -1.442   3.578   2.389  0.00  0.00    +0.190 C 
ATOM     18  C   LIG    1       -2.882   3.062   2.406  0.00  0.00    +0.020 C 
ATOM     19  C   LIG    1       -0.013   1.086   0.008  0.00  0.00    +0.070 C 
ATOM     20  C   LIG    1       -0.737   3.173   3.689  0.00  0.00    +0.260 C 
ATOM     21  O   LIG    1       -0.833  -0.230   4.743  0.00  0.00    -0.520 OA
ENDBRANCH  11  12
ENDBRANCH   3  11
BRANCH  10  22
ATOM     22  C   LIG    1       -4.123  -1.724   8.526  0.00  0.00    +0.380 C 
BRANCH  22  23
ATOM     23  C   LIG    1       -4.988  -1.004   9.528  0.00  0.00    +0.500 C 
ATOM     24  N   LIG    1       -6.062  -1.621  10.058  0.00  0.00    -0.600 N 
ATOM     25  C   LIG    1       -6.922  -0.938  11.039  0.00  0.00    +0.280 C 
ATOM     26  C   LIG    1       -8.378  -1.070  10.579  0.00  0.00    +0.140 C 
ATOM     27  O   LIG    1       -8.670  -2.447  10.330  0.00  0.00    -0.370 OA
ATOM     28  C   LIG    1       -7.893  -3.029   9.281  0.00  0.00    +0.150 C 
ATOM     29  C   LIG    1       -8.333  -4.478   9.062  0.00  0.00    +0.080 C 
ATOM     30  C   LIG    1       -9.309  -0.540  11.673  0.00  0.00    +0.070 C 
ATOM     31  C   LIG    1       -6.415  -2.996   9.669  0.00  0.00    +0.260 C 
ATOM     32  O   LIG    1       -4.717   0.131   9.858  0.00  0.00    -0.520 OA
ENDBRANCH  22  23
ENDBRANCH  10  22
TORSDOF 4
