REMARK  Name = ZINCrg000000oE0F.0
REMARK                            x       y       z     vdW  Elec       q    Type
REMARK                         _______ _______ _______ _____ _____    ______ ____
ROOT
ATOM      1  C   LIG    1       -0.013   1.086   0.008  0.00  0.00    +0.110 C 
ENDROOT
BRANCH   1   2
ATOM      2  C   LIG    1       -0.742   1.585  -1.213  0.00  0.00    +0.470 C 
ATOM      3  O   LIG    1       -1.732   2.266  -1.089  0.00  0.00    -0.500 OA
BRANCH   2   4
ATOM      4  O   LIG    1       -0.290   1.274  -2.438  0.00  0.00    -0.330 OA
BRANCH   4   5
ATOM      5  C   LIG    1       -1.042   1.789  -3.568  0.00  0.00    +0.180 C 
ATOM      6  C   LIG    1       -2.123   0.781  -3.964  0.00  0.00    +0.080 C 
BRANCH   5   7
ATOM      7  C   LIG    1       -0.111   2.010  -4.732  0.00  0.00    +0.520 C 
ATOM      8  N   LIG    1       -0.570   2.581  -5.864  0.00  0.00    -0.610 N 
ATOM      9  C   LIG    1       -1.978   2.991  -5.987  0.00  0.00    +0.250 C 
ATOM     10  C   LIG    1       -2.011   4.447  -6.481  0.00  0.00    +0.220 C 
ATOM     11  O   LIG    1       -1.211   4.561  -7.660  0.00  0.00    -0.380 OA
ATOM     12  C   LIG    1        0.174   4.266  -7.458  0.00  0.00    +0.220 C 
ATOM     13  C   LIG    1        0.320   2.807  -7.013  0.00  0.00    +0.260 C 
ATOM     14  O   LIG    1        1.051   1.673  -4.652  0.00  0.00    -0.510 OA
ENDBRANCH   5   7
ENDBRANCH   4   5
ENDBRANCH   2   4
ENDBRANCH   1   2
BRANCH   1  15
ATOM     15  C   LIG    1       -0.729   1.579   1.267  0.00  0.00    +0.360 C 
BRANCH  15  18
ATOM     16  N   LIG    1        1.393   0.996   4.139  0.00  0.00    -0.540 N 
ATOM     17  C   LIG    1        0.979   1.733   3.091  0.00  0.00    +0.680 A 
ATOM     18  N   LIG    1       -0.020   1.094   2.454  0.00  0.00    -0.540 N 
ATOM     19  C   LIG    1       -0.269  -0.104   3.118  0.00  0.00    +0.090 A 
ATOM     20  C   LIG    1       -1.171  -1.137   2.912  0.00  0.00    +0.030 A 
ATOM     21  C   LIG    1       -1.177  -2.225   3.764  0.00  0.00    +0.020 A 
ATOM     22  C   LIG    1       -0.288  -2.287   4.823  0.00  0.00    +0.020 A 
ATOM     23  C   LIG    1        0.620  -1.267   5.031  0.00  0.00    +0.030 A 
ATOM     24  O   LIG    1        1.438   2.813   2.769  0.00  0.00    -0.550 OA
ATOM     25  C   LIG    1        0.631  -0.169   4.184  0.00  0.00    +0.090 A 
BRANCH  16  27
ATOM     26  C   LIG    1        1.870   2.147   6.244  0.00  0.00    +0.030 C 
ATOM     27  C   LIG    1        2.461   1.359   5.074  0.00  0.00    +0.310 C 
ENDBRANCH  16  27
ENDBRANCH  15  18
ENDBRANCH   1  15
TORSDOF 7
