REMARK  Name = ZINCkj00000GeRh5.2
REMARK                            x       y       z     vdW  Elec       q    Type
REMARK                         _______ _______ _______ _____ _____    ______ ____
ROOT
ATOM      1  N   LIG    1        1.677   0.532   7.194  0.00  0.00    -0.370 N 
ATOM      2  C   LIG    1        2.876   0.304   6.422  0.00  0.00    +0.240 C 
ATOM      3  C   LIG    1        3.102  -1.213   6.237  0.00  0.00    +0.070 C 
ATOM      4  C   LIG    1        2.719  -1.971   7.529  0.00  0.00    +0.280 C 
ATOM      5  N   LIG    1        3.130  -1.363   8.766  0.00  0.00    -1.010 NA
ATOM      6  C   LIG    1        2.215  -0.372   9.427  0.00  0.00    +0.340 C 
ATOM      7  C   LIG    1        2.156   0.803   8.546  0.00  0.00    +0.240 C 
ATOM      8  H   LIG    1        1.091  -0.289   7.186  0.00  0.00    +0.420 HD
ENDROOT
BRANCH   5   9
ATOM      9  S   LIG    1        4.588  -1.749   9.450  0.00  0.00    +2.600 S 
ATOM     10  O   LIG    1        4.927  -0.605  10.221  0.00  0.00    -0.940 OA
ATOM     11  O   LIG    1        5.392  -2.159   8.353  0.00  0.00    -0.940 OA
ATOM     12  C   LIG    1        4.221  -3.159  10.531  0.00  0.00    -0.270 C 
ENDBRANCH   5   9
BRANCH   1  13
ATOM     13  C   LIG    1        0.942   1.690   6.669  0.00  0.00    +0.250 C 
BRANCH  13  14
ATOM     14  C   LIG    1        0.395   1.359   5.279  0.00  0.00    +0.050 C 
BRANCH  14  15
ATOM     15  C   LIG    1       -0.371   2.566   4.731  0.00  0.00    +0.150 C 
BRANCH  15  19
ATOM     16  C   LIG    1       -0.013   1.086   0.008  0.00  0.00    +0.190 C 
ATOM     17  C   LIG    1       -0.718   1.572   1.248  0.00  0.00    +0.050 A 
ATOM     18  N   LIG    1       -0.143   1.820   2.376  0.00  0.00    -0.480 NA
ATOM     19  C   LIG    1       -0.909   2.240   3.362  0.00  0.00    +0.060 A 
ATOM     20  C   LIG    1       -2.203   2.353   3.048  0.00  0.00    -0.080 A 
ATOM     21  S   LIG    1       -2.396   1.882   1.361  0.00  0.00    +0.150 S 
ENDBRANCH  15  19
ENDBRANCH  14  15
ENDBRANCH  13  14
ENDBRANCH   1  13
TORSDOF 5
