REMARK  Name = ZINCkj00000GeRh5.1
REMARK                            x       y       z     vdW  Elec       q    Type
REMARK                         _______ _______ _______ _____ _____    ______ ____
ROOT
ATOM      1  N   LIG    1       -2.128   0.716  -1.418  0.00  0.00    -0.370 N 
ATOM      2  C   LIG    1       -3.155   0.864  -0.390  0.00  0.00    +0.250 C 
ATOM      3  C   LIG    1       -3.071  -0.301   0.572  0.00  0.00    +0.060 C 
ATOM      4  C   LIG    1       -2.179   0.084   1.766  0.00  0.00    +0.320 C 
ATOM      5  N   LIG    1       -1.010   0.869   1.322  0.00  0.00    -1.010 NA
ATOM      6  C   LIG    1       -0.262   0.540   0.126  0.00  0.00    +0.340 C 
ATOM      7  C   LIG    1       -0.872   1.273  -1.091  0.00  0.00    +0.210 C 
ATOM      8  H   LIG    1       -2.001  -0.269  -1.602  0.00  0.00    +0.420 HD
ENDROOT
BRANCH   5   9
ATOM      9  S   LIG    1       -0.536   2.173   2.227  0.00  0.00    +2.600 S 
ATOM     10  O   LIG    1        0.852   2.305   1.950  0.00  0.00    -0.940 OA
ATOM     11  O   LIG    1       -0.997   1.876   3.538  0.00  0.00    -0.930 OA
ATOM     12  C   LIG    1       -1.460   3.569   1.528  0.00  0.00    -0.290 C 
ENDBRANCH   5   9
BRANCH   1  13
ATOM     13  C   LIG    1       -2.611   1.352  -2.651  0.00  0.00    +0.250 C 
BRANCH  13  14
ATOM     14  C   LIG    1       -1.687   0.981  -3.813  0.00  0.00    +0.050 C 
BRANCH  14  15
ATOM     15  C   LIG    1       -2.265   1.527  -5.119  0.00  0.00    +0.150 C 
BRANCH  15  19
ATOM     16  C   LIG    1        2.077   1.355  -7.516  0.00  0.00    +0.180 C 
ATOM     17  C   LIG    1        0.605   1.100  -7.315  0.00  0.00    +0.050 A 
ATOM     18  N   LIG    1       -0.074   1.471  -6.282  0.00  0.00    -0.480 NA
ATOM     19  C   LIG    1       -1.355   1.161  -6.263  0.00  0.00    +0.060 A 
ATOM     20  C   LIG    1       -1.782   0.502  -7.344  0.00  0.00    -0.080 A 
ATOM     21  S   LIG    1       -0.407   0.282  -8.424  0.00  0.00    +0.160 S 
ENDBRANCH  15  19
ENDBRANCH  14  15
ENDBRANCH  13  14
ENDBRANCH   1  13
TORSDOF 5
