REMARK  Name = ZINCvU0000000HiH.0
REMARK                            x       y       z     vdW  Elec       q    Type
REMARK                         _______ _______ _______ _____ _____    ______ ____
ROOT
ATOM      1  C   LIG    1        0.002  -0.004   0.002  0.00  0.00    +0.520 C 
ATOM      2  N   LIG    1        0.585  -0.664  -1.018  0.00  0.00    -0.610 N 
ATOM      3  H   LIG    1        0.992  -0.170  -1.747  0.00  0.00    +0.440 HD
ATOM      4  O   LIG    1       -0.506  -0.622   0.913  0.00  0.00    -0.490 OA
ENDROOT
BRANCH   2   5
ATOM      5  C   LIG    1        0.604  -2.049  -1.026  0.00  0.00    +0.070 A 
ATOM      6  C   LIG    1        1.164  -2.820  -2.015  0.00  0.00    -0.230 A 
ATOM      7  C   LIG    1        1.056  -4.194  -1.786  0.00  0.00    +0.070 A 
ATOM      8  C   LIG    1        0.416  -4.503  -0.649  0.00  0.00    -0.220 A 
ATOM      9  S   LIG    1       -0.072  -3.039   0.189  0.00  0.00    +0.340 S 
BRANCH   8  10
ATOM     10  C   LIG    1        0.160  -5.878  -0.169  0.00  0.00    -0.010 A 
ATOM     11  C   LIG    1        0.590  -6.974  -0.919  0.00  0.00    +0.010 A 
ATOM     12  C   LIG    1        0.351  -8.254  -0.463  0.00  0.00    +0.020 A 
ATOM     13  C   LIG    1       -0.320  -8.453   0.730  0.00  0.00    +0.000 A 
ATOM     14  C   LIG    1       -0.753  -7.371   1.476  0.00  0.00    +0.020 A 
ATOM     15  C   LIG    1       -0.517  -6.085   1.034  0.00  0.00    +0.000 A 
ENDBRANCH   8  10
BRANCH   6  16
ATOM     16  C   LIG    1        1.819  -2.253  -3.199  0.00  0.00    +0.590 C 
ATOM     17  O   LIG    1        1.885  -1.046  -3.339  0.00  0.00    -0.560 OA
ATOM     18  N   LIG    1        2.349  -3.070  -4.131  0.00  0.00    -0.840 N 
ATOM     19  H   LIG    1        2.782  -2.695  -4.914  0.00  0.00    +0.410 HD
ATOM     20  H   LIG    1        2.297  -4.032  -4.020  0.00  0.00    +0.400 HD
ENDBRANCH   6  16
ENDBRANCH   2   5
BRANCH   1  21
ATOM     21  C   LIG    1       -0.018   1.503   0.010  0.00  0.00    +0.120 C 
BRANCH  21  22
ATOM     22  S   LIG    1       -0.866   2.087   1.500  0.00  0.00    +0.040 S 
BRANCH  22  26
ATOM     23  C   LIG    1       -1.795   6.989   3.056  0.00  0.00    +0.130 C 
ATOM     24  C   LIG    1       -1.212   6.040   2.041  0.00  0.00    -0.000 A 
ATOM     25  C   LIG    1       -1.297   4.692   2.215  0.00  0.00    +0.000 A 
ATOM     26  C   LIG    1       -0.747   3.828   1.257  0.00  0.00    +0.140 A 
ATOM     27  N   LIG    1       -0.138   4.287   0.182  0.00  0.00    -0.490 NA
ATOM     28  C   LIG    1       -0.029   5.602  -0.045  0.00  0.00    +0.150 A 
ATOM     29  C   LIG    1        0.616   6.085  -1.196  0.00  0.00    +0.070 A 
ATOM     30  C   LIG    1        0.719   7.428  -1.399  0.00  0.00    +0.050 A 
ATOM     31  C   LIG    1        0.192   8.336  -0.483  0.00  0.00    -0.040 A 
ATOM     32  C   LIG    1       -0.441   7.902   0.645  0.00  0.00    +0.060 A 
ATOM     33 CL   LIG    1        0.343  10.039  -0.780  0.00  0.00    -0.060 Cl
ATOM     34  C   LIG    1       -0.564   6.526   0.885  0.00  0.00    -0.100 A 
ENDBRANCH  22  26
ENDBRANCH  21  22
ENDBRANCH   1  21
TORSDOF 6
