REMARK  Name = ZINCpk00000khSf7.0
REMARK                            x       y       z     vdW  Elec       q    Type
REMARK                         _______ _______ _______ _____ _____    ______ ____
ROOT
ATOM      1  N   LIG    1        2.123   0.034   1.224  0.00  0.00    -0.490 N 
ATOM      2  C   LIG    1        0.757  -0.508   1.234  0.00  0.00    +0.200 C 
ATOM      3  C   LIG    1        0.002  -0.004   0.002  0.00  0.00    +0.200 C 
ATOM      4  N   LIG    1       -0.018   1.465   0.010  0.00  0.00    -0.560 NA
ATOM      5  C   LIG    1        1.348   2.008   0.000  0.00  0.00    +0.190 C 
ATOM      6  C   LIG    1        2.103   1.504   1.232  0.00  0.00    +0.200 C 
ENDROOT
BRANCH   1  10
ATOM      7  C   LIG    1        4.343  -1.447   4.426  0.00  0.00    +0.100 A 
ATOM      8  C   LIG    1        4.924  -0.562   3.530  0.00  0.00    +0.000 A 
ATOM      9  C   LIG    1        4.189  -0.071   2.469  0.00  0.00    +0.030 A 
ATOM     10  C   LIG    1        2.868  -0.463   2.299  0.00  0.00    +0.070 A 
ATOM     11  C   LIG    1        2.285  -1.345   3.199  0.00  0.00    +0.000 A 
ATOM     12  C   LIG    1        3.023  -1.839   4.257  0.00  0.00    -0.050 A 
BRANCH   7  14
ATOM     13  C   LIG    1        4.405  -2.838   6.354  0.00  0.00    +0.230 C 
ATOM     14  O   LIG    1        5.067  -1.931   5.471  0.00  0.00    -0.320 OA
ENDBRANCH   7  14
ENDBRANCH   1  10
BRANCH   4  15
ATOM     15  C   LIG    1       -0.800   1.987  -1.118  0.00  0.00    +0.500 C 
BRANCH  15  16
ATOM     16  N   LIG    1       -1.304   3.323  -0.787  0.00  0.00    -0.620 N 
ATOM     17  C   LIG    1       -0.629   4.607  -1.043  0.00  0.00    +0.300 C 
ATOM     18  C   LIG    1       -1.601   5.635  -0.500  0.00  0.00    +0.520 C 
ATOM     19  N   LIG    1       -2.648   4.931  -0.025  0.00  0.00    -0.570 N 
ATOM     20  O   LIG    1       -1.465   6.840  -0.494  0.00  0.00    -0.470 OA
ATOM     21  C   LIG    1       -2.476   3.615  -0.195  0.00  0.00    +0.710 C 
ATOM     22  O   LIG    1       -3.287   2.778   0.149  0.00  0.00    -0.540 OA
BRANCH  19  23
ATOM     23  C   LIG    1       -3.830   5.533   0.597  0.00  0.00    +0.250 C 
ATOM     24  C   LIG    1       -4.513   6.467  -0.404  0.00  0.00    +0.040 C 
ATOM     25  C   LIG    1       -3.406   6.331   1.832  0.00  0.00    +0.040 C 
ENDBRANCH  19  23
ENDBRANCH  15  16
ENDBRANCH   4  15
TORSDOF 5
