REMARK  Name = ZINCpk000000ozKB.0
REMARK                            x       y       z     vdW  Elec       q    Type
REMARK                         _______ _______ _______ _____ _____    ______ ____
ROOT
ATOM      1  C   LIG    1        8.487   4.171  -0.012  0.00  0.00    -0.090 A 
ATOM      2  C   LIG    1        8.179   4.593  -1.292  0.00  0.00    +0.040 A 
ATOM      3  C   LIG    1        6.878   4.519  -1.751  0.00  0.00    -0.030 A 
ATOM      4  C   LIG    1        5.879   4.021  -0.925  0.00  0.00    +0.170 A 
ATOM      5  C   LIG    1        6.191   3.603   0.362  0.00  0.00    +0.010 A 
ATOM      6  C   LIG    1        7.495   3.674   0.813  0.00  0.00    +0.040 A 
ENDROOT
BRANCH   4   7
ATOM      7  N   LIG    1        4.560   3.946  -1.386  0.00  0.00    -0.690 N 
ATOM      8  H   LIG    1        4.224   4.613  -2.005  0.00  0.00    +0.410 HD
ATOM      9  C   LIG    1        3.757   2.946  -0.971  0.00  0.00    +0.710 C 
ATOM     10  N   LIG    1        2.458   2.933  -1.329  0.00  0.00    -0.730 N 
ATOM     11  H   LIG    1        2.101   3.643  -1.886  0.00  0.00    +0.400 HD
ATOM     12  O   LIG    1        4.205   2.057  -0.273  0.00  0.00    -0.550 OA
BRANCH  10  13
ATOM     13  C   LIG    1        1.585   1.846  -0.878  0.00  0.00    +0.280 C 
ATOM     14  C   LIG    1        0.136   2.340  -0.848  0.00  0.00    +0.040 C 
ATOM     15  C   LIG    1       -0.784   1.130  -0.645  0.00  0.00    +0.040 C 
ATOM     16  C   LIG    1       -0.719   0.254  -1.899  0.00  0.00    +0.260 C 
ATOM     17  N   LIG    1        0.668  -0.032  -2.247  0.00  0.00    -0.720 N 
ATOM     18  H   LIG    1        0.844  -0.788  -2.829  0.00  0.00    +0.400 HD
ATOM     19  C   LIG    1        1.709   0.683  -1.819  0.00  0.00    +0.500 C 
ATOM     20  O   LIG    1        2.815   0.378  -2.212  0.00  0.00    -0.530 OA
ENDBRANCH  10  13
ENDBRANCH   4   7
BRANCH   1  21
ATOM     21  C   LIG    1        9.908   4.252   0.485  0.00  0.00    +0.100 C 
BRANCH  21  23
ATOM     22  N   LIG    1       11.341   5.887   1.664  0.00  0.00    -0.620 N 
ATOM     23  C   LIG    1       10.134   5.589   1.142  0.00  0.00    +0.520 C 
ATOM     24  O   LIG    1        9.232   6.397   1.201  0.00  0.00    -0.530 OA
BRANCH  22  26
ATOM     25  C   LIG    1       11.226   7.087   3.792  0.00  0.00    +0.010 C 
ATOM     26  C   LIG    1       11.561   7.187   2.302  0.00  0.00    +0.270 C 
ENDBRANCH  22  26
BRANCH  22  27
ATOM     27  C   LIG    1       12.431   4.912   1.593  0.00  0.00    +0.260 C 
ATOM     28  C   LIG    1       13.223   5.125   0.301  0.00  0.00    +0.020 C 
ENDBRANCH  22  27
ENDBRANCH  21  23
ENDBRANCH   1  21
TORSDOF 6
