REMARK  Name = ZINCqH0000037mLo.0
REMARK                            x       y       z     vdW  Elec       q    Type
REMARK                         _______ _______ _______ _____ _____    ______ ____
ROOT
ATOM      1  C   LIG    1        3.113  -1.290  -1.285  0.00  0.00    -0.690 A 
ATOM      2  C   LIG    1        3.166  -1.994  -0.096  0.00  0.00    +0.140 A 
ATOM      3  C   LIG    1        2.875  -3.344  -0.078  0.00  0.00    -0.030 A 
ATOM      4  C   LIG    1        2.540  -3.996  -1.257  0.00  0.00    +0.200 A 
ATOM      5  C   LIG    1        2.493  -3.287  -2.450  0.00  0.00    +0.000 A 
ATOM      6  C   LIG    1        2.779  -1.936  -2.461  0.00  0.00    +0.140 A 
ENDROOT
BRANCH   4   7
ATOM      7  N   LIG    1        2.249  -5.365  -1.243  0.00  0.00    -0.680 N 
ATOM      8  H   LIG    1        1.816  -5.761  -0.470  0.00  0.00    +0.420 HD
ATOM      9  C   LIG    1        2.572  -6.133  -2.302  0.00  0.00    +0.510 C 
ATOM     10  O   LIG    1        3.199  -5.660  -3.226  0.00  0.00    -0.510 OA
BRANCH   9  11
ATOM     11  C   LIG    1        2.154  -7.581  -2.338  0.00  0.00    +0.080 C 
BRANCH  11  12
ATOM     12  C   LIG    1        2.643  -8.220  -3.639  0.00  0.00    +0.140 C 
BRANCH  12  13
ATOM     13  C   LIG    1        2.225  -9.668  -3.675  0.00  0.00    -0.180 A 
ATOM     14  C   LIG    1        1.079 -10.125  -4.182  0.00  0.00    +0.010 A 
ATOM     15  C   LIG    1        0.913 -11.497  -4.105  0.00  0.00    +0.000 A 
ATOM     16  C   LIG    1        1.924 -12.154  -3.534  0.00  0.00    -0.050 A 
ATOM     17  S   LIG    1        3.177 -11.014  -3.062  0.00  0.00    +0.100 S 
ENDBRANCH  12  13
ENDBRANCH  11  12
ENDBRANCH   9  11
ENDBRANCH   4   7
BRANCH   1  18
ATOM     18  S   LIG    1        3.478   0.434  -1.302  0.00  0.00    +2.690 S 
ATOM     19  O   LIG    1        4.285   0.685  -0.160  0.00  0.00    -0.950 OA
ATOM     20  O   LIG    1        3.888   0.744  -2.627  0.00  0.00    -0.950 OA
BRANCH  18  26
ATOM     21  C   LIG    1       -0.341   1.491   1.870  0.00  0.00    +0.030 C 
ATOM     22  C   LIG    1        0.189   1.037   0.508  0.00  0.00    -0.040 C 
ATOM     23  C   LIG    1       -0.719   1.577  -0.599  0.00  0.00    +0.030 C 
ATOM     24  C   LIG    1       -0.209   1.095  -1.959  0.00  0.00    +0.010 C 
ATOM     25  C   LIG    1        1.207   1.633  -2.189  0.00  0.00    +0.290 C 
ATOM     26  N   LIG    1        2.052   1.240  -1.054  0.00  0.00    -1.000 NA
ATOM     27  C   LIG    1        1.609   1.574   0.306  0.00  0.00    +0.290 C 
ENDBRANCH  18  26
ENDBRANCH   1  18
TORSDOF 6
