REMARK  Name = ZINCpk000000myjm.0
REMARK                            x       y       z     vdW  Elec       q    Type
REMARK                         _______ _______ _______ _____ _____    ______ ____
ROOT
ATOM      1  N   LIG    1       -1.228   6.066   0.039  0.00  0.00    -0.640 N 
ATOM      2  H   LIG    1       -0.481   5.566  -0.326  0.00  0.00    +0.440 HD
ATOM      3  C   LIG    1       -2.251   5.415   0.627  0.00  0.00    +0.580 C 
ATOM      4  O   LIG    1       -3.137   6.043   1.173  0.00  0.00    -0.510 OA
ENDROOT
BRANCH   1  10
ATOM      5  C   LIG    1       -0.039   8.169  -0.140  0.00  0.00    -0.180 A 
ATOM      6  C   LIG    1       -0.068   9.562  -0.229  0.00  0.00    +0.070 A 
ATOM      7  C   LIG    1       -1.275  10.227  -0.211  0.00  0.00    -0.020 A 
ATOM      8  C   LIG    1       -2.462   9.520  -0.111  0.00  0.00    +0.070 A 
ATOM      9  C   LIG    1       -2.450   8.142  -0.028  0.00  0.00    +0.010 A 
ATOM     10  C   LIG    1       -1.243   7.455  -0.044  0.00  0.00    +0.210 A 
BRANCH   5  13
ATOM     11  N   LIG    1        2.407   8.143  -0.144  0.00  0.00    -0.720 N 
ATOM     12  H   LIG    1        2.392   9.113  -0.129  0.00  0.00    +0.410 HD
ATOM     13  C   LIG    1        1.250   7.452  -0.152  0.00  0.00    +0.570 C 
ATOM     14  O   LIG    1        1.269   6.236  -0.171  0.00  0.00    -0.530 OA
BRANCH  11  15
ATOM     15  C   LIG    1        3.687   7.431  -0.156  0.00  0.00    +0.430 C 
BRANCH  15  17
ATOM     16  C   LIG    1        5.671   9.181  -0.132  0.00  0.00    +0.060 C 
ATOM     17  C   LIG    1        4.790   8.405  -0.143  0.00  0.00    -0.220 C 
ENDBRANCH  15  17
ENDBRANCH  11  15
ENDBRANCH   5  13
ENDBRANCH   1  10
BRANCH   3  18
ATOM     18  C   LIG    1       -2.296   3.934   0.608  0.00  0.00    +0.070 A 
ATOM     19  C   LIG    1       -3.360   3.267   1.219  0.00  0.00    +0.080 A 
ATOM     20  C   LIG    1       -3.393   1.882   1.196  0.00  0.00    +0.080 A 
ATOM     21  C   LIG    1       -2.366   1.205   0.559  0.00  0.00    +0.080 A 
ATOM     22  C   LIG    1       -1.329   1.934  -0.028  0.00  0.00    +0.090 A 
ATOM     23  N   LIG    1       -1.327   3.257   0.011  0.00  0.00    -0.400 NA
BRANCH  22  24
ATOM     24  C   LIG    1       -0.224   1.219  -0.708  0.00  0.00    +0.520 C 
ATOM     25  O   LIG    1       -0.220   0.006  -0.748  0.00  0.00    -0.490 OA
BRANCH  24  26
ATOM     26  O   LIG    1        0.773   1.916  -1.286  0.00  0.00    -0.330 OA
ATOM     27  C   LIG    1        1.820   1.150  -1.939  0.00  0.00    +0.280 C 
ENDBRANCH  24  26
ENDBRANCH  22  24
ENDBRANCH   3  18
TORSDOF 7
