REMARK  Name = ZINCrD00000l8XbO.0
REMARK                            x       y       z     vdW  Elec       q    Type
REMARK                         _______ _______ _______ _____ _____    ______ ____
ROOT
ATOM      1  O   LIG    1       -2.590   4.091   0.037  0.00  0.00    -0.330 OA
ENDROOT
BRANCH   1   2
ATOM      2  C   LIG    1       -2.784   5.424   0.045  0.00  0.00    +0.520 C 
ATOM      3  O   LIG    1       -1.831   6.177   0.044  0.00  0.00    -0.510 OA
BRANCH   2   7
ATOM      4  C   LIG    1       -6.729   6.993   0.072  0.00  0.00    +0.170 A 
ATOM      5  C   LIG    1       -5.640   7.857   0.072  0.00  0.00    -0.030 A 
ATOM      6  C   LIG    1       -4.359   7.352   0.063  0.00  0.00    +0.140 A 
ATOM      7  C   LIG    1       -4.155   5.969   0.054  0.00  0.00    -0.170 A 
ATOM      8  C   LIG    1       -5.253   5.104   0.049  0.00  0.00    +0.140 A 
ATOM      9  C   LIG    1       -6.531   5.618   0.063  0.00  0.00    -0.090 A 
BRANCH   4  10
ATOM     10  O   LIG    1       -7.990   7.495   0.080  0.00  0.00    -0.310 OA
BRANCH  10  11
ATOM     11  C   LIG    1       -9.063   6.552   0.080  0.00  0.00    +0.190 C 
BRANCH  11  12
ATOM     12  C   LIG    1      -10.399   7.299   0.089  0.00  0.00    +0.040 C 
BRANCH  12  14
ATOM     13  C   LIG    1      -12.883   7.036   0.099  0.00  0.00    +0.030 C 
ATOM     14  C   LIG    1      -11.548   6.289   0.089  0.00  0.00    +0.020 C 
ENDBRANCH  12  14
ENDBRANCH  11  12
ENDBRANCH  10  11
ENDBRANCH   4  10
ENDBRANCH   2   7
ENDBRANCH   1   2
BRANCH   1  15
ATOM     15  C   LIG    1       -1.214   3.626   0.028  0.00  0.00    +0.250 C 
BRANCH  15  16
ATOM     16  C   LIG    1       -1.194   2.119   0.019  0.00  0.00    +0.520 C 
ATOM     17  N   LIG    1       -0.018   1.461   0.010  0.00  0.00    -0.720 N 
ATOM     18  H   LIG    1        0.816   1.957   0.005  0.00  0.00    +0.400 HD
ATOM     19  O   LIG    1       -2.236   1.498   0.021  0.00  0.00    -0.510 OA
BRANCH  17  20
ATOM     20  C   LIG    1        0.002  -0.004   0.002  0.00  0.00    +0.330 C 
BRANCH  20  21
ATOM     21  C   LIG    1        1.429  -0.487  -0.014  0.00  0.00    -0.150 A 
ATOM     22  C   LIG    1        2.070  -0.707  -1.220  0.00  0.00    +0.070 A 
ATOM     23  C   LIG    1        3.380  -1.144  -1.237  0.00  0.00    -0.080 A 
ATOM     24  C   LIG    1        4.050  -1.374  -0.044  0.00  0.00    +0.140 A 
ATOM     25  C   LIG    1        3.403  -1.158   1.164  0.00  0.00    -0.020 A 
ATOM     26  C   LIG    1        2.095  -0.715   1.176  0.00  0.00    +0.070 A 
BRANCH  24  27
ATOM     27  O   LIG    1        5.337  -1.810  -0.059  0.00  0.00    -0.320 OA
ATOM     28  C   LIG    1        5.939  -2.011  -1.339  0.00  0.00    +0.250 C 
ENDBRANCH  24  27
ENDBRANCH  20  21
ENDBRANCH  17  20
ENDBRANCH  15  16
ENDBRANCH   1  15
TORSDOF 11
