REMARK  Name = ZINCrH00000No4Xe.0
REMARK                            x       y       z     vdW  Elec       q    Type
REMARK                         _______ _______ _______ _____ _____    ______ ____
ROOT
ATOM      1  C   LIG    1       -0.009   1.091   0.008  0.00  0.00    +0.240 C 
ENDROOT
BRANCH   1   2
ATOM      2  C   LIG    1       -0.743   1.583  -1.213  0.00  0.00    +0.520 C 
ATOM      3  N   LIG    1       -0.288   1.272  -2.443  0.00  0.00    -0.670 N 
ATOM      4  H   LIG    1        0.546   0.789  -2.544  0.00  0.00    +0.420 HD
ATOM      5  O   LIG    1       -1.742   2.260  -1.088  0.00  0.00    -0.500 OA
BRANCH   3   6
ATOM      6  C   LIG    1       -1.022   1.647  -3.576  0.00  0.00    +0.150 A 
ATOM      7  C   LIG    1       -1.045   0.822  -4.692  0.00  0.00    +0.000 A 
ATOM      8  C   LIG    1       -1.772   1.190  -5.809  0.00  0.00    +0.050 A 
ATOM      9  C   LIG    1       -2.471   2.387  -5.822  0.00  0.00    +0.040 A 
ATOM     10  O   LIG    1       -3.174   2.737  -6.935  0.00  0.00    -0.310 OA
ATOM     11  C   LIG    1       -4.164   3.759  -6.776  0.00  0.00    +0.220 C 
ATOM     12  C   LIG    1       -3.542   4.908  -5.970  0.00  0.00    +0.220 C 
ATOM     13  O   LIG    1       -3.132   4.393  -4.699  0.00  0.00    -0.300 OA
ATOM     14  C   LIG    1       -2.448   3.217  -4.707  0.00  0.00    +0.070 A 
ATOM     15  C   LIG    1       -1.723   2.845  -3.585  0.00  0.00    +0.030 A 
ENDBRANCH   3   6
ENDBRANCH   1   2
BRANCH   1  16
ATOM     16  O   LIG    1       -0.680   1.549   1.184  0.00  0.00    -0.220 OA
BRANCH  16  18
ATOM     17  C   LIG    1       -0.579   1.488   3.528  0.00  0.00    +0.290 C 
ATOM     18  N   LIG    1       -0.067   1.139   2.393  0.00  0.00    -0.340 NA
BRANCH  17  22
ATOM     19  C   LIG    1        1.257   0.258   7.153  0.00  0.00    -0.050 A 
ATOM     20  C   LIG    1        0.112   1.033   7.190  0.00  0.00    +0.010 A 
ATOM     21  C   LIG    1       -0.490   1.437   6.016  0.00  0.00    +0.050 A 
ATOM     22  C   LIG    1        0.060   1.061   4.789  0.00  0.00    -0.070 A 
ATOM     23  C   LIG    1        1.213   0.274   4.759  0.00  0.00    +0.060 A 
ATOM     24  C   LIG    1        1.807  -0.117   5.941  0.00  0.00    +0.000 A 
BRANCH  19  26
ATOM     25  C   LIG    1        0.920  -1.016   9.254  0.00  0.00    +0.040 C 
ATOM     26  C   LIG    1        1.909  -0.179   8.440  0.00  0.00    -0.030 C 
ATOM     27  C   LIG    1        2.320   1.054   9.248  0.00  0.00    +0.040 C 
ATOM     28  C   LIG    1        3.148  -1.019   8.124  0.00  0.00    +0.030 C 
ENDBRANCH  19  26
ENDBRANCH  17  22
ENDBRANCH  16  18
ENDBRANCH   1  16
TORSDOF 6
