REMARK  Name = ZINCnE000001E76t.0
REMARK                            x       y       z     vdW  Elec       q    Type
REMARK                         _______ _______ _______ _____ _____    ______ ____
ROOT
ATOM      1  S   LIG    1       -2.574   5.315  -0.663  0.00  0.00    +2.700 S 
ATOM      2  O   LIG    1       -1.412   6.036  -0.278  0.00  0.00    -0.950 OA
ATOM      3  O   LIG    1       -3.894   5.774  -0.408  0.00  0.00    -0.950 OA
ENDROOT
BRANCH   1   4
ATOM      4  C   LIG    1       -2.457   5.077  -2.405  0.00  0.00    -0.710 A 
ATOM      5  C   LIG    1       -1.219   5.115  -3.025  0.00  0.00    +0.140 A 
ATOM      6  C   LIG    1       -1.115   4.923  -4.390  0.00  0.00    -0.060 A 
ATOM      7  C   LIG    1       -2.250   4.704  -5.148  0.00  0.00    +0.190 A 
ATOM      8  C   LIG    1       -3.505   4.670  -4.528  0.00  0.00    -0.190 A 
ATOM      9  F   LIG    1       -2.149   4.523  -6.483  0.00  0.00    -0.110 F 
ATOM     10  C   LIG    1       -3.598   4.858  -3.146  0.00  0.00    +0.200 A 
BRANCH   8  11
ATOM     11  C   LIG    1       -4.720   4.435  -5.327  0.00  0.00    +0.520 C 
ATOM     12  O   LIG    1       -4.635   4.270  -6.537  0.00  0.00    -0.670 OA
ATOM     13  O   LIG    1       -5.815   4.406  -4.782  0.00  0.00    -0.680 OA
ENDBRANCH   8  11
ENDBRANCH   1   4
BRANCH   1  14
ATOM     14  N   LIG    1       -2.454   3.822   0.045  0.00  0.00    -1.050 N 
ATOM     15  H   LIG    1       -3.179   3.486   0.594  0.00  0.00    +0.430 HD
BRANCH  14  21
ATOM     16  C   LIG    1       -1.411   1.666  -0.255  0.00  0.00    -0.090 A 
ATOM     17  C   LIG    1       -0.275   0.903  -0.440  0.00  0.00    +0.030 A 
ATOM     18  C   LIG    1        0.963   1.513  -0.532  0.00  0.00    -0.010 A 
ATOM     19  C   LIG    1        1.068   2.888  -0.432  0.00  0.00    +0.030 A 
ATOM     20  C   LIG    1       -0.063   3.657  -0.241  0.00  0.00    -0.010 A 
ATOM     21  C   LIG    1       -1.308   3.048  -0.149  0.00  0.00    +0.160 A 
BRANCH  16  23
ATOM     22  C   LIG    1       -3.040   0.232  -1.453  0.00  0.00    +0.030 C 
ATOM     23  C   LIG    1       -2.760   1.001  -0.161  0.00  0.00    +0.020 C 
ATOM     24  C   LIG    1       -2.769   0.032   1.022  0.00  0.00    +0.030 C 
ENDBRANCH  16  23
ENDBRANCH  14  21
ENDBRANCH   1  14
TORSDOF 5
