REMARK  Name = ZINCpk00000ebvcY.0
REMARK                            x       y       z     vdW  Elec       q    Type
REMARK                         _______ _______ _______ _____ _____    ______ ____
ROOT
ATOM      1  O   LIG    1       -2.152  -1.748  -0.017  0.00  0.00    -0.520 OA
ATOM      2  C   LIG    1       -2.829  -1.330  -0.932  0.00  0.00    +0.520 C 
ATOM      3  N   LIG    1       -2.237  -0.808  -2.024  0.00  0.00    -0.600 N 
ATOM      4  C   LIG    1       -3.042  -0.296  -3.142  0.00  0.00    +0.270 C 
ATOM      5  C   LIG    1       -2.613   1.141  -3.444  0.00  0.00    -0.020 C 
ATOM      6  C   LIG    1       -1.102   1.190  -3.677  0.00  0.00    +0.030 C 
ATOM      7  C   LIG    1       -0.367   0.697  -2.430  0.00  0.00    -0.020 C 
ATOM      8  C   LIG    1       -0.731   1.581  -1.234  0.00  0.00    +0.230 C 
ATOM      9  C   LIG    1       -0.013   1.086   0.008  0.00  0.00    +0.020 C 
ATOM     10  C   LIG    1       -0.712   1.571   1.277  0.00  0.00    +0.030 C 
ATOM     11  C   LIG    1       -2.122   0.933   1.303  0.00  0.00    +0.060 C 
ATOM     12  C   LIG    1       -2.835   1.314   0.035  0.00  0.00    +0.520 C 
ATOM     13  O   LIG    1       -4.047   1.348   0.036  0.00  0.00    -0.560 OA
ATOM     14  N   LIG    1       -2.181   1.618  -1.095  0.00  0.00    -0.590 N 
ATOM     15  C   LIG    1       -2.981   2.040  -2.263  0.00  0.00    +0.280 C 
ATOM     16  C   LIG    1       -0.774  -0.750  -2.135  0.00  0.00    +0.280 C 
ENDROOT
BRANCH   2  17
ATOM     17  C   LIG    1       -4.332  -1.392  -0.847  0.00  0.00    +0.210 C 
BRANCH  17  18
ATOM     18  O   LIG    1       -4.715  -1.982   0.397  0.00  0.00    -0.350 OA
BRANCH  18  19
ATOM     19  C   LIG    1       -6.129  -2.088   0.579  0.00  0.00    +0.230 C 
BRANCH  19  20
ATOM     20  C   LIG    1       -6.417  -2.720   1.917  0.00  0.00    -0.040 A 
ATOM     21  C   LIG    1       -6.542  -4.096   2.040  0.00  0.00    -0.010 A 
ATOM     22  C   LIG    1       -6.801  -4.639   3.283  0.00  0.00    +0.260 A 
ATOM     23  N   LIG    1       -6.939  -3.866   4.342  0.00  0.00    -0.480 NA
ATOM     24  C   LIG    1       -6.833  -2.554   4.261  0.00  0.00    +0.260 A 
ATOM     25  C   LIG    1       -6.569  -1.939   3.052  0.00  0.00    -0.010 A 
ENDBRANCH  19  20
ENDBRANCH  18  19
ENDBRANCH  17  18
ENDBRANCH   2  17
TORSDOF 4
