REMARK  Name = ZINCpk00000j8uUC.0
REMARK                            x       y       z     vdW  Elec       q    Type
REMARK                         _______ _______ _______ _____ _____    ______ ____
ROOT
ATOM      1  C   LIG    1       -6.522   2.840   0.659  0.00  0.00    +0.170 A 
ATOM      2  N   LIG    1       -5.869   1.712   0.638  0.00  0.00    -0.270 NA
ATOM      3  N   LIG    1       -4.605   1.936   0.574  0.00  0.00    -0.270 NA
ATOM      4  C   LIG    1       -4.382   3.229   0.550  0.00  0.00    +0.400 A 
ATOM      5  N   LIG    1       -5.598   3.846   0.610  0.00  0.00    -0.480 N 
ATOM      6  C   LIG    1       -5.859   5.288   0.616  0.00  0.00    +0.340 C 
ENDROOT
BRANCH   4   7
ATOM      7  N   LIG    1       -3.144   3.851   0.483  0.00  0.00    -0.550 N 
ATOM      8  C   LIG    1       -2.379   4.094   1.708  0.00  0.00    +0.320 C 
BRANCH   7   9
ATOM      9  C   LIG    1       -2.627   4.246  -0.754  0.00  0.00    +0.200 A 
ATOM     10  C   LIG    1       -3.301   3.924  -1.925  0.00  0.00    -0.060 A 
ATOM     11  C   LIG    1       -2.784   4.311  -3.146  0.00  0.00    +0.040 A 
ATOM     12  C   LIG    1       -1.603   5.028  -3.203  0.00  0.00    -0.040 A 
ATOM     13  C   LIG    1       -0.933   5.355  -2.038  0.00  0.00    +0.050 A 
ATOM     14  C   LIG    1       -1.441   4.967  -0.815  0.00  0.00    -0.050 A 
ENDBRANCH   7   9
ENDBRANCH   4   7
BRANCH   1  15
ATOM     15  C   LIG    1       -8.018   3.004   0.731  0.00  0.00    +0.160 C 
BRANCH  15  22
ATOM     16  C   LIG    1       -6.180   1.500   5.161  0.00  0.00    +0.090 C 
ATOM     17  C   LIG    1       -7.650   1.756   5.371  0.00  0.00    +0.520 C 
ATOM     18  N   LIG    1       -8.475   1.855   4.310  0.00  0.00    -0.610 N 
ATOM     19  C   LIG    1       -9.927   1.982   4.500  0.00  0.00    +0.270 C 
ATOM     20  C   LIG    1      -10.417   3.216   3.737  0.00  0.00    +0.030 C 
ATOM     21  C   LIG    1       -9.982   3.114   2.274  0.00  0.00    +0.060 C 
ATOM     22  C   LIG    1       -8.454   3.074   2.196  0.00  0.00    +0.130 C 
ATOM     23  C   LIG    1       -7.940   1.838   2.942  0.00  0.00    +0.260 C 
ATOM     24  O   LIG    1       -8.090   1.872   6.495  0.00  0.00    -0.540 OA
BRANCH  22  25
ATOM     25  O   LIG    1       -7.915   4.252   2.799  0.00  0.00    -0.540 OA
ATOM     26  H   LIG    1       -6.949   4.294   2.786  0.00  0.00    +0.370 HD
ENDBRANCH  22  25
ENDBRANCH  15  22
ENDBRANCH   1  15
TORSDOF 5
