REMARK  Name = ZINCtV000002w0N7.0
REMARK                            x       y       z     vdW  Elec       q    Type
REMARK                         _______ _______ _______ _____ _____    ______ ____
ROOT
ATOM      1  C   LIG    1        0.028   1.486  -0.195  0.00  0.00    +0.120 A 
ATOM      2  C   LIG    1        1.234   2.010   0.256  0.00  0.00    +0.010 A 
ATOM      3  C   LIG    1        2.393   1.274   0.142  0.00  0.00    +0.070 A 
ATOM      4  C   LIG    1        2.355  -0.002  -0.426  0.00  0.00    -0.140 A 
ATOM      5  C   LIG    1        1.140  -0.526  -0.878  0.00  0.00    +0.110 A 
ATOM      6  C   LIG    1       -0.014   0.217  -0.761  0.00  0.00    +0.000 A 
ENDROOT
BRANCH   4   7
ATOM      7  C   LIG    1        3.594  -0.794  -0.550  0.00  0.00    +0.560 C 
ATOM      8  N   LIG    1        4.764  -0.287  -0.115  0.00  0.00    -0.670 N 
ATOM      9  H   LIG    1        4.781   0.566   0.347  0.00  0.00    +0.410 HD
ATOM     10  O   LIG    1        3.559  -1.904  -1.046  0.00  0.00    -0.510 OA
BRANCH   8  11
ATOM     11  C   LIG    1        5.954  -0.991  -0.328  0.00  0.00    +0.160 A 
ATOM     12  C   LIG    1        7.139  -0.301  -0.575  0.00  0.00    +0.010 A 
ATOM     13  C   LIG    1        8.304  -0.973  -0.784  0.00  0.00    +0.100 A 
ATOM     14  C   LIG    1        8.336  -2.384  -0.754  0.00  0.00    +0.070 A 
ATOM     15  N   LIG    1        9.386  -3.208  -0.936  0.00  0.00    -0.460 NA
ATOM     16  C   LIG    1        9.182  -4.470  -0.865  0.00  0.00    +0.120 A 
ATOM     17  S   LIG    1        7.488  -4.800  -0.529  0.00  0.00    +0.050 S 
ATOM     18  C   LIG    1       10.243  -5.524  -1.045  0.00  0.00    +0.190 C 
ATOM     19  C   LIG    1        7.144  -3.072  -0.506  0.00  0.00    -0.150 A 
ATOM     20  C   LIG    1        5.958  -2.373  -0.288  0.00  0.00    +0.070 A 
ENDBRANCH   8  11
ENDBRANCH   4   7
BRANCH   1  21
ATOM     21  O   LIG    1       -1.110   2.216  -0.086  0.00  0.00    -0.260 OA
BRANCH  21  25
ATOM     22  C   LIG    1       -3.738   1.267   2.949  0.00  0.00    -0.110 A 
ATOM     23  C   LIG    1       -4.036   2.296   2.074  0.00  0.00    +0.050 A 
ATOM     24  C   LIG    1       -3.158   2.616   1.057  0.00  0.00    -0.010 A 
ATOM     25  C   LIG    1       -1.976   1.904   0.914  0.00  0.00    +0.110 A 
ATOM     26  C   LIG    1       -1.681   0.869   1.790  0.00  0.00    -0.060 A 
ATOM     27  C   LIG    1       -2.561   0.557   2.808  0.00  0.00    +0.050 A 
BRANCH  22  28
ATOM     28  C   LIG    1       -4.699   0.920   4.057  0.00  0.00    +0.060 C 
BRANCH  28  30
ATOM     29  C   LIG    1       -6.667  -0.484   4.686  0.00  0.00    +0.010 C 
ATOM     30  C   LIG    1       -5.692  -0.132   3.560  0.00  0.00    +0.000 C 
ENDBRANCH  28  30
ENDBRANCH  22  28
ENDBRANCH  21  25
ENDBRANCH   1  21
TORSDOF 6
