REMARK  Name = ZINCpk000000nPAe.0
REMARK                            x       y       z     vdW  Elec       q    Type
REMARK                         _______ _______ _______ _____ _____    ______ ____
ROOT
ATOM      1  C   LIG    1        3.608   5.882  -0.589  0.00  0.00    +0.440 C 
ATOM      2  O   LIG    1        4.552   5.137  -0.756  0.00  0.00    -0.510 OA
ENDROOT
BRANCH   1   3
ATOM      3  C   LIG    1        3.694   7.232  -0.991  0.00  0.00    -0.460 A 
ATOM      4  C   LIG    1        4.900   7.770  -1.472  0.00  0.00    +0.560 A 
ATOM      5  N   LIG    1        4.932   9.081  -1.854  0.00  0.00    -0.540 N 
ATOM      6  C   LIG    1        3.842   9.860  -1.768  0.00  0.00    +0.710 A 
ATOM      7  N   LIG    1        2.665   9.403  -1.311  0.00  0.00    -0.560 N 
ATOM      8  C   LIG    1        1.515  10.308  -1.244  0.00  0.00    +0.350 C 
ATOM      9  O   LIG    1        3.924  11.022  -2.116  0.00  0.00    -0.520 OA
ATOM     10  C   LIG    1        6.183   9.650  -2.362  0.00  0.00    +0.350 C 
ATOM     11  C   LIG    1        2.527   8.121  -0.914  0.00  0.00    +0.580 A 
ATOM     12  O   LIG    1        1.459   7.710  -0.500  0.00  0.00    -0.500 OA
BRANCH   4  13
ATOM     13  N   LIG    1        6.015   6.997  -1.561  0.00  0.00    -0.790 N 
ATOM     14  H   LIG    1        6.862   7.394  -1.820  0.00  0.00    +0.410 HD
ATOM     15  H   LIG    1        5.965   6.048  -1.365  0.00  0.00    +0.440 HD
ENDBRANCH   4  13
ENDBRANCH   1   3
BRANCH   1  16
ATOM     16  C   LIG    1        2.344   5.364   0.049  0.00  0.00    +0.250 C 
ATOM     17  C   LIG    1        2.256   5.871   1.490  0.00  0.00    +0.040 C 
BRANCH  16  18
ATOM     18  N   LIG    1        2.360   3.900   0.046  0.00  0.00    -0.740 N 
ATOM     19  H   LIG    1        3.205   3.424   0.020  0.00  0.00    +0.400 HD
BRANCH  18  23
ATOM     20  C   LIG    1       -1.221   1.778   0.143  0.00  0.00    -0.140 A 
ATOM     21  C   LIG    1       -0.017   1.098   0.112  0.00  0.00    +0.050 A 
ATOM     22  C   LIG    1        1.172   1.799   0.078  0.00  0.00    -0.070 A 
ATOM     23  C   LIG    1        1.159   3.188   0.081  0.00  0.00    +0.220 A 
ATOM     24  C   LIG    1       -0.052   3.868   0.118  0.00  0.00    -0.080 A 
ATOM     25  C   LIG    1       -1.238   3.161   0.152  0.00  0.00    +0.050 A 
BRANCH  20  27
ATOM     26  C   LIG    1       -3.293   1.369   1.443  0.00  0.00    +0.020 C 
ATOM     27  C   LIG    1       -2.518   1.010   0.173  0.00  0.00    +0.020 C 
ATOM     28  C   LIG    1       -3.354   1.374  -1.055  0.00  0.00    +0.020 C 
ENDBRANCH  20  27
ENDBRANCH  18  23
ENDBRANCH  16  18
ENDBRANCH   1  16
TORSDOF 6
