REMARK  Name = ZINCtj00001yywwM.1
REMARK                            x       y       z     vdW  Elec       q    Type
REMARK                         _______ _______ _______ _____ _____    ______ ____
ROOT
ATOM      1  C   LIG    1       -0.045   0.376  -0.043  0.00  0.00    +0.340 C 
ENDROOT
BRANCH   1   6
ATOM      2  N   LIG    1       -0.931   1.844  -3.427  0.00  0.00    -0.380 N 
ATOM      3  C   LIG    1       -2.287   1.283  -3.504  0.00  0.00    +0.240 C 
ATOM      4  C   LIG    1       -2.960   1.392  -2.133  0.00  0.00    +0.260 C 
ATOM      5  O   LIG    1       -2.163   0.710  -1.161  0.00  0.00    -0.350 OA
ATOM      6  C   LIG    1       -0.824   1.204  -1.066  0.00  0.00    +0.160 C 
ATOM      7  C   LIG    1       -0.147   1.095  -2.434  0.00  0.00    +0.210 C 
ATOM      8  H   LIG    1       -0.486   1.773  -4.330  0.00  0.00    +0.430 HD
BRANCH   7   9
ATOM      9  C   LIG    1        1.244   1.669  -2.355  0.00  0.00    -0.160 A 
ATOM     10  C   LIG    1        1.465   2.851  -1.673  0.00  0.00    +0.020 A 
ATOM     11  C   LIG    1        2.742   3.375  -1.596  0.00  0.00    +0.030 A 
ATOM     12  C   LIG    1        3.796   2.723  -2.209  0.00  0.00    +0.060 A 
ATOM     13  C   LIG    1        3.573   1.544  -2.895  0.00  0.00    +0.030 A 
ATOM     14  C   LIG    1        2.297   1.017  -2.968  0.00  0.00    +0.060 A 
ENDBRANCH   7   9
BRANCH   2  16
ATOM     15  C   LIG    1       -1.715   4.058  -4.121  0.00  0.00    +0.090 C 
ATOM     16  C   LIG    1       -1.006   3.256  -3.028  0.00  0.00    +0.230 C 
ENDBRANCH   2  16
ENDBRANCH   1   6
BRANCH   1  17
ATOM     17  N   LIG    1       -0.696   0.477   1.266  0.00  0.00    -0.740 N 
ATOM     18  H   LIG    1       -1.498   1.014   1.368  0.00  0.00    +0.400 HD
ATOM     19  C   LIG    1       -0.182  -0.175   2.327  0.00  0.00    +0.710 C 
ATOM     20  N   LIG    1       -0.781  -0.082   3.530  0.00  0.00    -0.740 N 
ATOM     21  H   LIG    1       -1.583   0.454   3.633  0.00  0.00    +0.400 HD
ATOM     22  O   LIG    1        0.823  -0.847   2.199  0.00  0.00    -0.580 OA
BRANCH  20  23
ATOM     23  C   LIG    1       -0.222  -0.791   4.684  0.00  0.00    +0.450 C 
BRANCH  23  24
ATOM     24  C   LIG    1       -1.073  -0.524   5.899  0.00  0.00    +0.250 A 
ATOM     25  N   LIG    1       -0.894   0.463   6.745  0.00  0.00    -0.310 NA
ATOM     26  N   LIG    1       -1.894   0.352   7.720  0.00  0.00    -0.320 N 
ATOM     27  C   LIG    1       -2.204   1.081   8.826  0.00  0.00    +0.360 A 
ATOM     28  C   LIG    1       -3.260   0.701   9.590  0.00  0.00    -0.030 A 
ATOM     29  C   LIG    1       -4.000  -0.429   9.222  0.00  0.00    +0.410 A 
ATOM     30  N   LIG    1       -3.676  -1.112   8.148  0.00  0.00    -0.450 NA
ATOM     31  C   LIG    1       -2.637  -0.746   7.388  0.00  0.00    +0.440 A 
ATOM     32  N   LIG    1       -2.113  -1.254   6.279  0.00  0.00    -0.510 NA
ENDBRANCH  23  24
ENDBRANCH  20  23
ENDBRANCH   1  17
TORSDOF 6
