REMARK  Name = ZINCtj00001yywwM.2
REMARK                            x       y       z     vdW  Elec       q    Type
REMARK                         _______ _______ _______ _____ _____    ______ ____
ROOT
ATOM      1  C   LIG    1       -2.491   4.181   0.037  0.00  0.00    +0.340 C 
ENDROOT
BRANCH   1   6
ATOM      2  N   LIG    1       -3.315   7.884   0.123  0.00  0.00    -0.380 N 
ATOM      3  C   LIG    1       -2.566   8.194   1.348  0.00  0.00    +0.240 C 
ATOM      4  C   LIG    1       -1.232   7.443   1.332  0.00  0.00    +0.270 C 
ATOM      5  O   LIG    1       -1.483   6.040   1.211  0.00  0.00    -0.350 OA
ATOM      6  C   LIG    1       -2.232   5.689   0.044  0.00  0.00    +0.160 C 
ATOM      7  C   LIG    1       -3.567   6.438   0.056  0.00  0.00    +0.220 C 
ATOM      8  H   LIG    1       -2.777   8.168  -0.682  0.00  0.00    +0.420 HD
BRANCH   7   9
ATOM      9  C   LIG    1       -4.335   6.117  -1.200  0.00  0.00    -0.150 A 
ATOM     10  C   LIG    1       -4.028   6.766  -2.382  0.00  0.00    +0.000 A 
ATOM     11  C   LIG    1       -4.729   6.468  -3.536  0.00  0.00    +0.040 A 
ATOM     12  C   LIG    1       -5.744   5.530  -3.506  0.00  0.00    +0.050 A 
ATOM     13  C   LIG    1       -6.053   4.885  -2.323  0.00  0.00    +0.040 A 
ATOM     14  C   LIG    1       -5.349   5.179  -1.170  0.00  0.00    +0.060 A 
ENDBRANCH   7   9
BRANCH   2  16
ATOM     15  C   LIG    1       -4.333  10.110   0.079  0.00  0.00    +0.080 C 
ATOM     16  C   LIG    1       -4.595   8.604   0.136  0.00  0.00    +0.250 C 
ENDBRANCH   2  16
ENDBRANCH   1   6
BRANCH   1  17
ATOM     17  N   LIG    1       -1.212   3.466   0.027  0.00  0.00    -0.740 N 
ATOM     18  H   LIG    1       -0.379   3.963   0.025  0.00  0.00    +0.400 HD
ATOM     19  C   LIG    1       -1.194   2.119   0.019  0.00  0.00    +0.710 C 
ATOM     20  N   LIG    1       -0.018   1.461   0.010  0.00  0.00    -0.740 N 
ATOM     21  H   LIG    1        0.816   1.957   0.005  0.00  0.00    +0.400 HD
ATOM     22  O   LIG    1       -2.239   1.496   0.021  0.00  0.00    -0.580 OA
BRANCH  20  23
ATOM     23  C   LIG    1        0.002  -0.004   0.002  0.00  0.00    +0.450 C 
BRANCH  23  24
ATOM     24  C   LIG    1        1.429  -0.487  -0.014  0.00  0.00    +0.250 A 
ATOM     25  N   LIG    1        2.134  -0.729  -1.094  0.00  0.00    -0.310 NA
ATOM     26  N   LIG    1        3.400  -1.153  -0.672  0.00  0.00    -0.320 N 
ATOM     27  C   LIG    1        4.525  -1.534  -1.334  0.00  0.00    +0.360 A 
ATOM     28  C   LIG    1        5.617  -1.906  -0.617  0.00  0.00    -0.030 A 
ATOM     29  C   LIG    1        5.555  -1.888   0.782  0.00  0.00    +0.410 A 
ATOM     30  N   LIG    1        4.453  -1.516   1.393  0.00  0.00    -0.450 NA
ATOM     31  C   LIG    1        3.373  -1.147   0.694  0.00  0.00    +0.440 A 
ATOM     32  N   LIG    1        2.163  -0.738   1.061  0.00  0.00    -0.510 NA
ENDBRANCH  23  24
ENDBRANCH  20  23
ENDBRANCH   1  17
TORSDOF 6
