REMARK  Name = ZINCkj000005h0Lf.1
REMARK                            x       y       z     vdW  Elec       q    Type
REMARK                         _______ _______ _______ _____ _____    ______ ____
ROOT
ATOM      1  C   LIG    1        4.838  -1.081  -0.409  0.00  0.00    +0.510 C 
ATOM      2  C   LIG    1        5.831  -0.105  -0.506  0.00  0.00    -0.070 C 
ATOM      3  C   LIG    1        5.523   1.188  -0.132  0.00  0.00    +0.430 C 
ATOM      4  N   LIG    1        4.303   1.463   0.305  0.00  0.00    -0.550 NA
ATOM      5  C   LIG    1        3.379   0.516   0.387  0.00  0.00    +0.600 C 
ATOM      6  H   LIG    1        4.082   2.370   0.570  0.00  0.00    +0.450 HD
ATOM      7  N   LIG    1        3.636  -0.737   0.043  0.00  0.00    -0.560 NA
ENDROOT
BRANCH   5   8
ATOM      8  N   LIG    1        2.116   0.844   0.848  0.00  0.00    -0.460 NA
ATOM      9  C   LIG    1        1.494   1.881  -0.002  0.00  0.00    +0.210 C 
ATOM     10  C   LIG    1       -0.019   1.547   0.011  0.00  0.00    +0.060 C 
ATOM     11  C   LIG    1        0.002  -0.004   0.002  0.00  0.00    +0.040 C 
ATOM     12  C   LIG    1        1.237  -0.340   0.865  0.00  0.00    +0.260 C 
ENDBRANCH   5   8
BRANCH   1  13
ATOM     13  N   LIG    1        5.102  -2.391  -0.774  0.00  0.00    -0.650 NA
ATOM     14  H   LIG    1        4.407  -3.064  -0.704  0.00  0.00    +0.430 HD
BRANCH  13  15
ATOM     15  C   LIG    1        6.432  -2.761  -1.265  0.00  0.00    +0.420 C 
BRANCH  15  19
ATOM     16  N   LIG    1        6.622  -6.331  -1.409  0.00  0.00    -0.130 N 
ATOM     17  N   LIG    1        6.359  -6.117  -2.649  0.00  0.00    -0.280 NA
ATOM     18  C   LIG    1        6.242  -4.822  -2.838  0.00  0.00    +0.200 A 
ATOM     19  C   LIG    1        6.457  -4.232  -1.590  0.00  0.00    -0.050 A 
ATOM     20  N   LIG    1        6.690  -5.223  -0.759  0.00  0.00    -0.260 NA
BRANCH  16  22
ATOM     21  C   LIG    1        8.303  -8.031  -0.894  0.00  0.00    +0.060 C 
ATOM     22  C   LIG    1        6.822  -7.656  -0.817  0.00  0.00    +0.360 C 
ENDBRANCH  16  22
ENDBRANCH  15  19
ENDBRANCH  13  15
ENDBRANCH   1  13
TORSDOF 5
