REMARK  Name = ZINCpe000000XNwX.0
REMARK                            x       y       z     vdW  Elec       q    Type
REMARK                         _______ _______ _______ _____ _____    ______ ____
ROOT
ATOM      1  N   LIG    1       -0.068   1.317   0.022  0.00  0.00    -0.560 N 
ATOM      2  C   LIG    1       -0.031  -0.027   0.018  0.00  0.00    +0.710 C 
ATOM      3  N   LIG    1        1.219  -0.504  -0.012  0.00  0.00    -0.570 N 
ATOM      4  C   LIG    1        2.129   0.489  -0.032  0.00  0.00    +0.530 C 
ATOM      5  O   LIG    1        3.336   0.375  -0.060  0.00  0.00    -0.460 OA
ATOM      6  O   LIG    1       -1.022  -0.730   0.040  0.00  0.00    -0.520 OA
ATOM      7  C   LIG    1        1.331   1.777  -0.010  0.00  0.00    +0.220 C 
ATOM      8  C   LIG    1        1.659   2.592   1.243  0.00  0.00    +0.090 C 
ENDROOT
BRANCH   1  13
ATOM      9  C   LIG    1       -4.707   4.581   0.117  0.00  0.00    +0.100 C 
ATOM     10  C   LIG    1       -3.475   3.714   0.092  0.00  0.00    -0.110 A 
ATOM     11  C   LIG    1       -3.600   2.337   0.091  0.00  0.00    +0.040 A 
ATOM     12  C   LIG    1       -2.472   1.540   0.068  0.00  0.00    +0.000 A 
ATOM     13  C   LIG    1       -1.212   2.123   0.045  0.00  0.00    +0.180 A 
ATOM     14  C   LIG    1       -1.090   3.506   0.051  0.00  0.00    -0.020 A 
ATOM     15  C   LIG    1       -2.221   4.298   0.069  0.00  0.00    +0.040 A 
ENDBRANCH   1  13
BRANCH   3  16
ATOM     16  C   LIG    1        1.555  -1.930  -0.024  0.00  0.00    +0.290 C 
BRANCH  16  17
ATOM     17  C   LIG    1        1.638  -2.423  -1.470  0.00  0.00    +0.200 C 
BRANCH  17  18
ATOM     18  O   LIG    1        0.378  -2.225  -2.114  0.00  0.00    -0.540 OA
ATOM     19  H   LIG    1       -0.356  -2.695  -1.694  0.00  0.00    +0.380 HD
ENDBRANCH  17  18
BRANCH  17  20
ATOM     20  C   LIG    1        1.990  -3.912  -1.482  0.00  0.00    +0.160 C 
BRANCH  20  21
ATOM     21  N   LIG    1        2.082  -4.382  -2.871  0.00  0.00    -0.530 NA
ATOM     22  C   LIG    1        1.957  -5.845  -2.942  0.00  0.00    +0.150 C 
ATOM     23  C   LIG    1        1.998  -6.285  -4.407  0.00  0.00    +0.220 C 
ATOM     24  O   LIG    1        3.209  -5.816  -5.006  0.00  0.00    -0.390 OA
ATOM     25  C   LIG    1        3.364  -4.395  -4.956  0.00  0.00    +0.220 C 
ATOM     26  C   LIG    1        3.336  -3.936  -3.496  0.00  0.00    +0.150 C 
ENDBRANCH  20  21
ENDBRANCH  17  20
ENDBRANCH  16  17
ENDBRANCH   3  16
TORSDOF 6
