REMARK  Name = ZINCpk00000xIfG3.0
REMARK                            x       y       z     vdW  Elec       q    Type
REMARK                         _______ _______ _______ _____ _____    ______ ____
ROOT
ATOM      1  C   LIG    1        1.157   4.087   1.434  0.00  0.00    +0.540 C 
ATOM      2  N   LIG    1        1.142   5.410   1.688  0.00  0.00    -0.600 N 
ATOM      3  C   LIG    1        1.117   6.479   0.673  0.00  0.00    +0.260 C 
ATOM      4  C   LIG    1        1.719   7.717   1.385  0.00  0.00    +0.170 C 
ATOM      5  C   LIG    1        1.149   7.557   2.820  0.00  0.00    +0.080 C 
ATOM      6  C   LIG    1        1.140   6.027   3.022  0.00  0.00    +0.320 C 
ATOM      7  O   LIG    1        1.177   3.294   2.351  0.00  0.00    -0.520 OA
ENDROOT
BRANCH   6   8
ATOM      8  C   LIG    1       -0.098   5.615   3.776  0.00  0.00    +0.170 A 
ATOM      9  N   LIG    1       -1.313   5.567   3.301  0.00  0.00    -0.280 NA
ATOM     10  N   LIG    1       -2.121   5.169   4.218  0.00  0.00    -0.300 NA
ATOM     11  C   LIG    1       -1.460   4.953   5.323  0.00  0.00    +0.370 A 
ATOM     12  N   LIG    1       -0.157   5.230   5.074  0.00  0.00    -0.470 N 
ATOM     13  C   LIG    1        0.961   5.134   6.016  0.00  0.00    +0.340 C 
ENDBRANCH   6   8
BRANCH   4  14
ATOM     14  O   LIG    1        3.147   7.660   1.391  0.00  0.00    -0.370 OA
ATOM     15  C   LIG    1        3.759   8.306   0.273  0.00  0.00    +0.210 C 
ENDBRANCH   4  14
BRANCH   1  16
ATOM     16  C   LIG    1        1.151   3.592   0.010  0.00  0.00    +0.120 C 
BRANCH  16  21
ATOM     17  C   LIG    1        2.396   0.028  -0.022  0.00  0.00    -0.090 A 
ATOM     18  C   LIG    1        1.209  -0.679  -0.014  0.00  0.00    +0.020 A 
ATOM     19  C   LIG    1        0.002  -0.004   0.002  0.00  0.00    +0.010 A 
ATOM     20  C   LIG    1       -0.017   1.378   0.010  0.00  0.00    +0.030 A 
ATOM     21  C   LIG    1        1.171   2.085   0.002  0.00  0.00    -0.070 A 
ATOM     22  C   LIG    1        2.377   1.411  -0.014  0.00  0.00    +0.040 A 
BRANCH  17  23
ATOM     23  C   LIG    1        3.711  -0.707  -0.039  0.00  0.00    +0.220 C 
BRANCH  23  25
ATOM     24  C   LIG    1        5.356  -1.627  -1.520  0.00  0.00    +0.200 C 
ATOM     25  O   LIG    1        4.113  -0.933  -1.391  0.00  0.00    -0.390 OA
ENDBRANCH  23  25
ENDBRANCH  17  23
ENDBRANCH  16  21
ENDBRANCH   1  16
TORSDOF 6
