REMARK  Name = ZINCrD000000CfDU.1
REMARK                            x       y       z     vdW  Elec       q    Type
REMARK                         _______ _______ _______ _____ _____    ______ ____
ROOT
ATOM      1  O   LIG    1        1.140   9.815   0.039  0.00  0.00    -0.440 OA
ATOM      2  C   LIG    1       -0.049  10.057   0.053  0.00  0.00    +0.510 C 
ATOM      3  N   LIG    1       -0.942   9.049   0.057  0.00  0.00    -0.630 N 
ATOM      4  H   LIG    1       -1.893   9.242   0.068  0.00  0.00    +0.430 HD
ENDROOT
BRANCH   2   5
ATOM      5  C   LIG    1       -0.526  11.487   0.066  0.00  0.00    +0.020 C 
ATOM      6  C   LIG    1       -1.304  11.822  -1.228  0.00  0.00    +0.100 C 
ATOM      7  C   LIG    1       -0.257  12.403  -2.152  0.00  0.00    +0.520 C 
ATOM      8  N   LIG    1        0.836  12.751  -1.451  0.00  0.00    -0.570 N 
ATOM      9  O   LIG    1       -0.385  12.536  -3.350  0.00  0.00    -0.510 OA
ATOM     10  C   LIG    1        0.665  12.468  -0.020  0.00  0.00    +0.310 C 
BRANCH   8  11
ATOM     11  C   LIG    1        1.990  13.311  -2.013  0.00  0.00    +0.100 A 
ATOM     12  C   LIG    1        2.106  14.689  -2.133  0.00  0.00    +0.060 A 
ATOM     13  C   LIG    1        3.248  15.239  -2.683  0.00  0.00    +0.010 A 
ATOM     14  C   LIG    1        4.270  14.420  -3.123  0.00  0.00    +0.060 A 
ATOM     15  C   LIG    1        4.157  13.046  -3.010  0.00  0.00    -0.010 A 
ATOM     16  C   LIG    1        3.019  12.488  -2.456  0.00  0.00    +0.110 A 
ATOM     17  F   LIG    1        2.909  11.146  -2.345  0.00  0.00    -0.120 F 
ENDBRANCH   8  11
ENDBRANCH   2   5
BRANCH   3  18
ATOM     18  C   LIG    1       -0.502   7.731   0.046  0.00  0.00    +0.220 A 
ATOM     19  N   LIG    1        0.740   7.348   0.031  0.00  0.00    -0.260 NA
ATOM     20  N   LIG    1        0.973   6.107   0.023  0.00  0.00    -0.220 NA
ATOM     21  C   LIG    1       -0.070   5.323   0.030  0.00  0.00    +0.050 A 
ATOM     22  S   LIG    1       -1.508   6.344   0.042  0.00  0.00    +0.140 S 
BRANCH  21  23
ATOM     23  C   LIG    1       -0.050   3.845   0.023  0.00  0.00    -0.030 A 
ATOM     24  C   LIG    1        1.166   3.160   0.007  0.00  0.00    +0.070 A 
ATOM     25  C   LIG    1        1.178   1.781   0.000  0.00  0.00    +0.010 A 
ATOM     26  C   LIG    1       -0.013   1.076   0.008  0.00  0.00    +0.030 A 
ATOM     27  C   LIG    1       -1.222   1.748   0.017  0.00  0.00    +0.010 A 
ATOM     28  C   LIG    1       -1.247   3.127   0.031  0.00  0.00    +0.020 A 
ENDBRANCH  21  23
ENDBRANCH   3  18
TORSDOF 4
