REMARK  Name = ZINCqH0000034gRV.0
REMARK                            x       y       z     vdW  Elec       q    Type
REMARK                         _______ _______ _______ _____ _____    ______ ____
ROOT
ATOM      1  N   LIG    1        4.713   0.608   2.678  0.00  0.00    -0.670 N 
ATOM      2  H   LIG    1        5.296   0.278   3.379  0.00  0.00    +0.410 HD
ATOM      3  C   LIG    1        3.431   0.915   2.957  0.00  0.00    +0.560 C 
ATOM      4  O   LIG    1        2.734   1.442   2.111  0.00  0.00    -0.500 OA
ENDROOT
BRANCH   1  10
ATOM      5  C   LIG    1        4.685  -0.001   0.341  0.00  0.00    -0.060 A 
ATOM      6  C   LIG    1        5.167   0.160  -0.943  0.00  0.00    +0.010 A 
ATOM      7  C   LIG    1        6.173   1.075  -1.195  0.00  0.00    +0.020 A 
ATOM      8  C   LIG    1        6.694   1.836  -0.165  0.00  0.00    +0.010 A 
ATOM      9  C   LIG    1        6.212   1.684   1.120  0.00  0.00    -0.080 A 
ATOM     10  C   LIG    1        5.203   0.765   1.377  0.00  0.00    +0.130 A 
BRANCH   5  12
ATOM     11  C   LIG    1        3.083  -1.578  -0.706  0.00  0.00    +0.030 C 
ATOM     12  C   LIG    1        3.593  -1.003   0.617  0.00  0.00    +0.060 C 
ENDBRANCH   5  12
BRANCH   9  13
ATOM     13  C   LIG    1        6.781   2.514   2.242  0.00  0.00    +0.060 C 
ATOM     14  C   LIG    1        7.882   1.724   2.953  0.00  0.00    +0.020 C 
ENDBRANCH   9  13
ENDBRANCH   1  10
BRANCH   3  15
ATOM     15  C   LIG    1        2.871   0.613   4.291  0.00  0.00    -0.080 A 
ATOM     16  C   LIG    1        1.544   0.930   4.583  0.00  0.00    +0.070 A 
ATOM     17  C   LIG    1        1.030   0.650   5.832  0.00  0.00    +0.120 A 
ATOM     18  C   LIG    1        1.824   0.046   6.791  0.00  0.00    -0.650 A 
ATOM     19  C   LIG    1        3.140  -0.271   6.508  0.00  0.00    +0.130 A 
ATOM     20  C   LIG    1        3.669   0.009   5.265  0.00  0.00    +0.030 A 
BRANCH  18  21
ATOM     21  S   LIG    1        1.157  -0.314   8.382  0.00  0.00    +2.690 S 
ATOM     22  O   LIG    1        1.949  -1.364   8.920  0.00  0.00    -0.950 OA
ATOM     23  O   LIG    1       -0.251  -0.410   8.215  0.00  0.00    -0.950 OA
BRANCH  21  24
ATOM     24  N   LIG    1        1.425   1.011   9.338  0.00  0.00    -1.110 NA
ATOM     25  H   LIG    1        2.015   0.945  10.104  0.00  0.00    +0.420 HD
BRANCH  24  26
ATOM     26  C   LIG    1        0.771   2.284   9.025  0.00  0.00    +0.230 C 
ATOM     27  C   LIG    1        1.715   3.151   8.188  0.00  0.00    +0.010 C 
ATOM     28  C   LIG    1        0.426   3.014  10.325  0.00  0.00    +0.040 C 
ENDBRANCH  24  26
ENDBRANCH  21  24
ENDBRANCH  18  21
ENDBRANCH   3  15
TORSDOF 7
