REMARK  Name = ZINCkj000005hiYA.1
REMARK                            x       y       z     vdW  Elec       q    Type
REMARK                         _______ _______ _______ _____ _____    ______ ____
ROOT
ATOM      1  C   LIG    1        0.060   1.591   2.412  0.00  0.00    +0.320 C 
ATOM      2  N   LIG    1       -0.715   1.976   1.225  0.00  0.00    -0.380 N 
ATOM      3  H   LIG    1       -1.636   1.567   1.278  0.00  0.00    +0.440 HD
ENDROOT
BRANCH   2   4
ATOM      4  C   LIG    1       -0.832   3.439   1.169  0.00  0.00    +0.060 C 
ATOM      5  C   LIG    1        0.566   4.062   1.093  0.00  0.00    +0.030 C 
ATOM      6  C   LIG    1        0.438   5.588   1.118  0.00  0.00    +0.250 C 
ATOM      7  O   LIG    1       -0.256   5.989   2.301  0.00  0.00    -0.360 OA
ATOM      8  C   LIG    1       -1.585   5.475   2.401  0.00  0.00    +0.250 C 
ATOM      9  C   LIG    1       -1.539   3.945   2.430  0.00  0.00    +0.040 C 
BRANCH   4  10
ATOM     10  C   LIG    1       -1.639   3.842  -0.067  0.00  0.00    +0.230 C 
BRANCH  10  11
ATOM     11  O   LIG    1       -2.896   3.163  -0.056  0.00  0.00    -0.570 OA
ATOM     12  H   LIG    1       -3.462   3.371  -0.812  0.00  0.00    +0.410 HD
ENDBRANCH  10  11
ENDBRANCH   4  10
ENDBRANCH   2   4
BRANCH   2  13
ATOM     13  C   LIG    1       -0.033   1.493   0.017  0.00  0.00    +0.440 C 
BRANCH  13  14
ATOM     14  C   LIG    1       -0.023  -0.014   0.015  0.00  0.00    +0.090 A 
ATOM     15  N   LIG    1       -0.935  -0.801  -0.502  0.00  0.00    -0.420 NA
ATOM     16  C   LIG    1       -0.507  -2.054  -0.269  0.00  0.00    +0.200 A 
ATOM     17  N   LIG    1        0.623  -1.968   0.367  0.00  0.00    -0.340 NA
ATOM     18  O   LIG    1        0.922  -0.804   0.535  0.00  0.00    +0.110 OA
BRANCH  16  19
ATOM     19  C   LIG    1       -1.210  -3.326  -0.669  0.00  0.00    +0.020 C 
ATOM     20  C   LIG    1       -2.591  -3.375  -0.012  0.00  0.00    +0.070 C 
ATOM     21  C   LIG    1       -0.385  -4.530  -0.212  0.00  0.00    +0.050 C 
ATOM     22  C   LIG    1       -1.367  -3.364  -2.191  0.00  0.00    +0.070 C 
ENDBRANCH  16  19
ENDBRANCH  13  14
ENDBRANCH   2  13
TORSDOF 6
