REMARK  Name = ZINCkj000005hiYA.2
REMARK                            x       y       z     vdW  Elec       q    Type
REMARK                         _______ _______ _______ _____ _____    ______ ____
ROOT
ATOM      1  C   LIG    1       -0.711   1.713  -3.627  0.00  0.00    +0.320 C 
ATOM      2  N   LIG    1        0.001   1.225  -2.438  0.00  0.00    -0.380 N 
ATOM      3  H   LIG    1        0.089   0.221  -2.487  0.00  0.00    +0.440 HD
ENDROOT
BRANCH   2   4
ATOM      4  C   LIG    1       -0.753   1.593  -1.232  0.00  0.00    +0.060 C 
ATOM      5  C   LIG    1       -0.893   3.116  -1.157  0.00  0.00    +0.030 C 
ATOM      6  C   LIG    1       -1.745   3.483   0.061  0.00  0.00    +0.250 C 
ATOM      7  O   LIG    1       -3.018   2.842  -0.039  0.00  0.00    -0.360 OA
ATOM      8  C   LIG    1       -2.952   1.414  -0.065  0.00  0.00    +0.250 C 
ATOM      9  C   LIG    1       -2.148   0.964  -1.288  0.00  0.00    +0.040 C 
BRANCH   4  10
ATOM     10  C   LIG    1       -0.013   1.086   0.008  0.00  0.00    +0.230 C 
BRANCH  10  11
ATOM     11  O   LIG    1        0.219  -0.319  -0.117  0.00  0.00    -0.580 OA
ATOM     12  H   LIG    1        0.685  -0.709   0.635  0.00  0.00    +0.410 HD
ENDBRANCH  10  11
ENDBRANCH   4  10
ENDBRANCH   2   4
BRANCH   2  13
ATOM     13  C   LIG    1        1.337   1.832  -2.384  0.00  0.00    +0.430 C 
BRANCH  13  14
ATOM     14  C   LIG    1        2.152   1.357  -3.560  0.00  0.00    +0.100 A 
ATOM     15  N   LIG    1        2.227   1.926  -4.739  0.00  0.00    -0.430 NA
ATOM     16  C   LIG    1        3.065   1.158  -5.458  0.00  0.00    +0.200 A 
ATOM     17  N   LIG    1        3.450   0.180  -4.694  0.00  0.00    -0.340 NA
ATOM     18  O   LIG    1        2.941   0.279  -3.597  0.00  0.00    +0.110 OA
BRANCH  16  19
ATOM     19  C   LIG    1        3.482   1.390  -6.888  0.00  0.00    +0.020 C 
ATOM     20  C   LIG    1        2.245   1.374  -7.788  0.00  0.00    +0.070 C 
ATOM     21  C   LIG    1        4.444   0.283  -7.324  0.00  0.00    +0.050 C 
ATOM     22  C   LIG    1        4.179   2.747  -7.002  0.00  0.00    +0.070 C 
ENDBRANCH  16  19
ENDBRANCH  13  14
ENDBRANCH   2  13
TORSDOF 6
