REMARK  Name = ZINCrg000000tRUf.0
REMARK                            x       y       z     vdW  Elec       q    Type
REMARK                         _______ _______ _______ _____ _____    ______ ____
ROOT
ATOM      1  O   LIG    1        1.489  -1.648  -0.478  0.00  0.00    -0.520 OA
ATOM      2  C   LIG    1        1.203  -0.474  -0.379  0.00  0.00    +0.520 C 
ATOM      3  C   LIG    1        2.144   0.675  -0.664  0.00  0.00    +0.070 C 
ATOM      4  C   LIG    1        1.465   1.896  -0.002  0.00  0.00    -0.010 C 
ATOM      5  C   LIG    1       -0.018   1.463   0.010  0.00  0.00    +0.300 C 
ATOM      6  N   LIG    1        0.002  -0.004   0.002  0.00  0.00    -0.620 N 
ENDROOT
BRANCH   4   7
ATOM      7  C   LIG    1        1.658   3.138  -0.833  0.00  0.00    +0.530 C 
ATOM      8  N   LIG    1        2.887   3.674  -0.968  0.00  0.00    -0.610 N 
ATOM      9  C   LIG    1        4.036   3.051  -0.299  0.00  0.00    +0.260 C 
ATOM     10  C   LIG    1        5.120   2.737  -1.352  0.00  0.00    +0.300 C 
ATOM     11  N   LIG    1        5.274   3.956  -2.171  0.00  0.00    -0.630 N 
ATOM     12  C   LIG    1        6.389   4.702  -2.351  0.00  0.00    +0.520 C 
ATOM     13  C   LIG    1        6.011   6.070  -2.879  0.00  0.00    +0.070 C 
ATOM     14  C   LIG    1        4.625   5.857  -3.528  0.00  0.00    +0.070 C 
ATOM     15  O   LIG    1        7.520   4.324  -2.129  0.00  0.00    -0.520 OA
ATOM     16  C   LIG    1        4.122   4.574  -2.855  0.00  0.00    +0.210 C 
ATOM     17  C   LIG    1        3.075   4.887  -1.780  0.00  0.00    +0.290 C 
ATOM     18  O   LIG    1        0.708   3.654  -1.381  0.00  0.00    -0.530 OA
ENDBRANCH   4   7
BRANCH   6  19
ATOM     19  C   LIG    1       -1.140  -0.848   0.363  0.00  0.00    +0.300 C 
BRANCH  19  20
ATOM     20  C   LIG    1       -1.973  -1.141  -0.887  0.00  0.00    +0.060 C 
BRANCH  20  21
ATOM     21  C   LIG    1       -3.147  -2.009  -0.516  0.00  0.00    -0.090 A 
ATOM     22  C   LIG    1       -3.030  -3.385  -0.560  0.00  0.00    +0.050 A 
ATOM     23  C   LIG    1       -4.104  -4.183  -0.215  0.00  0.00    -0.010 A 
ATOM     24  C   LIG    1       -5.302  -3.602   0.166  0.00  0.00    +0.100 A 
ATOM     25  C   LIG    1       -5.420  -2.223   0.205  0.00  0.00    -0.010 A 
ATOM     26  F   LIG    1       -6.355  -4.381   0.499  0.00  0.00    -0.140 F 
ATOM     27  C   LIG    1       -4.343  -1.428  -0.136  0.00  0.00    +0.040 A 
ENDBRANCH  20  21
ENDBRANCH  19  20
ENDBRANCH   6  19
TORSDOF 4
