REMARK  Name = ZINCrH000004tGDE.0
REMARK                            x       y       z     vdW  Elec       q    Type
REMARK                         _______ _______ _______ _____ _____    ______ ____
ROOT
ATOM      1  O   LIG    1        1.352   5.974   1.341  0.00  0.00    -0.510 OA
ATOM      2  C   LIG    1        1.481   5.136   2.208  0.00  0.00    +0.530 C 
ATOM      3  N   LIG    1        1.677   5.514   3.487  0.00  0.00    -0.570 N 
ENDROOT
BRANCH   3   4
ATOM      4  C   LIG    1        1.818   6.870   3.801  0.00  0.00    +0.150 A 
ATOM      5  C   LIG    1        0.979   7.457   4.739  0.00  0.00    +0.010 A 
ATOM      6  C   LIG    1        1.124   8.795   5.052  0.00  0.00    +0.050 A 
ATOM      7  C   LIG    1        2.096   9.552   4.425  0.00  0.00    +0.030 A 
ATOM      8  C   LIG    1        2.931   8.971   3.486  0.00  0.00    -0.020 A 
ATOM      9 CL   LIG    1        4.151   9.925   2.702  0.00  0.00    -0.060 Cl
ATOM     10  C   LIG    1        2.794   7.632   3.173  0.00  0.00    +0.040 A 
ENDBRANCH   3   4
BRANCH   3  11
ATOM     11  C   LIG    1        1.743   4.505   4.547  0.00  0.00    +0.300 C 
BRANCH  11  12
ATOM     12  C   LIG    1        3.192   4.049   4.728  0.00  0.00    +0.370 C 
ATOM     13  F   LIG    1        3.986   5.147   5.079  0.00  0.00    -0.190 F 
ATOM     14  F   LIG    1        3.661   3.498   3.530  0.00  0.00    -0.200 F 
ENDBRANCH  11  12
ENDBRANCH   3  11
BRANCH   2  15
ATOM     15  C   LIG    1        1.422   3.672   1.856  0.00  0.00    +0.050 C 
BRANCH  15  16
ATOM     16  C   LIG    1        1.192   3.518   0.351  0.00  0.00    +0.330 C 
BRANCH  16  17
ATOM     17  N   LIG    1        1.135   2.095   0.009  0.00  0.00    -0.550 N 
ATOM     18  C   LIG    1        2.259   1.424  -0.327  0.00  0.00    +0.490 C 
ATOM     19  C   LIG    1        2.175  -0.031  -0.712  0.00  0.00    +0.300 C 
ATOM     20  O   LIG    1        1.099  -0.654  -0.005  0.00  0.00    -0.300 OA
ATOM     21  C   LIG    1       -0.085   0.013   0.018  0.00  0.00    +0.080 A 
ATOM     22  C   LIG    1       -1.284  -0.678   0.034  0.00  0.00    +0.030 A 
ATOM     23  C   LIG    1       -2.480   0.018   0.056  0.00  0.00    +0.030 A 
ATOM     24  C   LIG    1       -2.482   1.400   0.061  0.00  0.00    +0.020 A 
ATOM     25  C   LIG    1       -1.287   2.098   0.052  0.00  0.00    +0.000 A 
ATOM     26  O   LIG    1        3.331   1.991  -0.318  0.00  0.00    -0.500 OA
ATOM     27  C   LIG    1       -0.087   1.407   0.024  0.00  0.00    +0.100 A 
ENDBRANCH  16  17
ENDBRANCH  15  16
ENDBRANCH   2  15
TORSDOF 6
