REMARK  Name = ZINCpk00000SdLEv.0
REMARK                            x       y       z     vdW  Elec       q    Type
REMARK                         _______ _______ _______ _____ _____    ______ ____
ROOT
ATOM      1  C   LIG    1       -4.204   5.695   0.490  0.00  0.00    +0.240 C 
ATOM      2  C   LIG    1       -5.089   5.919  -0.738  0.00  0.00    +0.010 C 
ATOM      3  C   LIG    1       -5.714   4.586  -1.161  0.00  0.00    +0.290 C 
ATOM      4  N   LIG    1       -6.418   4.007  -0.008  0.00  0.00    -0.610 N 
ATOM      5  C   LIG    1       -5.684   3.833   1.252  0.00  0.00    +0.290 C 
ATOM      6  C   LIG    1       -7.711   3.642  -0.106  0.00  0.00    +0.570 C 
ATOM      7  O   LIG    1       -8.311   3.259   0.880  0.00  0.00    -0.530 OA
ATOM      8  C   LIG    1       -5.058   5.174   1.648  0.00  0.00    +0.010 C 
ENDROOT
BRANCH   6   9
ATOM      9  C   LIG    1       -8.401   3.706  -1.410  0.00  0.00    -0.120 A 
ATOM     10  C   LIG    1       -9.727   4.094  -1.458  0.00  0.00    +0.160 A 
ATOM     11  C   LIG    1      -10.378   4.160  -2.699  0.00  0.00    +0.020 A 
ATOM     12  N   LIG    1      -11.590   4.477  -3.129  0.00  0.00    -0.250 NA
ATOM     13  N   LIG    1      -11.624   4.346  -4.410  0.00  0.00    -0.190 N 
ATOM     14  H   LIG    1      -12.412   4.523  -4.947  0.00  0.00    +0.480 HD
ATOM     15  N   LIG    1      -10.500   3.954  -4.901  0.00  0.00    -0.270 NA
ATOM     16  C   LIG    1       -9.632   3.801  -3.915  0.00  0.00    +0.040 A 
ATOM     17  C   LIG    1       -8.284   3.408  -3.801  0.00  0.00    +0.080 A 
ATOM     18  C   LIG    1       -7.696   3.365  -2.581  0.00  0.00    +0.060 A 
ENDBRANCH   6   9
BRANCH   1  20
ATOM     19  C   LIG    1       -4.408   8.081   1.329  0.00  0.00    +0.290 C 
ATOM     20  N   LIG    1       -3.578   6.962   0.878  0.00  0.00    -0.600 N 
BRANCH  20  21
ATOM     21  C   LIG    1       -2.196   7.102   0.817  0.00  0.00    +0.340 A 
ATOM     22  C   LIG    1       -1.422   6.135   0.176  0.00  0.00    -0.030 A 
ATOM     23  C   LIG    1       -0.048   6.318   0.147  0.00  0.00    +0.070 A 
ATOM     24  C   LIG    1        0.471   7.457   0.747  0.00  0.00    +0.150 A 
ATOM     25  N   LIG    1       -0.337   8.323   1.326  0.00  0.00    -0.200 NA
ATOM     26  N   LIG    1       -1.609   8.158   1.361  0.00  0.00    -0.310 NA
ENDBRANCH  20  21
ENDBRANCH   1  20
TORSDOF 3
