REMARK  Name = ZINCrH000004nMSt.0
REMARK                            x       y       z     vdW  Elec       q    Type
REMARK                         _______ _______ _______ _____ _____    ______ ____
ROOT
ATOM      1  C   LIG    1       -2.503   1.008   0.017  0.00  0.00    +0.560 C 
ATOM      2  N   LIG    1       -3.676   1.670   0.028  0.00  0.00    -0.670 N 
ATOM      3  H   LIG    1       -3.687   2.636   0.108  0.00  0.00    +0.420 HD
ATOM      4  O   LIG    1       -2.491  -0.208   0.001  0.00  0.00    -0.510 OA
ENDROOT
BRANCH   2   5
ATOM      5  C   LIG    1       -4.879   0.963  -0.076  0.00  0.00    +0.150 A 
ATOM      6  C   LIG    1       -5.003  -0.290   0.508  0.00  0.00    +0.080 A 
ATOM      7  C   LIG    1       -6.191  -0.986   0.404  0.00  0.00    +0.060 A 
ATOM      8  C   LIG    1       -7.259  -0.435  -0.282  0.00  0.00    -0.010 A 
ATOM      9  C   LIG    1       -7.138   0.814  -0.867  0.00  0.00    -0.160 A 
ATOM     10 CL   LIG    1       -8.751  -1.312  -0.412  0.00  0.00    -0.040 Cl
ATOM     11  C   LIG    1       -5.954   1.517  -0.760  0.00  0.00    +0.060 A 
BRANCH   9  12
ATOM     12  C   LIG    1       -8.303   1.411  -1.613  0.00  0.00    +0.510 C 
ATOM     13  F   LIG    1       -9.393   1.547  -0.747  0.00  0.00    -0.170 F 
ATOM     14  F   LIG    1       -8.655   0.573  -2.677  0.00  0.00    -0.170 F 
ATOM     15  F   LIG    1       -7.944   2.669  -2.110  0.00  0.00    -0.170 F 
ENDBRANCH   9  12
ENDBRANCH   2   5
BRANCH   1  19
ATOM     16  C   LIG    1        1.155   3.167   0.030  0.00  0.00    -0.050 A 
ATOM     17  C   LIG    1        1.172   1.784   0.012  0.00  0.00    +0.020 A 
ATOM     18  C   LIG    1       -0.013   1.076   0.012  0.00  0.00    +0.090 A 
ATOM     19  C   LIG    1       -1.230   1.759   0.024  0.00  0.00    -0.140 A 
ATOM     20  C   LIG    1       -1.240   3.155   0.047  0.00  0.00    +0.050 A 
ATOM     21  C   LIG    1       -0.049   3.850   0.047  0.00  0.00    +0.010 A 
BRANCH  16  22
ATOM     22  C   LIG    1        2.452   3.934   0.031  0.00  0.00    +0.090 C 
BRANCH  22  23
ATOM     23  C   LIG    1        2.882   4.211  -1.411  0.00  0.00    +0.280 C 
BRANCH  23  24
ATOM     24  N   LIG    1        4.143   4.956  -1.410  0.00  0.00    -1.120 NA
ATOM     25  H   LIG    1        4.456   5.380  -0.595  0.00  0.00    +0.420 HD
BRANCH  24  27
ATOM     26  C   LIG    1        3.988   6.032  -3.930  0.00  0.00    -0.280 C 
ATOM     27  S   LIG    1        5.035   5.075  -2.800  0.00  0.00    +2.610 S 
ATOM     28  O   LIG    1        5.161   3.734  -3.251  0.00  0.00    -0.950 OA
ATOM     29  O   LIG    1        6.178   5.830  -2.419  0.00  0.00    -0.960 OA
ENDBRANCH  24  27
ENDBRANCH  23  24
ENDBRANCH  22  23
ENDBRANCH  16  22
ENDBRANCH   1  19
TORSDOF 7
