REMARK  Name = ZINCpe000000YeCl.0
REMARK                            x       y       z     vdW  Elec       q    Type
REMARK                         _______ _______ _______ _____ _____    ______ ____
ROOT
ATOM      1  C   LIG    1        1.632   4.669  -0.001  0.00  0.00    +0.360 C 
ATOM      2  N   LIG    1        2.301   3.366  -0.007  0.00  0.00    -0.460 N 
ATOM      3  C   LIG    1        3.647   3.128  -0.016  0.00  0.00    +0.200 A 
ATOM      4  N   LIG    1        3.813   1.836  -0.025  0.00  0.00    -0.280 NA
ATOM      5  N   LIG    1        2.672   1.244  -0.017  0.00  0.00    -0.290 NA
ATOM      6  C   LIG    1        1.708   2.135  -0.003  0.00  0.00    +0.140 A 
ENDROOT
BRANCH   3   7
ATOM      7  C   LIG    1        4.737   4.169  -0.020  0.00  0.00    +0.210 C 
BRANCH   7   8
ATOM      8  C   LIG    1        5.088   4.524  -1.442  0.00  0.00    -0.090 A 
ATOM      9  C   LIG    1        6.079   3.824  -2.105  0.00  0.00    +0.030 A 
ATOM     10  C   LIG    1        6.396   4.146  -3.411  0.00  0.00    +0.010 A 
ATOM     11  C   LIG    1        5.730   5.174  -4.051  0.00  0.00    +0.000 A 
ATOM     12  C   LIG    1        4.743   5.878  -3.387  0.00  0.00    +0.000 A 
ATOM     13  C   LIG    1        4.422   5.552  -2.082  0.00  0.00    +0.000 A 
ENDBRANCH   7   8
ENDBRANCH   3   7
BRANCH   6  14
ATOM     14  S   LIG    1       -0.022   1.806   0.012  0.00  0.00    +0.080 S 
BRANCH  14  15
ATOM     15  C   LIG    1        0.002  -0.004   0.002  0.00  0.00    +0.110 C 
BRANCH  15  16
ATOM     16  C   LIG    1       -1.412  -0.526   0.013  0.00  0.00    +0.540 C 
ATOM     17  N   LIG    1       -1.640  -1.854   0.008  0.00  0.00    -0.710 N 
ATOM     18  H   LIG    1       -0.894  -2.474  -0.003  0.00  0.00    +0.410 HD
ATOM     19  O   LIG    1       -2.344   0.250   0.026  0.00  0.00    -0.520 OA
BRANCH  17  20
ATOM     20  C   LIG    1       -3.014  -2.361   0.018  0.00  0.00    +0.280 C 
ATOM     21  C   LIG    1       -3.039  -3.776   0.623  0.00  0.00    +0.080 C 
ATOM     22  C   LIG    1       -4.434  -4.371   0.302  0.00  0.00    -0.300 C 
ATOM     23  S   LIG    1       -4.696  -3.859  -1.438  0.00  0.00    +2.400 S 
ATOM     24  O   LIG    1       -6.029  -3.393  -1.597  0.00  0.00    -0.930 OA
ATOM     25  O   LIG    1       -4.186  -4.862  -2.306  0.00  0.00    -0.930 OA
ATOM     26  C   LIG    1       -3.552  -2.431  -1.425  0.00  0.00    -0.330 C 
ENDBRANCH  17  20
ENDBRANCH  15  16
ENDBRANCH  14  15
ENDBRANCH   6  14
TORSDOF 6
