REMARK  Name = ZINCqH00000003nk.0
REMARK                            x       y       z     vdW  Elec       q    Type
REMARK                         _______ _______ _______ _____ _____    ______ ____
ROOT
ATOM      1  C   LIG    1       -4.479   4.729   0.734  0.00  0.00    +0.470 C 
ATOM      2  N   LIG    1       -4.195   6.134   0.452  0.00  0.00    -0.750 N 
ATOM      3  H   LIG    1       -4.923   6.774   0.424  0.00  0.00    +0.410 HD
ATOM      4  C   LIG    1       -2.926   6.551   0.230  0.00  0.00    +0.600 C 
ATOM      5  C   LIG    1       -1.948   5.519   0.084  0.00  0.00    -0.310 A 
ATOM      6  C   LIG    1       -2.315   4.203  -0.051  0.00  0.00    +0.170 A 
ATOM      7  C   LIG    1       -1.180   3.301  -0.167  0.00  0.00    -0.130 A 
ATOM      8  C   LIG    1       -1.174   1.895  -0.311  0.00  0.00    +0.030 A 
ATOM      9  C   LIG    1        0.035   1.243  -0.403  0.00  0.00    -0.040 A 
ATOM     10  C   LIG    1        1.211   1.978  -0.363  0.00  0.00    +0.180 A 
ATOM     11  N   LIG    1        1.189   3.284  -0.233  0.00  0.00    -0.470 NA
ATOM     12  C   LIG    1        2.534   1.266  -0.472  0.00  0.00    +0.140 C 
ATOM     13  C   LIG    1       -2.467   1.122  -0.357  0.00  0.00    +0.110 C 
ATOM     14  C   LIG    1        0.047   3.971  -0.132  0.00  0.00    +0.070 A 
ATOM     15  S   LIG    1       -0.212   5.702   0.052  0.00  0.00    +0.260 S 
ATOM     16  O   LIG    1       -2.636   7.732   0.160  0.00  0.00    -0.520 OA
ATOM     17  N   LIG    1       -3.664   3.825  -0.082  0.00  0.00    -0.590 N 
ATOM     18  H   LIG    1       -4.006   3.785  -1.030  0.00  0.00    +0.370 HD
ENDROOT
BRANCH   1  24
ATOM     19  C   LIG    1       -6.600   3.454   1.141  0.00  0.00    +0.170 A 
ATOM     20  C   LIG    1       -7.941   3.213   0.885  0.00  0.00    -0.070 A 
ATOM     21  C   LIG    1       -8.610   3.967  -0.060  0.00  0.00    +0.070 A 
ATOM     22  C   LIG    1       -7.944   4.965  -0.747  0.00  0.00    -0.020 A 
ATOM     23  C   LIG    1       -6.608   5.211  -0.490  0.00  0.00    +0.060 A 
ATOM     24  C   LIG    1       -5.935   4.460   0.454  0.00  0.00    -0.150 A 
BRANCH  19  25
ATOM     25  O   LIG    1       -5.939   2.710   2.066  0.00  0.00    -0.300 OA
BRANCH  25  26
ATOM     26  C   LIG    1       -6.686   1.691   2.733  0.00  0.00    +0.350 C 
BRANCH  26  28
ATOM     27  C   LIG    1       -5.121   0.435   4.457  0.00  0.00    +0.070 C 
ATOM     28  C   LIG    1       -5.815   0.992   3.693  0.00  0.00    -0.210 C 
ENDBRANCH  26  28
ENDBRANCH  25  26
ENDBRANCH  19  25
ENDBRANCH   1  24
TORSDOF 4
