REMARK  Name = ZINC650000002svj.0
REMARK                            x       y       z     vdW  Elec       q    Type
REMARK                         _______ _______ _______ _____ _____    ______ ____
ROOT
ATOM      1  N   LIG    1        0.529   3.512   1.271  0.00  0.00    -0.510 N 
ATOM      2  H   LIG    1        1.111   3.223   2.043  0.00  0.00    +0.430 HD
ATOM      3  H   LIG    1       -0.383   3.089   1.361  0.00  0.00    +0.430 HD
ENDROOT
BRANCH   1   5
ATOM      4  C   LIG    1       -0.249   5.419   2.596  0.00  0.00    +0.080 C 
ATOM      5  C   LIG    1        0.393   4.974   1.280  0.00  0.00    +0.250 C 
ENDBRANCH   1   5
BRANCH   1   6
ATOM      6  C   LIG    1        1.145   3.085   0.008  0.00  0.00    +0.280 C 
BRANCH   6   7
ATOM      7  C   LIG    1        1.286   1.562  -0.002  0.00  0.00    +0.210 C 
BRANCH   7   8
ATOM      8  O   LIG    1       -0.011   0.963   0.007  0.00  0.00    -0.580 OA
ATOM      9  H   LIG    1        0.002  -0.004   0.002  0.00  0.00    +0.410 HD
ENDBRANCH   7   8
ENDBRANCH   6   7
ENDBRANCH   1   6
TORSDOF 4
