REMARK  Name = ZINCrD0000074viY.0
REMARK                            x       y       z     vdW  Elec       q    Type
REMARK                         _______ _______ _______ _____ _____    ______ ____
ROOT
ATOM      1  C   LIG    1        2.276   1.798   0.855  0.00  0.00    +0.570 C 
ATOM      2  N   LIG    1        2.634   3.095   0.789  0.00  0.00    -0.610 N 
ATOM      3  C   LIG    1        1.614   4.152   0.747  0.00  0.00    +0.270 C 
ATOM      4  C   LIG    1        1.887   5.136   1.897  0.00  0.00    +0.280 C 
ATOM      5  N   LIG    1        3.305   5.519   1.859  0.00  0.00    -0.610 N 
ATOM      6  C   LIG    1        4.326   4.461   1.896  0.00  0.00    +0.290 C 
ATOM      7  C   LIG    1        3.664   6.816   1.792  0.00  0.00    +0.530 C 
ATOM      8  O   LIG    1        4.837   7.124   1.829  0.00  0.00    -0.530 OA
ATOM      9  C   LIG    1        4.053   3.478   0.751  0.00  0.00    +0.280 C 
ATOM     10  O   LIG    1        3.125   0.938   0.985  0.00  0.00    -0.520 OA
ENDROOT
BRANCH   1  18
ATOM     11  C   LIG    1        1.147   0.018   2.837  0.00  0.00    +0.110 C 
ATOM     12  C   LIG    1        0.294   0.562   1.720  0.00  0.00    -0.000 A 
ATOM     13  C   LIG    1       -1.037   0.213   1.635  0.00  0.00    -0.020 A 
ATOM     14  C   LIG    1       -1.823   0.712   0.608  0.00  0.00    +0.130 A 
ATOM     15  C   LIG    1       -1.276   1.565  -0.339  0.00  0.00    -0.020 A 
ATOM     16  C   LIG    1        0.054   1.920  -0.263  0.00  0.00    +0.080 A 
ATOM     17  F   LIG    1       -3.127   0.367   0.529  0.00  0.00    -0.130 F 
ATOM     18  C   LIG    1        0.850   1.420   0.769  0.00  0.00    -0.150 A 
ENDBRANCH   1  18
BRANCH   7  19
ATOM     19  C   LIG    1        2.609   7.885   1.671  0.00  0.00    -0.040 C 
ATOM     20  C   LIG    1        3.281   9.249   1.507  0.00  0.00    +0.080 C 
ATOM     21  C   LIG    1        1.743   7.891   2.933  0.00  0.00    +0.070 C 
BRANCH  19  22
ATOM     22  C   LIG    1        1.744   7.603   0.470  0.00  0.00    -0.080 A 
ATOM     23  C   LIG    1        2.123   6.636  -0.443  0.00  0.00    +0.000 A 
ATOM     24  C   LIG    1        1.327   6.374  -1.543  0.00  0.00    +0.000 A 
ATOM     25  C   LIG    1        0.158   7.086  -1.735  0.00  0.00    +0.010 A 
ATOM     26  C   LIG    1       -0.218   8.057  -0.825  0.00  0.00    +0.020 A 
ATOM     27  C   LIG    1        0.575   8.315   0.277  0.00  0.00    +0.020 A 
ENDBRANCH  19  22
ENDBRANCH   7  19
TORSDOF 3
