REMARK  Name = ZINCpe00000gMeFk.0
REMARK                            x       y       z     vdW  Elec       q    Type
REMARK                         _______ _______ _______ _____ _____    ______ ____
ROOT
ATOM      1  C   LIG    1        2.108   0.049  -1.338  0.00  0.00    +0.230 C 
ATOM      2  C   LIG    1        0.680  -0.499  -1.278  0.00  0.00    +0.030 C 
ATOM      3  C   LIG    1        0.002  -0.004   0.002  0.00  0.00    +0.230 C 
ATOM      4  N   LIG    1       -0.018   1.464   0.010  0.00  0.00    -0.470 N 
ATOM      5  C   LIG    1        1.344   2.014   0.000  0.00  0.00    +0.200 C 
ATOM      6  C   LIG    1        2.062   1.579  -1.280  0.00  0.00    +0.040 C 
ENDROOT
BRANCH   4   7
ATOM      7  C   LIG    1       -0.739   1.945   1.091  0.00  0.00    +0.360 A 
ATOM      8  C   LIG    1       -0.880   3.320   1.294  0.00  0.00    -0.090 A 
ATOM      9  C   LIG    1       -1.613   3.754   2.382  0.00  0.00    +0.200 A 
ATOM     10  N   LIG    1       -2.147   2.861   3.201  0.00  0.00    -0.530 NA
ATOM     11  C   LIG    1       -1.993   1.563   2.987  0.00  0.00    +0.390 A 
ATOM     12  C   LIG    1       -1.797   5.228   2.638  0.00  0.00    +0.150 C 
ATOM     13  N   LIG    1       -1.303   1.105   1.952  0.00  0.00    -0.550 NA
BRANCH  11  14
ATOM     14  C   LIG    1       -2.608   0.596   3.930  0.00  0.00    -0.000 A 
ATOM     15  C   LIG    1       -2.473  -0.781   3.736  0.00  0.00    +0.020 A 
ATOM     16  C   LIG    1       -3.057  -1.645   4.641  0.00  0.00    +0.250 A 
ATOM     17  N   LIG    1       -3.743  -1.187   5.670  0.00  0.00    -0.470 NA
ATOM     18  C   LIG    1       -3.899   0.105   5.886  0.00  0.00    +0.250 A 
ATOM     19  C   LIG    1       -3.344   1.038   5.033  0.00  0.00    +0.030 A 
ENDBRANCH  11  14
ENDBRANCH   4   7
BRANCH   1  20
ATOM     20  N   LIG    1        2.742  -0.373  -2.589  0.00  0.00    -1.120 NA
ATOM     21  H   LIG    1        2.214  -0.447  -3.400  0.00  0.00    +0.420 HD
BRANCH  20  22
ATOM     22  S   LIG    1        4.360  -0.726  -2.620  0.00  0.00    +2.790 S 
ATOM     23  O   LIG    1        5.018   0.354  -1.971  0.00  0.00    -0.980 OA
ATOM     24  O   LIG    1        4.657  -1.131  -3.949  0.00  0.00    -0.980 OA
BRANCH  22  26
ATOM     25  C   LIG    1        4.000  -3.343  -2.042  0.00  0.00    +0.300 C 
ATOM     26  N   LIG    1        4.590  -2.057  -1.662  0.00  0.00    -1.130 NA
ATOM     27  H   LIG    1        5.115  -1.985  -0.850  0.00  0.00    +0.420 HD
ENDBRANCH  22  26
ENDBRANCH  20  22
ENDBRANCH   1  20
TORSDOF 5
