REMARK  Name = ZINCrH00000tj1o3.1
REMARK                            x       y       z     vdW  Elec       q    Type
REMARK                         _______ _______ _______ _____ _____    ______ ____
ROOT
ATOM      1  N   LIG    1        2.570   2.866  -0.018  0.00  0.00    -0.620 N 
ATOM      2  H   LIG    1        2.182   3.756  -0.015  0.00  0.00    +0.430 HD
ATOM      3  C   LIG    1        3.909   2.715  -0.021  0.00  0.00    +0.590 C 
ATOM      4  O   LIG    1        4.395   1.603   0.070  0.00  0.00    -0.480 OA
ENDROOT
BRANCH   3   5
ATOM      5  C   LIG    1        4.782   3.893  -0.135  0.00  0.00    -0.350 A 
ATOM      6  C   LIG    1        6.149   3.746  -0.253  0.00  0.00    +0.460 A 
ATOM      7  N   LIG    1        6.975   4.795  -0.359  0.00  0.00    -0.470 N 
ATOM      8  C   LIG    1        6.534   6.098  -0.358  0.00  0.00    +0.380 A 
ATOM      9  N   LIG    1        7.398   7.099  -0.467  0.00  0.00    -0.520 NA
ATOM     10  C   LIG    1        7.005   8.356  -0.471  0.00  0.00    +0.200 A 
ATOM     11  C   LIG    1        5.667   8.700  -0.360  0.00  0.00    -0.050 A 
ATOM     12  C   LIG    1        4.718   7.699  -0.244  0.00  0.00    +0.180 A 
ATOM     13  C   LIG    1        8.036   9.448  -0.598  0.00  0.00    +0.150 C 
ATOM     14  C   LIG    1        5.160   6.375  -0.243  0.00  0.00    -0.240 A 
ATOM     15  C   LIG    1        4.214   5.251  -0.130  0.00  0.00    +0.440 A 
ATOM     16  O   LIG    1        3.014   5.438  -0.033  0.00  0.00    -0.490 OA
BRANCH   7  17
ATOM     17  C   LIG    1        8.413   4.543  -0.481  0.00  0.00    +0.300 C 
ATOM     18  C   LIG    1        8.785   4.413  -1.959  0.00  0.00    +0.040 C 
ENDBRANCH   7  17
ENDBRANCH   3   5
BRANCH   1  22
ATOM     19  C   LIG    1        0.004  -0.007  -0.022  0.00  0.00    +0.030 A 
ATOM     20  N   LIG    1        1.241  -0.386  -0.026  0.00  0.00    -0.230 NA
ATOM     21  N   LIG    1        2.132   0.506  -0.025  0.00  0.00    -0.270 NA
ATOM     22  C   LIG    1        1.744   1.749  -0.020  0.00  0.00    +0.260 A 
ATOM     23  S   LIG    1       -0.021   1.758  -0.017  0.00  0.00    +0.050 S 
BRANCH  19  24
ATOM     24  C   LIG    1       -1.201  -0.911  -0.022  0.00  0.00    +0.090 C 
BRANCH  24  26
ATOM     25  C   LIG    1       -2.464  -2.619  -1.339  0.00  0.00    +0.030 C 
ATOM     26  C   LIG    1       -1.179  -1.790  -1.275  0.00  0.00    +0.030 C 
ENDBRANCH  24  26
BRANCH  24  27
ATOM     27  C   LIG    1       -1.173  -1.798   1.224  0.00  0.00    +0.040 C 
ATOM     28  C   LIG    1       -1.321  -0.927   2.473  0.00  0.00    +0.010 C 
ENDBRANCH  24  27
ENDBRANCH  19  24
ENDBRANCH   1  22
TORSDOF 6
