REMARK  Name = ZINCwl0000000gjP.0
REMARK                            x       y       z     vdW  Elec       q    Type
REMARK                         _______ _______ _______ _____ _____    ______ ____
ROOT
ATOM      1  N   LIG    1       -2.125  -0.088   5.726  0.00  0.00    -0.460 N 
ATOM      2  C   LIG    1       -0.779  -0.627   5.493  0.00  0.00    +0.230 C 
ATOM      3  C   LIG    1        0.090   0.447   4.830  0.00  0.00    +0.310 C 
ATOM      4  N   LIG    1       -0.603   0.931   3.626  0.00  0.00    -0.580 N 
ATOM      5  C   LIG    1       -2.002   1.366   3.756  0.00  0.00    +0.290 C 
ATOM      6  C   LIG    1        0.030   0.979   2.437  0.00  0.00    +0.510 C 
ATOM      7  O   LIG    1        1.185   0.621   2.349  0.00  0.00    -0.520 OA
ATOM      8  C   LIG    1       -2.790   0.250   4.460  0.00  0.00    +0.220 C 
ENDROOT
BRANCH   1  13
ATOM      9  C   LIG    1       -6.980  -2.021   8.555  0.00  0.00    +0.170 A 
ATOM     10  C   LIG    1       -6.227  -1.136   7.815  0.00  0.00    -0.040 A 
ATOM     11  C   LIG    1       -4.906  -1.464   7.483  0.00  0.00    +0.230 A 
ATOM     12  N   LIG    1       -4.132  -0.635   6.765  0.00  0.00    -0.560 NA
ATOM     13  C   LIG    1       -2.891  -0.970   6.468  0.00  0.00    +0.530 A 
ATOM     14  N   LIG    1       -2.348  -2.123   6.848  0.00  0.00    -0.630 NA
ATOM     15  C   LIG    1       -3.029  -3.006   7.564  0.00  0.00    +0.500 A 
ATOM     16  C   LIG    1       -4.366  -2.700   7.913  0.00  0.00    -0.210 A 
ATOM     17  C   LIG    1       -5.154  -3.582   8.664  0.00  0.00    +0.000 A 
ATOM     18  C   LIG    1       -6.439  -3.243   8.977  0.00  0.00    +0.100 A 
BRANCH  15  19
ATOM     19  N   LIG    1       -2.450  -4.195   7.956  0.00  0.00    -0.820 N 
ATOM     20  H   LIG    1       -1.532  -4.392   7.710  0.00  0.00    +0.410 HD
ATOM     21  H   LIG    1       -2.961  -4.834   8.477  0.00  0.00    +0.410 HD
ENDBRANCH  15  19
BRANCH   9  23
ATOM     22  C   LIG    1       -8.755  -0.446   8.419  0.00  0.00    +0.250 C 
ATOM     23  O   LIG    1       -8.261  -1.706   8.878  0.00  0.00    -0.300 OA
ENDBRANCH   9  23
BRANCH  18  24
ATOM     24  O   LIG    1       -7.202  -4.101   9.706  0.00  0.00    -0.300 OA
ATOM     25  C   LIG    1       -6.594  -5.330  10.107  0.00  0.00    +0.250 C 
ENDBRANCH  18  24
ENDBRANCH   1  13
BRANCH   6  26
ATOM     26  C   LIG    1       -0.699   1.479   1.216  0.00  0.00    +0.220 C 
BRANCH  26  27
ATOM     27  C   LIG    1       -0.720   2.985   1.224  0.00  0.00    -0.210 C 
ATOM     28  C   LIG    1       -1.860   3.620   1.338  0.00  0.00    +0.080 C 
ATOM     29  C   LIG    1       -1.898   5.128   1.348  0.00  0.00    +0.110 C 
ATOM     30  C   LIG    1       -0.973   5.648   0.235  0.00  0.00    -0.030 C 
ATOM     31  C   LIG    1        0.312   6.353   0.671  0.00  0.00    +0.040 C 
ATOM     32  C   LIG    1        0.367   4.902   0.102  0.00  0.00    -0.050 C 
ATOM     33  C   LIG    1        0.574   3.753   1.108  0.00  0.00    +0.110 C 
ENDBRANCH  26  27
BRANCH  26  34
ATOM     34  N   LIG    1       -0.012   1.005   0.008  0.00  0.00    -0.620 N 
ATOM     35  H   LIG    1       -0.500   1.339  -0.810  0.00  0.00    +0.440 HD
ATOM     36  H   LIG    1        0.935   1.354   0.000  0.00  0.00    +0.440 HD
ATOM     37  H   LIG    1        0.002  -0.004   0.002  0.00  0.00    +0.440 HD
ENDBRANCH  26  34
ENDBRANCH   6  26
TORSDOF 7
