REMARK  Name = ZINCqH0000005dyp.0
REMARK                            x       y       z     vdW  Elec       q    Type
REMARK                         _______ _______ _______ _____ _____    ______ ____
ROOT
ATOM      1  C   LIG    1       -0.101   8.430   2.978  0.00  0.00    +0.280 C 
ATOM      2  N   LIG    1        1.148   7.710   2.717  0.00  0.00    -0.630 N 
ATOM      3  C   LIG    1        2.101   8.270   1.946  0.00  0.00    +0.700 C 
ATOM      4  N   LIG    1        1.906   9.493   1.415  0.00  0.00    -0.730 N 
ATOM      5  H   LIG    1        1.079   9.970   1.588  0.00  0.00    +0.390 HD
ATOM      6  O   LIG    1        3.138   7.672   1.730  0.00  0.00    -0.570 OA
ENDROOT
BRANCH   4   7
ATOM      7  C   LIG    1        2.936  10.098   0.582  0.00  0.00    +0.290 C 
ATOM      8  C   LIG    1        2.424  11.188  -0.334  0.00  0.00    +0.040 C 
ATOM      9  C   LIG    1        1.667  12.334   0.274  0.00  0.00    -0.060 C 
ATOM     10  C   LIG    1        2.314  13.082   1.414  0.00  0.00    +0.040 C 
ATOM     11  C   LIG    1        2.642  12.206   2.617  0.00  0.00    +0.060 C 
ATOM     12  C   LIG    1        3.979  11.539   2.364  0.00  0.00    -0.070 A 
ATOM     13  C   LIG    1        5.072  11.936   3.118  0.00  0.00    -0.010 A 
ATOM     14  C   LIG    1        6.305  11.351   2.900  0.00  0.00    +0.010 A 
ATOM     15  C   LIG    1        6.441  10.374   1.933  0.00  0.00    -0.010 A 
ATOM     16  C   LIG    1        5.346   9.981   1.188  0.00  0.00    +0.030 A 
ATOM     17  C   LIG    1        0.261  11.893   0.686  0.00  0.00    +0.020 C 
ATOM     18  C   LIG    1        1.467  13.372  -0.859  0.00  0.00    +0.030 C 
ATOM     19  C   LIG    1        4.108  10.568   1.411  0.00  0.00    -0.090 A 
ENDBRANCH   4   7
BRANCH   2  20
ATOM     20  C   LIG    1        1.361   6.380   3.295  0.00  0.00    +0.310 C 
BRANCH  20  21
ATOM     21  C   LIG    1        0.843   5.314   2.326  0.00  0.00    +0.090 C 
BRANCH  21  22
ATOM     22  C   LIG    1        1.062   3.947   2.920  0.00  0.00    +0.080 A 
ATOM     23  C   LIG    1       -0.003   3.075   3.060  0.00  0.00    +0.220 A 
ATOM     24  N   LIG    1        0.190   1.874   3.576  0.00  0.00    -0.440 NA
ATOM     25  C   LIG    1        1.398   1.509   3.968  0.00  0.00    +0.210 A 
ATOM     26  C   LIG    1        2.463   2.381   3.828  0.00  0.00    +0.230 A 
ATOM     27  N   LIG    1        2.271   3.580   3.307  0.00  0.00    -0.430 NA
ENDBRANCH  21  22
ENDBRANCH  20  21
ENDBRANCH   2  20
TORSDOF 4
