REMARK  Name = ZINCtj00001UqOAl.2
REMARK                            x       y       z     vdW  Elec       q    Type
REMARK                         _______ _______ _______ _____ _____    ______ ____
ROOT
ATOM      1  C   LIG    1        0.047   1.024   0.112  0.00  0.00    +0.260 C 
ENDROOT
BRANCH   1   5
ATOM      2  C   LIG    1       -1.752   2.291   3.724  0.00  0.00    +0.120 A 
ATOM      3  C   LIG    1       -2.223   1.130   3.119  0.00  0.00    +0.070 A 
ATOM      4  C   LIG    1       -1.632   0.718   1.935  0.00  0.00    +0.050 A 
ATOM      5  C   LIG    1       -0.602   1.466   1.399  0.00  0.00    +0.020 A 
ATOM      6  N   LIG    1       -0.175   2.559   2.001  0.00  0.00    -0.450 NA
ATOM      7  C   LIG    1       -0.713   2.989   3.124  0.00  0.00    +0.210 A 
BRANCH   2   8
ATOM      8  O   LIG    1       -2.300   2.734   4.886  0.00  0.00    -0.300 OA
BRANCH   8  10
ATOM      9  C   LIG    1       -2.497   4.273   6.739  0.00  0.00    +0.070 C 
ATOM     10  C   LIG    1       -1.759   3.933   5.442  0.00  0.00    +0.190 C 
ENDBRANCH   8  10
ENDBRANCH   2   8
ENDBRANCH   1   5
BRANCH   1  11
ATOM     11  N   LIG    1        1.415   1.556   0.046  0.00  0.00    -0.360 N 
ATOM     12  C   LIG    1        2.205   1.084   1.212  0.00  0.00    +0.290 C 
ATOM     13  C   LIG    1        3.670   1.225   0.729  0.00  0.00    +0.120 C 
ATOM     14  C   LIG    1        3.583   0.819  -0.760  0.00  0.00    +0.040 C 
ATOM     15  C   LIG    1        2.109   1.030  -1.150  0.00  0.00    +0.230 C 
ATOM     16  H   LIG    1        1.396   2.564   0.022  0.00  0.00    +0.440 HD
BRANCH  15  17
ATOM     17  C   LIG    1        1.482  -0.300  -1.574  0.00  0.00    -0.090 C 
ATOM     18  C   LIG    1        2.241  -1.582  -1.225  0.00  0.00    +0.050 C 
ATOM     19  C   LIG    1        2.187  -1.094  -2.675  0.00  0.00    +0.090 C 
ENDBRANCH  15  17
BRANCH  14  20
ATOM     20  C   LIG    1        4.477   1.698  -1.597  0.00  0.00    +0.460 C 
ATOM     21  O   LIG    1        3.996   2.429  -2.430  0.00  0.00    -0.490 OA
BRANCH  20  22
ATOM     22  O   LIG    1        5.806   1.668  -1.417  0.00  0.00    -0.350 OA
ATOM     23  C   LIG    1        6.605   2.541  -2.259  0.00  0.00    +0.280 C 
ENDBRANCH  20  22
ENDBRANCH  14  20
ENDBRANCH   1  11
BRANCH   1  24
ATOM     24  C   LIG    1       -0.751   1.543  -1.056  0.00  0.00    +0.510 C 
ATOM     25  N   LIG    1       -2.042   1.185  -1.203  0.00  0.00    -0.700 N 
ATOM     26  H   LIG    1       -2.458   0.594  -0.556  0.00  0.00    +0.410 HD
ATOM     27  O   LIG    1       -0.231   2.283  -1.865  0.00  0.00    -0.500 OA
BRANCH  25  28
ATOM     28  C   LIG    1       -2.817   1.690  -2.339  0.00  0.00    +0.210 C 
ATOM     29  C   LIG    1       -3.885   2.730  -1.951  0.00  0.00    +0.220 C 
ATOM     30  O   LIG    1       -4.749   2.014  -2.856  0.00  0.00    -0.360 OA
ATOM     31  C   LIG    1       -4.002   0.787  -2.733  0.00  0.00    +0.230 C 
ENDBRANCH  25  28
ENDBRANCH   1  24
TORSDOF 9
