REMARK  Name = ZINCtj00001UqOAl.1
REMARK                            x       y       z     vdW  Elec       q    Type
REMARK                         _______ _______ _______ _____ _____    ______ ____
ROOT
ATOM      1  C   LIG    1        5.085   3.831   0.051  0.00  0.00    +0.250 C 
ENDROOT
BRANCH   1   5
ATOM      2  C   LIG    1        1.331   1.912   0.376  0.00  0.00    +0.120 A 
ATOM      3  C   LIG    1        1.358   3.289   0.183  0.00  0.00    +0.060 A 
ATOM      4  C   LIG    1        2.589   3.916   0.083  0.00  0.00    +0.050 A 
ATOM      5  C   LIG    1        3.742   3.158   0.166  0.00  0.00    +0.020 A 
ATOM      6  N   LIG    1        3.682   1.852   0.343  0.00  0.00    -0.440 NA
ATOM      7  C   LIG    1        2.531   1.218   0.449  0.00  0.00    +0.210 A 
BRANCH   2   8
ATOM      8  O   LIG    1        0.147   1.254   0.485  0.00  0.00    -0.300 OA
BRANCH   8  10
ATOM      9  C   LIG    1       -1.214  -0.722   0.776  0.00  0.00    +0.070 C 
ATOM     10  C   LIG    1        0.206  -0.161   0.676  0.00  0.00    +0.190 C 
ENDBRANCH   8  10
ENDBRANCH   2   8
ENDBRANCH   1   5
BRANCH   1  11
ATOM     11  N   LIG    1        6.058   2.890  -0.518  0.00  0.00    -0.370 N 
ATOM     12  C   LIG    1        7.418   3.486  -0.502  0.00  0.00    +0.280 C 
ATOM     13  C   LIG    1        8.172   2.680  -1.589  0.00  0.00    +0.120 C 
ATOM     14  C   LIG    1        7.091   2.470  -2.675  0.00  0.00    +0.040 C 
ATOM     15  C   LIG    1        5.747   2.633  -1.941  0.00  0.00    +0.230 C 
ATOM     16  H   LIG    1        6.051   2.025   0.002  0.00  0.00    +0.440 HD
BRANCH  15  17
ATOM     17  C   LIG    1        4.923   1.351  -2.071  0.00  0.00    -0.060 C 
ATOM     18  C   LIG    1        5.648   0.090  -2.548  0.00  0.00    +0.060 C 
ATOM     19  C   LIG    1        4.672   0.812  -3.481  0.00  0.00    +0.060 C 
ENDBRANCH  15  17
BRANCH  14  20
ATOM     20  C   LIG    1        7.226   3.510  -3.756  0.00  0.00    +0.470 C 
ATOM     21  O   LIG    1        6.320   4.280  -3.970  0.00  0.00    -0.500 OA
BRANCH  20  22
ATOM     22  O   LIG    1        8.353   3.581  -4.482  0.00  0.00    -0.350 OA
ATOM     23  C   LIG    1        8.413   4.608  -5.507  0.00  0.00    +0.280 C 
ENDBRANCH  20  22
ENDBRANCH  14  20
ENDBRANCH   1  11
BRANCH   1  24
ATOM     24  C   LIG    1        5.547   4.266   1.419  0.00  0.00    +0.520 C 
ATOM     25  N   LIG    1        4.807   5.135   2.135  0.00  0.00    -0.700 N 
ATOM     26  H   LIG    1        3.977   5.480   1.771  0.00  0.00    +0.410 HD
ATOM     27  O   LIG    1        6.585   3.833   1.874  0.00  0.00    -0.510 OA
BRANCH  25  28
ATOM     28  C   LIG    1        5.256   5.557   3.464  0.00  0.00    +0.210 C 
ATOM     29  C   LIG    1        4.449   4.936   4.620  0.00  0.00    +0.220 C 
ATOM     30  O   LIG    1        4.476   6.260   5.197  0.00  0.00    -0.360 OA
ATOM     31  C   LIG    1        4.666   6.904   3.921  0.00  0.00    +0.230 C 
ENDBRANCH  25  28
ENDBRANCH   1  24
TORSDOF 9
