REMARK  Name = ZINCrH00000No4W5.0
REMARK                            x       y       z     vdW  Elec       q    Type
REMARK                         _______ _______ _______ _____ _____    ______ ____
ROOT
ATOM      1  N   LIG    1        0.299   5.744  -1.168  0.00  0.00    -0.540 NA
ENDROOT
BRANCH   1   2
ATOM      2  C   LIG    1        0.514   5.455   0.256  0.00  0.00    +0.260 C 
BRANCH   2   9
ATOM      3  C   LIG    1       -0.882   3.415   0.648  0.00  0.00    +0.070 A 
ATOM      4  C   LIG    1       -0.993   2.046   0.863  0.00  0.00    -0.060 A 
ATOM      5  C   LIG    1        0.168   1.292   0.924  0.00  0.00    -0.020 A 
ATOM      6  C   LIG    1        1.389   1.920   0.760  0.00  0.00    +0.250 A 
ATOM      7  N   LIG    1        1.459   3.220   0.554  0.00  0.00    -0.460 NA
ATOM      8  C   LIG    1       -2.343   1.397   1.031  0.00  0.00    +0.110 C 
ATOM      9  C   LIG    1        0.378   3.973   0.494  0.00  0.00    +0.120 A 
BRANCH   3  11
ATOM     10  C   LIG    1       -2.591   4.371  -0.701  0.00  0.00    +0.240 C 
ATOM     11  O   LIG    1       -1.994   4.195   0.586  0.00  0.00    -0.320 OA
ENDBRANCH   3  11
ENDBRANCH   2   9
ENDBRANCH   1   2
BRANCH   1  12
ATOM     12  C   LIG    1        0.016   7.170  -1.379  0.00  0.00    +0.210 C 
BRANCH  12  13
ATOM     13  C   LIG    1       -0.444   7.390  -2.821  0.00  0.00    -0.020 C 
ATOM     14  C   LIG    1        0.439   8.258  -3.720  0.00  0.00    +0.030 C 
ATOM     15  C   LIG    1       -0.900   8.798  -3.210  0.00  0.00    +0.000 C 
BRANCH  15  16
ATOM     16  C   LIG    1       -2.027   8.916  -4.204  0.00  0.00    -0.050 A 
ATOM     17  C   LIG    1       -1.888   8.385  -5.473  0.00  0.00    +0.000 A 
ATOM     18  C   LIG    1       -2.923   8.489  -6.383  0.00  0.00    +0.000 A 
ATOM     19  C   LIG    1       -4.094   9.131  -6.027  0.00  0.00    -0.010 A 
ATOM     20  C   LIG    1       -4.231   9.666  -4.760  0.00  0.00    +0.000 A 
ATOM     21  C   LIG    1       -3.197   9.559  -3.848  0.00  0.00    +0.010 A 
ENDBRANCH  15  16
ENDBRANCH  12  13
ENDBRANCH   1  12
BRANCH   1  22
ATOM     22  C   LIG    1        1.450   5.311  -1.973  0.00  0.00    +0.220 C 
BRANCH  22  23
ATOM     23  C   LIG    1        1.289   3.834  -2.339  0.00  0.00    -0.280 C 
ATOM     24  C   LIG    1        2.528   3.360  -3.100  0.00  0.00    +0.050 C 
BRANCH  23  25
ATOM     25  S   LIG    1       -0.179   3.627  -3.385  0.00  0.00    +1.240 S 
ATOM     26  O   LIG    1       -0.042   4.421  -4.555  0.00  0.00    -0.840 OA
ATOM     27  C   LIG    1       -0.115   1.871  -3.834  0.00  0.00    -0.210 C 
ENDBRANCH  23  25
ENDBRANCH  22  23
ENDBRANCH   1  22
TORSDOF 9
