REMARK  Name = ZINCvU0000000J7m.0
REMARK                            x       y       z     vdW  Elec       q    Type
REMARK                         _______ _______ _______ _____ _____    ______ ____
ROOT
ATOM      1  C   LIG    1        5.639   1.413  -1.209  0.00  0.00    +0.000 A 
ATOM      2  C   LIG    1        5.474   0.519  -0.136  0.00  0.00    -0.200 A 
ATOM      3  C   LIG    1        6.507  -0.379   0.177  0.00  0.00    +0.300 A 
ATOM      4  O   LIG    1        6.091  -1.108   1.232  0.00  0.00    -0.070 OA
ATOM      5  N   LIG    1        4.796  -0.692   1.616  0.00  0.00    -0.260 NA
ATOM      6  N   LIG    1        7.624  -0.379  -0.535  0.00  0.00    -0.460 NA
ATOM      7  C   LIG    1        7.808   0.446  -1.545  0.00  0.00    +0.240 A 
ATOM      8  C   LIG    1        4.393   0.268   0.826  0.00  0.00    +0.200 A 
ATOM      9  C   LIG    1        6.839   1.362  -1.920  0.00  0.00    -0.010 A 
ENDROOT
BRANCH   8  10
ATOM     10  C   LIG    1        3.090   0.974   0.892  0.00  0.00    -0.030 A 
ATOM     11  C   LIG    1        2.304   1.100  -0.253  0.00  0.00    +0.060 A 
ATOM     12  C   LIG    1        1.093   1.758  -0.185  0.00  0.00    +0.010 A 
ATOM     13  C   LIG    1        0.658   2.291   1.015  0.00  0.00    +0.040 A 
ATOM     14  C   LIG    1        1.434   2.169   2.154  0.00  0.00    +0.010 A 
ATOM     15  C   LIG    1        2.647   1.513   2.098  0.00  0.00    +0.040 A 
ENDBRANCH   8  10
BRANCH   1  18
ATOM     16  N   LIG    1        4.419   2.754  -2.857  0.00  0.00    -0.710 N 
ATOM     17  H   LIG    1        4.924   2.312  -3.558  0.00  0.00    +0.400 HD
ATOM     18  C   LIG    1        4.575   2.376  -1.573  0.00  0.00    +0.550 C 
ATOM     19  O   LIG    1        3.843   2.825  -0.713  0.00  0.00    -0.490 OA
BRANCH  16  20
ATOM     20  C   LIG    1        3.487   3.832  -3.195  0.00  0.00    +0.310 C 
BRANCH  20  21
ATOM     21  C   LIG    1        4.261   5.036  -3.668  0.00  0.00    -0.120 A 
ATOM     22  C   LIG    1        5.519   4.877  -4.215  0.00  0.00    +0.020 A 
ATOM     23  C   LIG    1        6.229   5.981  -4.650  0.00  0.00    +0.010 A 
ATOM     24  C   LIG    1        5.683   7.246  -4.538  0.00  0.00    +0.030 A 
ATOM     25  C   LIG    1        4.425   7.410  -3.990  0.00  0.00    -0.010 A 
ATOM     26  C   LIG    1        3.708   6.304  -3.559  0.00  0.00    +0.120 A 
BRANCH  26  27
ATOM     27  O   LIG    1        2.467   6.462  -3.026  0.00  0.00    -0.490 OA
ATOM     28  H   LIG    1        2.465   6.594  -2.068  0.00  0.00    +0.390 HD
ENDBRANCH  26  27
ENDBRANCH  20  21
BRANCH  20  30
ATOM     29  C   LIG    1        1.611   2.281  -3.758  0.00  0.00    +0.020 C 
ATOM     30  C   LIG    1        2.544   3.363  -4.305  0.00  0.00    +0.030 C 
ENDBRANCH  20  30
ENDBRANCH  16  20
ENDBRANCH   1  18
BRANCH   7  31
ATOM     31  C   LIG    1        9.104   0.390  -2.312  0.00  0.00    +0.010 C 
ATOM     32  C   LIG    1        9.142   1.069  -3.683  0.00  0.00    +0.040 C 
ATOM     33  C   LIG    1        9.135  -0.458  -3.585  0.00  0.00    +0.060 C 
ENDBRANCH   7  31
TORSDOF 7
