REMARK  Name = ZINCkj00000B2i21.1
REMARK                            x       y       z     vdW  Elec       q    Type
REMARK                         _______ _______ _______ _____ _____    ______ ____
ROOT
ATOM      1  N   LIG    1       -0.018   1.461   0.010  0.00  0.00    -0.720 N 
ATOM      2  H   LIG    1       -0.864   1.934   0.017  0.00  0.00    +0.420 HD
ENDROOT
BRANCH   1   3
ATOM      3  C   LIG    1        1.176   2.172   0.003  0.00  0.00    +0.350 A 
ATOM      4  C   LIG    1        2.393   1.494  -0.007  0.00  0.00    +0.200 A 
ATOM      5  N   LIG    1        3.524   2.173  -0.019  0.00  0.00    -0.390 NA
ATOM      6  C   LIG    1        3.504   3.495  -0.012  0.00  0.00    +0.250 A 
ATOM      7  C   LIG    1        2.299   4.172   0.003  0.00  0.00    +0.050 A 
ATOM      8  N   LIG    1        1.161   3.499   0.010  0.00  0.00    -0.450 NA
BRANCH   7   9
ATOM      9  C   LIG    1        2.282   5.679   0.011  0.00  0.00    +0.530 C 
ATOM     10  F   LIG    1        1.128   6.135  -0.636  0.00  0.00    -0.160 F 
ATOM     11  F   LIG    1        3.413   6.161  -0.656  0.00  0.00    -0.160 F 
ATOM     12  F   LIG    1        2.288   6.138   1.332  0.00  0.00    -0.160 F 
ENDBRANCH   7   9
ENDBRANCH   1   3
BRANCH   1  13
ATOM     13  C   LIG    1        0.002  -0.004   0.002  0.00  0.00    +0.280 C 
BRANCH  13  14
ATOM     14  C   LIG    1       -1.433  -0.534   0.013  0.00  0.00    +0.260 C 
BRANCH  14  19
ATOM     15  C   LIG    1       -2.761  -4.038   0.218  0.00  0.00    +0.170 C 
ATOM     16  C   LIG    1       -2.137  -4.596  -1.064  0.00  0.00    +0.010 C 
ATOM     17  C   LIG    1       -0.736  -4.003  -1.238  0.00  0.00    +0.070 C 
ATOM     18  C   LIG    1       -0.834  -2.475  -1.258  0.00  0.00    +0.260 C 
ATOM     19  N   LIG    1       -1.413  -2.002   0.005  0.00  0.00    -0.370 N 
ATOM     20  H   LIG    1       -0.854  -2.334   0.776  0.00  0.00    +0.430 HD
ATOM     21  C   LIG    1       -2.784  -2.510   0.145  0.00  0.00    +0.280 C 
BRANCH  15  22
ATOM     22  O   LIG    1       -4.096  -4.529   0.352  0.00  0.00    -0.550 OA
ATOM     23  H   LIG    1       -4.157  -5.493   0.402  0.00  0.00    +0.410 HD
ENDBRANCH  15  22
ENDBRANCH  14  19
ENDBRANCH  13  14
ENDBRANCH   1  13
TORSDOF 6
