REMARK  Name = ZINCkj00000B2i21.0
REMARK                            x       y       z     vdW  Elec       q    Type
REMARK                         _______ _______ _______ _____ _____    ______ ____
ROOT
ATOM      1  N   LIG    1       -0.011   0.966   0.007  0.00  0.00    -0.720 N 
ATOM      2  H   LIG    1        0.002  -0.004   0.002  0.00  0.00    +0.420 HD
ENDROOT
BRANCH   1   3
ATOM      3  C   LIG    1        1.183   1.677  -0.000  0.00  0.00    +0.360 A 
ATOM      4  C   LIG    1        1.167   3.070   0.007  0.00  0.00    +0.200 A 
ATOM      5  N   LIG    1        2.302   3.741   0.001  0.00  0.00    -0.390 NA
ATOM      6  C   LIG    1        3.455   3.093  -0.013  0.00  0.00    +0.240 A 
ATOM      7  C   LIG    1        3.476   1.712  -0.021  0.00  0.00    +0.050 A 
ATOM      8  N   LIG    1        2.342   1.031  -0.009  0.00  0.00    -0.450 NA
BRANCH   7   9
ATOM      9  C   LIG    1        4.793   0.979  -0.037  0.00  0.00    +0.530 C 
ATOM     10  F   LIG    1        4.918   0.272  -1.238  0.00  0.00    -0.160 F 
ATOM     11  F   LIG    1        4.842   0.085   1.038  0.00  0.00    -0.160 F 
ATOM     12  F   LIG    1        5.840   1.900   0.073  0.00  0.00    -0.160 F 
ENDBRANCH   7   9
ENDBRANCH   1   3
BRANCH   1  13
ATOM     13  C   LIG    1       -1.290   1.681   0.017  0.00  0.00    +0.280 C 
BRANCH  13  14
ATOM     14  C   LIG    1       -2.439   0.671   0.017  0.00  0.00    +0.260 C 
BRANCH  14  19
ATOM     15  C   LIG    1       -6.152   1.168   0.240  0.00  0.00    +0.190 C 
ATOM     16  C   LIG    1       -6.348   2.011  -1.023  0.00  0.00    +0.020 C 
ATOM     17  C   LIG    1       -5.159   2.963  -1.179  0.00  0.00    +0.060 C 
ATOM     18  C   LIG    1       -3.863   2.151  -1.219  0.00  0.00    +0.240 C 
ATOM     19  N   LIG    1       -3.721   1.388   0.027  0.00  0.00    -0.380 N 
ATOM     20  H   LIG    1       -3.744   2.022   0.812  0.00  0.00    +0.430 HD
ATOM     21  C   LIG    1       -4.819   0.422   0.148  0.00  0.00    +0.290 C 
BRANCH  15  22
ATOM     22  O   LIG    1       -6.143   2.021   1.387  0.00  0.00    -0.570 OA
ATOM     23  H   LIG    1       -6.959   2.526   1.508  0.00  0.00    +0.410 HD
ENDBRANCH  15  22
ENDBRANCH  14  19
ENDBRANCH  13  14
ENDBRANCH   1  13
TORSDOF 6
