REMARK  Name = ZINCnE000001R2B5.0
REMARK                            x       y       z     vdW  Elec       q    Type
REMARK                         _______ _______ _______ _____ _____    ______ ____
ROOT
ATOM      1  S   LIG    1        2.970   0.568   0.421  0.00  0.00    +2.580 S 
ATOM      2  O   LIG    1        3.212  -0.716   0.981  0.00  0.00    -1.050 OA
ATOM      3  O   LIG    1        3.704   1.727   0.789  0.00  0.00    -1.040 OA
ENDROOT
BRANCH   1   4
ATOM      4  C   LIG    1        1.274   0.933   0.730  0.00  0.00    -0.610 A 
ATOM      5  C   LIG    1        0.374  -0.093   0.943  0.00  0.00    +0.110 A 
ATOM      6  C   LIG    1       -0.958   0.193   1.180  0.00  0.00    -0.030 A 
ATOM      7  C   LIG    1       -1.386   1.507   1.215  0.00  0.00    -0.050 A 
ATOM      8  C   LIG    1       -0.486   2.534   1.001  0.00  0.00    -0.030 A 
ATOM      9  C   LIG    1        0.845   2.247   0.759  0.00  0.00    +0.110 A 
BRANCH   7  10
ATOM     10  C   LIG    1       -2.837   1.820   1.479  0.00  0.00    +0.060 C 
BRANCH  10  11
ATOM     11  C   LIG    1       -3.598   1.869   0.153  0.00  0.00    +0.030 C 
BRANCH  11  12
ATOM     12  C   LIG    1       -5.070   2.186   0.421  0.00  0.00    -0.030 C 
ATOM     13  C   LIG    1       -5.704   1.038   1.210  0.00  0.00    +0.010 C 
ATOM     14  C   LIG    1       -5.806   2.358  -0.910  0.00  0.00    +0.000 C 
ENDBRANCH  11  12
ENDBRANCH  10  11
ENDBRANCH   7  10
ENDBRANCH   1   4
BRANCH   1  15
ATOM     15  N   LIG    1        3.145   0.404  -1.218  0.00  0.00    -1.080 NA
BRANCH  15  23
ATOM     16  C   LIG    1        5.880   1.777  -0.639  0.00  0.00    +0.150 C 
ATOM     17  C   LIG    1        5.626   0.579  -1.517  0.00  0.00    +0.010 A 
ATOM     18  N   LIG    1        6.533  -0.085  -2.187  0.00  0.00    -0.310 NA
ATOM     19  N   LIG    1        5.897  -1.126  -2.877  0.00  0.00    -0.400 N 
ATOM     20  C   LIG    1        4.569  -1.065  -2.592  0.00  0.00    -0.010 A 
ATOM     21  C   LIG    1        3.504  -1.995  -3.112  0.00  0.00    +0.130 C 
ATOM     22  C   LIG    1        6.549  -2.108  -3.747  0.00  0.00    +0.320 C 
ATOM     23  C   LIG    1        4.378  -0.014  -1.756  0.00  0.00    +0.110 A 
ENDBRANCH  15  23
ENDBRANCH   1  15
TORSDOF 6
