REMARK  Name = ZINCpe00000glCaL.0
REMARK                            x       y       z     vdW  Elec       q    Type
REMARK                         _______ _______ _______ _____ _____    ______ ____
ROOT
ATOM      1  C   LIG    1        5.939  -2.008   1.326  0.00  0.00    +0.650 C 
ATOM      2  N   LIG    1        4.697  -1.974   0.804  0.00  0.00    -0.600 N 
ATOM      3  C   LIG    1        4.489  -2.020  -0.652  0.00  0.00    +0.310 C 
ATOM      4  C   LIG    1        3.568  -0.860  -1.048  0.00  0.00    +0.190 C 
ATOM      5  N   LIG    1        2.341  -0.916  -0.243  0.00  0.00    -0.520 NA
ATOM      6  C   LIG    1        2.632  -0.736   1.185  0.00  0.00    +0.170 C 
ATOM      7  C   LIG    1        3.514  -1.890   1.673  0.00  0.00    +0.300 C 
ATOM      8  O   LIG    1        6.905  -2.077   0.593  0.00  0.00    -0.570 OA
ENDROOT
BRANCH   5   9
ATOM      9  C   LIG    1        1.360   0.072  -0.710  0.00  0.00    +0.170 C 
ATOM     10  C   LIG    1        0.002  -0.004   0.002  0.00  0.00    +0.290 C 
ATOM     11  N   LIG    1       -0.018   1.466   0.010  0.00  0.00    -0.620 N 
ATOM     12  C   LIG    1       -0.966   2.424   0.020  0.00  0.00    +0.600 C 
ATOM     13  O   LIG    1       -2.141   2.115   0.024  0.00  0.00    -0.520 OA
ATOM     14  C   LIG    1        1.452   1.432  -0.004  0.00  0.00    +0.250 C 
BRANCH  12  15
ATOM     15  C   LIG    1       -0.575   3.856   0.026  0.00  0.00    +0.130 A 
ATOM     16  C   LIG    1       -1.547   4.857   0.030  0.00  0.00    -0.010 A 
ATOM     17  C   LIG    1       -1.128   6.180   0.041  0.00  0.00    +0.330 A 
ATOM     18  N   LIG    1        0.167   6.445   0.036  0.00  0.00    -0.500 NA
ATOM     19  C   LIG    1        1.060   5.475   0.026  0.00  0.00    +0.490 A 
ATOM     20  N   LIG    1        0.709   4.207   0.021  0.00  0.00    -0.490 NA
ENDBRANCH  12  15
ENDBRANCH   5   9
BRANCH   1  21
ATOM     21  O   LIG    1        6.109  -1.966   2.661  0.00  0.00    -0.360 OA
BRANCH  21  23
ATOM     22  C   LIG    1        8.251  -0.809   2.602  0.00  0.00    +0.040 C 
ATOM     23  C   LIG    1        7.474  -2.006   3.154  0.00  0.00    +0.140 C 
ATOM     24  C   LIG    1        8.143  -3.303   2.695  0.00  0.00    +0.040 C 
ATOM     25  C   LIG    1        7.467  -1.948   4.683  0.00  0.00    +0.080 C 
ENDBRANCH  21  23
ENDBRANCH   1  21
TORSDOF 4
