REMARK  Name = ZINCvU0000000CbK.0
REMARK                            x       y       z     vdW  Elec       q    Type
REMARK                         _______ _______ _______ _____ _____    ______ ____
ROOT
ATOM      1  N   LIG    1        0.100  -2.856   0.087  0.00  0.00    -0.600 N 
ATOM      2  C   LIG    1        1.249  -2.160  -0.023  0.00  0.00    +0.560 C 
ATOM      3  O   LIG    1        2.307  -2.748  -0.138  0.00  0.00    -0.510 OA
ENDROOT
BRANCH   2   4
ATOM      4  C   LIG    1        1.223  -0.682  -0.002  0.00  0.00    -0.120 A 
ATOM      5  C   LIG    1        0.624  -0.007   1.062  0.00  0.00    +0.040 A 
ATOM      6  C   LIG    1        0.602   1.373   1.075  0.00  0.00    +0.010 A 
ATOM      7  C   LIG    1        1.173   2.086   0.036  0.00  0.00    +0.040 A 
ATOM      8  C   LIG    1        1.768   1.422  -1.022  0.00  0.00    +0.040 A 
ATOM      9  C   LIG    1        1.797   0.043  -1.047  0.00  0.00    -0.040 A 
BRANCH   9  10
ATOM     10  C   LIG    1        2.445  -0.678  -2.201  0.00  0.00    +0.260 C 
BRANCH  10  11
ATOM     11  O   LIG    1        2.954   0.277  -3.134  0.00  0.00    -0.310 OA
BRANCH  11  12
ATOM     12  C   LIG    1        3.575  -0.211  -4.240  0.00  0.00    +0.130 A 
ATOM     13  C   LIG    1        3.696  -1.581  -4.421  0.00  0.00    -0.080 A 
ATOM     14  C   LIG    1        4.322  -2.075  -5.549  0.00  0.00    +0.050 A 
ATOM     15  C   LIG    1        4.837  -1.206  -6.492  0.00  0.00    -0.040 A 
ATOM     16  C   LIG    1        4.722   0.161  -6.312  0.00  0.00    +0.050 A 
ATOM     17  C   LIG    1        4.093   0.659  -5.188  0.00  0.00    -0.020 A 
ENDBRANCH  11  12
ENDBRANCH  10  11
ENDBRANCH   9  10
ENDBRANCH   2   4
BRANCH   1  18
ATOM     18  C   LIG    1       -1.184  -2.152   0.103  0.00  0.00    +0.280 C 
BRANCH  18  20
ATOM     19  C   LIG    1       -3.107  -1.383  -1.295  0.00  0.00    +0.030 C 
ATOM     20  C   LIG    1       -1.765  -2.118  -1.312  0.00  0.00    -0.010 C 
ENDBRANCH  18  20
ENDBRANCH   1  18
BRANCH   1  21
ATOM     21  C   LIG    1        0.136  -4.317   0.189  0.00  0.00    +0.460 C 
BRANCH  21  22
ATOM     22  C   LIG    1        0.221  -4.717   1.639  0.00  0.00    +0.140 A 
ATOM     23  N   LIG    1       -0.785  -4.944   2.435  0.00  0.00    -0.260 NA
ATOM     24  N   LIG    1       -0.349  -5.264   3.603  0.00  0.00    -0.270 NA
ATOM     25  C   LIG    1        0.966  -5.253   3.591  0.00  0.00    +0.250 A 
ATOM     26  O   LIG    1        1.351  -4.911   2.344  0.00  0.00    -0.210 OA
BRANCH  25  27
ATOM     27  C   LIG    1        1.851  -5.561   4.724  0.00  0.00    -0.160 A 
ATOM     28  C   LIG    1        1.438  -5.909   5.974  0.00  0.00    +0.100 A 
ATOM     29  C   LIG    1        2.460  -6.150   6.866  0.00  0.00    +0.020 A 
ATOM     30  C   LIG    1        3.693  -6.006   6.370  0.00  0.00    -0.010 A 
ATOM     31  S   LIG    1        3.609  -5.546   4.675  0.00  0.00    +0.180 S 
ENDBRANCH  25  27
ENDBRANCH  21  22
ENDBRANCH   1  21
TORSDOF 9
