REMARK  Name = ZINCrg000000tsMg.0
REMARK                            x       y       z     vdW  Elec       q    Type
REMARK                         _______ _______ _______ _____ _____    ______ ____
ROOT
ATOM      1  C   LIG    1        4.183   0.807  -2.499  0.00  0.00    +0.510 C 
ATOM      2  N   LIG    1        5.471   1.144  -2.709  0.00  0.00    -0.610 N 
ATOM      3  H   LIG    1        5.913   1.766  -2.111  0.00  0.00    +0.430 HD
ATOM      4  O   LIG    1        3.630   0.027  -3.247  0.00  0.00    -0.510 OA
ENDROOT
BRANCH   2   5
ATOM      5  C   LIG    1        6.173   0.593  -3.794  0.00  0.00    +0.010 A 
ATOM      6  C   LIG    1        7.465   0.849  -4.124  0.00  0.00    +0.250 A 
ATOM      7  N   LIG    1        7.758   0.116  -5.232  0.00  0.00    -0.320 N 
ATOM      8  N   LIG    1        6.608  -0.598  -5.592  0.00  0.00    -0.250 NA
ATOM      9  C   LIG    1        5.661  -0.315  -4.735  0.00  0.00    +0.290 A 
BRANCH   7  10
ATOM     10  C   LIG    1        8.987   0.086  -5.898  0.00  0.00    +0.390 A 
ATOM     11  N   LIG    1        9.809   1.118  -5.803  0.00  0.00    -0.470 NA
ATOM     12  C   LIG    1       10.980   1.129  -6.410  0.00  0.00    +0.340 A 
ATOM     13  C   LIG    1       11.388   0.058  -7.183  0.00  0.00    -0.090 A 
ATOM     14  C   LIG    1       10.552  -1.043  -7.313  0.00  0.00    +0.130 A 
ATOM     15 CL   LIG    1       12.929   0.089  -7.983  0.00  0.00    -0.030 Cl
ATOM     16  C   LIG    1        9.332  -1.026  -6.659  0.00  0.00    -0.080 A 
ATOM     17 CL   LIG    1        8.246  -2.375  -6.787  0.00  0.00    -0.000 Cl
ENDBRANCH   7  10
ENDBRANCH   2   5
BRANCH   1  19
ATOM     18  O   LIG    1        3.991   2.171  -0.597  0.00  0.00    -0.510 OA
ATOM     19  C   LIG    1        3.437   1.392  -1.345  0.00  0.00    +0.520 C 
ATOM     20  N   LIG    1        2.150   1.055  -1.135  0.00  0.00    -0.700 N 
ATOM     21  H   LIG    1        1.707   0.432  -1.732  0.00  0.00    +0.420 HD
BRANCH  20  22
ATOM     22  C   LIG    1        1.418   1.629  -0.003  0.00  0.00    +0.310 C 
BRANCH  22  23
ATOM     23  C   LIG    1       -0.013   1.086   0.008  0.00  0.00    +0.010 C 
ATOM     24  C   LIG    1       -0.784   1.609  -1.216  0.00  0.00    +0.070 C 
ATOM     25  C   LIG    1       -2.288   1.335  -1.005  0.00  0.00    -0.310 C 
ATOM     26  S   LIG    1       -2.522   1.333   0.809  0.00  0.00    +2.390 S 
ATOM     27  O   LIG    1       -3.284   2.471   1.187  0.00  0.00    -0.930 OA
ATOM     28  O   LIG    1       -2.925   0.037   1.230  0.00  0.00    -0.930 OA
ATOM     29  C   LIG    1       -0.766   1.600   1.262  0.00  0.00    -0.310 C 
ENDBRANCH  22  23
ENDBRANCH  20  22
ENDBRANCH   1  19
TORSDOF 5
