REMARK  Name = ZINCpk00000xIe7b.1
REMARK                            x       y       z     vdW  Elec       q    Type
REMARK                         _______ _______ _______ _____ _____    ______ ____
ROOT
ATOM      1  C   LIG    1       -0.751   3.086   1.276  0.00  0.00    +0.520 C 
ATOM      2  N   LIG    1       -1.352   3.757   0.274  0.00  0.00    -0.680 N 
ATOM      3  H   LIG    1       -1.707   3.275  -0.489  0.00  0.00    +0.410 HD
ATOM      4  O   LIG    1       -0.233   3.694   2.188  0.00  0.00    -0.480 OA
ENDROOT
BRANCH   2   5
ATOM      5  C   LIG    1       -1.463   5.151   0.333  0.00  0.00    +0.210 A 
ATOM      6  C   LIG    1       -2.584   5.782  -0.189  0.00  0.00    -0.030 A 
ATOM      7  C   LIG    1       -2.693   7.158  -0.123  0.00  0.00    +0.150 A 
ATOM      8  C   LIG    1       -1.682   7.907   0.450  0.00  0.00    -0.690 A 
ATOM      9  C   LIG    1       -0.562   7.281   0.966  0.00  0.00    +0.150 A 
ATOM     10  C   LIG    1       -0.449   5.906   0.908  0.00  0.00    +0.000 A 
BRANCH   8  11
ATOM     11  S   LIG    1       -1.822   9.661   0.525  0.00  0.00    +2.700 S 
ATOM     12  O   LIG    1       -0.988  10.085   1.595  0.00  0.00    -0.960 OA
ATOM     13  O   LIG    1       -3.211   9.957   0.459  0.00  0.00    -0.960 OA
BRANCH  11  14
ATOM     14  N   LIG    1       -1.149  10.266  -0.862  0.00  0.00    -1.250 NA
ATOM     15  H   LIG    1       -1.127  11.224  -1.012  0.00  0.00    +0.420 HD
ATOM     16  H   LIG    1       -0.776   9.663  -1.523  0.00  0.00    +0.420 HD
ENDBRANCH  11  14
ENDBRANCH   8  11
ENDBRANCH   2   5
BRANCH   1  17
ATOM     17  C   LIG    1       -0.723   1.579   1.263  0.00  0.00    +0.180 C 
ATOM     18  C   LIG    1        0.002   1.093   0.006  0.00  0.00    +0.030 C 
BRANCH  17  19
ATOM     19  N   LIG    1       -0.016   1.092   2.455  0.00  0.00    -0.660 NA
ATOM     20  H   LIG    1        0.984   1.130   2.323  0.00  0.00    +0.350 HD
BRANCH  19  21
ATOM     21  C   LIG    1       -0.450  -0.266   2.807  0.00  0.00    +0.240 C 
BRANCH  21  26
ATOM     22  C   LIG    1        0.463  -0.916   6.415  0.00  0.00    +0.130 A 
ATOM     23  C   LIG    1        1.670  -1.587   6.277  0.00  0.00    -0.080 A 
ATOM     24  C   LIG    1        2.185  -1.827   5.017  0.00  0.00    +0.050 A 
ATOM     25  C   LIG    1        1.496  -1.404   3.895  0.00  0.00    -0.030 A 
ATOM     26  C   LIG    1        0.295  -0.731   4.031  0.00  0.00    -0.050 A 
ATOM     27  C   LIG    1       -0.224  -0.489   5.288  0.00  0.00    +0.000 A 
BRANCH  22  29
ATOM     28  C   LIG    1        0.716  -1.149   8.768  0.00  0.00    +0.250 C 
ATOM     29  O   LIG    1       -0.045  -0.680   7.653  0.00  0.00    -0.320 OA
ENDBRANCH  22  29
ENDBRANCH  21  26
ENDBRANCH  19  21
ENDBRANCH  17  19
ENDBRANCH   1  17
TORSDOF 8
