REMARK  Name = ZINCrD00000hQ5U4.0
REMARK                            x       y       z     vdW  Elec       q    Type
REMARK                         _______ _______ _______ _____ _____    ______ ____
ROOT
ATOM      1  C   LIG    1        1.111   7.655   0.030  0.00  0.00    +0.570 C 
ATOM      2  N   LIG    1        1.130   6.308   0.023  0.00  0.00    -0.520 N 
ATOM      3  H   LIG    1        1.976   5.834   0.013  0.00  0.00    +0.420 HD
ATOM      4  O   LIG    1        0.051   8.249   0.043  0.00  0.00    -0.530 OA
ENDROOT
BRANCH   1   8
ATOM      5  C   LIG    1        4.760   9.828   0.006  0.00  0.00    +0.170 A 
ATOM      6  C   LIG    1        3.548  10.509   0.020  0.00  0.00    -0.020 A 
ATOM      7  C   LIG    1        2.363   9.808   0.028  0.00  0.00    +0.140 A 
ATOM      8  C   LIG    1        2.380   8.411   0.021  0.00  0.00    -0.170 A 
ATOM      9  C   LIG    1        3.600   7.730   0.012  0.00  0.00    +0.090 A 
ATOM     10  C   LIG    1        4.781   8.439  -0.001  0.00  0.00    -0.080 A 
BRANCH   5  11
ATOM     11  O   LIG    1        5.926  10.523  -0.001  0.00  0.00    -0.300 OA
BRANCH  11  12
ATOM     12  C   LIG    1        7.135   9.761  -0.016  0.00  0.00    +0.220 C 
BRANCH  12  13
ATOM     13  C   LIG    1        8.335  10.709  -0.022  0.00  0.00    +0.200 C 
BRANCH  13  15
ATOM     14  C   LIG    1        9.456  12.365   1.300  0.00  0.00    +0.200 C 
ATOM     15  O   LIG    1        8.367  11.445   1.203  0.00  0.00    -0.390 OA
ENDBRANCH  13  15
ENDBRANCH  12  13
ENDBRANCH  11  12
ENDBRANCH   5  11
ENDBRANCH   1   8
BRANCH   2  16
ATOM     16  N   LIG    1       -0.074   5.591   0.032  0.00  0.00    -0.520 N 
ATOM     17  H   LIG    1       -0.920   6.064   0.042  0.00  0.00    +0.440 HD
BRANCH  16  18
ATOM     18  C   LIG    1       -0.055   4.199   0.025  0.00  0.00    +0.290 A 
ATOM     19  C   LIG    1        1.160   3.521   0.010  0.00  0.00    -0.060 A 
ATOM     20  C   LIG    1        1.183   2.145   0.002  0.00  0.00    +0.170 A 
ATOM     21  C   LIG    1       -0.017   1.428   0.010  0.00  0.00    -0.090 A 
ATOM     22  C   LIG    1       -1.237   2.112   0.019  0.00  0.00    +0.190 A 
ATOM     23  C   LIG    1       -1.252   3.488   0.032  0.00  0.00    -0.260 A 
BRANCH  23  24
ATOM     24  C   LIG    1       -2.565   4.226   0.048  0.00  0.00    +0.510 C 
ATOM     25  F   LIG    1       -2.659   5.035  -1.090  0.00  0.00    -0.170 F 
ATOM     26  F   LIG    1       -2.638   5.024   1.195  0.00  0.00    -0.170 F 
ATOM     27  F   LIG    1       -3.618   3.305   0.053  0.00  0.00    -0.170 F 
ENDBRANCH  23  24
BRANCH  21  28
ATOM     28  C   LIG    1        0.002  -0.004   0.002  0.00  0.00    +0.260 C 
ATOM     29  N   LIG    1        0.018  -1.140  -0.004  0.00  0.00    -0.410 NA
ENDBRANCH  21  28
ENDBRANCH  16  18
ENDBRANCH   2  16
TORSDOF 9
