REMARK  Name = ZINCkj000005k7Pg.0
REMARK                            x       y       z     vdW  Elec       q    Type
REMARK                         _______ _______ _______ _____ _____    ______ ____
ROOT
ATOM      1  N   LIG    1        4.237  -0.216  -2.434  0.00  0.00    -0.700 N 
ATOM      2  H   LIG    1        4.653   0.431  -1.843  0.00  0.00    +0.410 HD
ATOM      3  C   LIG    1        2.961  -0.596  -2.225  0.00  0.00    +0.500 C 
ATOM      4  O   LIG    1        2.440  -1.405  -2.964  0.00  0.00    -0.530 OA
ENDROOT
BRANCH   3   5
ATOM      5  C   LIG    1        2.180  -0.016  -1.073  0.00  0.00    +0.170 C 
ATOM      6  C   LIG    1        2.133   1.503  -1.217  0.00  0.00    +0.070 C 
ATOM      7  C   LIG    1        1.399   2.080  -0.000  0.00  0.00    +0.050 C 
ATOM      8  C   LIG    1       -0.018   1.505   0.010  0.00  0.00    +0.070 C 
ATOM      9  C   LIG    1        0.002  -0.004   0.002  0.00  0.00    +0.170 C 
ATOM     10  C   LIG    1        0.598  -0.596   1.294  0.00  0.00    +0.080 C 
ATOM     11  C   LIG    1        0.899  -2.056   0.870  0.00  0.00    +0.060 C 
ATOM     12  C   LIG    1        0.984  -2.018  -0.669  0.00  0.00    +0.270 C 
ATOM     13  N   LIG    1        0.828  -0.591  -1.069  0.00  0.00    -0.370 N 
ATOM     14  H   LIG    1        0.385  -0.493  -1.970  0.00  0.00    +0.430 HD
ENDBRANCH   3   5
BRANCH   1  15
ATOM     15  C   LIG    1        4.995  -0.780  -3.553  0.00  0.00    +0.370 C 
BRANCH  15  18
ATOM     16  C   LIG    1        7.382  -1.668  -1.736  0.00  0.00    +0.150 C 
ATOM     17  C   LIG    1        7.416  -0.580  -2.778  0.00  0.00    +0.110 A 
ATOM     18  C   LIG    1        6.384  -0.195  -3.564  0.00  0.00    -0.280 A 
ATOM     19  C   LIG    1        6.832   0.845  -4.385  0.00  0.00    +0.260 A 
ATOM     20  N   LIG    1        8.090   1.073  -4.105  0.00  0.00    -0.290 NA
ATOM     21  N   LIG    1        8.482   0.184  -3.096  0.00  0.00    -0.360 N 
ATOM     22  C   LIG    1        9.813   0.102  -2.489  0.00  0.00    +0.360 C 
ENDBRANCH  15  18
ENDBRANCH   1  15
TORSDOF 3
