REMARK  Name = ZINCkj000005k7Pg.1
REMARK                            x       y       z     vdW  Elec       q    Type
REMARK                         _______ _______ _______ _____ _____    ______ ____
ROOT
ATOM      1  N   LIG    1        1.795   3.707   1.388  0.00  0.00    -0.690 N 
ATOM      2  H   LIG    1        1.593   3.115   2.129  0.00  0.00    +0.410 HD
ATOM      3  C   LIG    1        2.012   5.018   1.613  0.00  0.00    +0.510 C 
ATOM      4  O   LIG    1        2.264   5.759   0.686  0.00  0.00    -0.520 OA
ENDROOT
BRANCH   3   5
ATOM      5  C   LIG    1        1.941   5.564   3.016  0.00  0.00    +0.170 C 
ATOM      6  C   LIG    1        2.785   4.691   3.957  0.00  0.00    +0.070 C 
ATOM      7  C   LIG    1        4.255   4.710   3.539  0.00  0.00    +0.040 C 
ATOM      8  C   LIG    1        4.763   6.155   3.417  0.00  0.00    +0.060 C 
ATOM      9  C   LIG    1        3.846   6.880   2.442  0.00  0.00    +0.180 C 
ATOM     10  C   LIG    1        4.169   8.377   2.288  0.00  0.00    +0.080 C 
ATOM     11  C   LIG    1        2.805   8.954   1.818  0.00  0.00    +0.070 C 
ATOM     12  C   LIG    1        1.751   7.922   2.288  0.00  0.00    +0.260 C 
ATOM     13  N   LIG    1        2.489   6.912   3.048  0.00  0.00    -0.370 N 
ATOM     14  H   LIG    1        2.573   7.214   4.007  0.00  0.00    +0.420 HD
ENDBRANCH   3   5
BRANCH   1  15
ATOM     15  C   LIG    1        1.863   3.176   0.024  0.00  0.00    +0.370 C 
BRANCH  15  18
ATOM     16  C   LIG    1       -0.960   1.837   0.182  0.00  0.00    +0.150 C 
ATOM     17  C   LIG    1        0.363   1.117   0.117  0.00  0.00    +0.110 A 
ATOM     18  C   LIG    1        1.584   1.696   0.046  0.00  0.00    -0.280 A 
ATOM     19  C   LIG    1        2.541   0.677  -0.003  0.00  0.00    +0.260 A 
ATOM     20  N   LIG    1        1.917  -0.472   0.037  0.00  0.00    -0.290 NA
ATOM     21  N   LIG    1        0.541  -0.221   0.113  0.00  0.00    -0.360 N 
ATOM     22  C   LIG    1       -0.518  -1.231   0.178  0.00  0.00    +0.360 C 
ENDBRANCH  15  18
ENDBRANCH   1  15
TORSDOF 3
