REMARK  Name = ZINCvU0000000FT6.0
REMARK                            x       y       z     vdW  Elec       q    Type
REMARK                         _______ _______ _______ _____ _____    ______ ____
ROOT
ATOM      1  C   LIG    1        1.147   3.183   0.024  0.00  0.00    -0.050 A 
ATOM      2  C   LIG    1        1.163   1.800  -0.165  0.00  0.00    +0.100 A 
ATOM      3  C   LIG    1       -0.020   1.093  -0.162  0.00  0.00    +0.000 A 
ATOM      4  C   LIG    1       -1.228   1.756   0.023  0.00  0.00    +0.170 A 
ATOM      5  C   LIG    1       -1.246   3.133   0.217  0.00  0.00    +0.020 A 
ATOM      6  C   LIG    1       -0.067   3.846   0.215  0.00  0.00    +0.060 A 
ENDROOT
BRANCH   1  13
ATOM      7  C   LIG    1        7.661   7.309   0.040  0.00  0.00    +0.100 C 
ATOM      8  C   LIG    1        6.600   6.240  -0.017  0.00  0.00    -0.060 A 
ATOM      9  C   LIG    1        6.959   4.917  -0.228  0.00  0.00    +0.030 A 
ATOM     10  C   LIG    1        6.014   3.938  -0.283  0.00  0.00    +0.080 A 
ATOM     11  C   LIG    1        4.646   4.253  -0.125  0.00  0.00    +0.080 A 
ATOM     12  N   LIG    1        3.584   3.428  -0.148  0.00  0.00    -0.460 NA
ATOM     13  C   LIG    1        2.414   3.945   0.021  0.00  0.00    +0.160 A 
ATOM     14  S   LIG    1        2.539   5.685   0.240  0.00  0.00    +0.070 S 
ATOM     15  C   LIG    1        4.292   5.590   0.087  0.00  0.00    -0.170 A 
ATOM     16  C   LIG    1        5.274   6.578   0.139  0.00  0.00    +0.050 A 
ENDBRANCH   1  13
BRANCH   4  17
ATOM     17  N   LIG    1       -2.425   1.037   0.019  0.00  0.00    -0.670 N 
ATOM     18  H   LIG    1       -2.448   0.131   0.365  0.00  0.00    +0.420 HD
ATOM     19  C   LIG    1       -3.549   1.602  -0.466  0.00  0.00    +0.520 C 
ATOM     20  O   LIG    1       -3.502   2.696  -0.986  0.00  0.00    -0.490 OA
BRANCH  19  21
ATOM     21  C   LIG    1       -4.864   0.873  -0.362  0.00  0.00    +0.270 C 
BRANCH  21  22
ATOM     22  O   LIG    1       -5.914   1.683  -0.952  0.00  0.00    -0.330 OA
BRANCH  22  23
ATOM     23  C   LIG    1       -7.156   1.174  -0.941  0.00  0.00    +0.470 C 
ATOM     24  O   LIG    1       -7.359   0.087  -0.454  0.00  0.00    -0.490 OA
BRANCH  23  25
ATOM     25  C   LIG    1       -8.298   1.958  -1.535  0.00  0.00    +0.170 C 
BRANCH  25  26
ATOM     26  C   LIG    1       -9.575   1.170  -1.395  0.00  0.00    -0.070 A 
ATOM     27  C   LIG    1       -9.962   0.300  -2.397  0.00  0.00    +0.030 A 
ATOM     28  C   LIG    1      -11.131  -0.427  -2.267  0.00  0.00    +0.050 A 
ATOM     29  C   LIG    1      -11.918  -0.275  -1.139  0.00  0.00    -0.080 A 
ATOM     30  C   LIG    1      -11.532   0.600  -0.140  0.00  0.00    +0.050 A 
ATOM     31 BR   LIG    1      -13.520  -1.264  -0.964  0.00  0.00    -0.050 Br
ATOM     32  C   LIG    1      -10.361   1.322  -0.268  0.00  0.00    +0.030 A 
ENDBRANCH  25  26
ENDBRANCH  23  25
ENDBRANCH  22  23
ENDBRANCH  21  22
ENDBRANCH  19  21
ENDBRANCH   4  17
TORSDOF 7
