REMARK  Name = ZINCb80000003VPA.0
REMARK                            x       y       z     vdW  Elec       q    Type
REMARK                         _______ _______ _______ _____ _____    ______ ____
ROOT
ATOM      1  C   LIG    1       -0.800   3.394   0.017  0.00  0.00    +0.230 C 
ATOM      2  C   LIG    1        0.685   3.479   0.433  0.00  0.00    +0.070 C 
ATOM      3  C   LIG    1        1.214   2.092   0.002  0.00  0.00    +0.170 C 
ATOM      4  C   LIG    1       -0.014   1.209   0.009  0.00  0.00    +0.490 C 
ATOM      5  O   LIG    1        0.002  -0.004   0.002  0.00  0.00    -0.530 OA
ATOM      6  N   LIG    1       -1.127   1.963   0.018  0.00  0.00    -0.720 N 
ATOM      7  H   LIG    1       -2.029   1.608   0.025  0.00  0.00    +0.410 HD
ENDROOT
BRANCH   1   9
ATOM      8  C   LIG    1       -1.254   5.611   1.077  0.00  0.00    +0.040 C 
ATOM      9  C   LIG    1       -1.676   4.141   1.025  0.00  0.00    -0.080 C 
ATOM     10  C   LIG    1       -1.507   3.514   2.411  0.00  0.00    +0.030 C 
ATOM     11  C   LIG    1       -3.141   4.045   0.597  0.00  0.00    +0.020 C 
ENDBRANCH   1   9
BRANCH   3  12
ATOM     12  O   LIG    1        2.181   1.611   0.938  0.00  0.00    -0.540 OA
ATOM     13  H   LIG    1        2.503   0.720   0.748  0.00  0.00    +0.390 HD
ENDBRANCH   3  12
TORSDOF 2
