REMARK  Name = ZINCkj00000dDmoW.0
REMARK                            x       y       z     vdW  Elec       q    Type
REMARK                         _______ _______ _______ _____ _____    ______ ____
ROOT
ATOM      1  N   LIG    1       -0.012   1.005   0.008  0.00  0.00    -0.390 N 
ATOM      2  C   LIG    1       -0.701   1.478   1.215  0.00  0.00    +0.280 C 
ATOM      3  C   LIG    1        0.028   0.957   2.456  0.00  0.00    +0.230 C 
ATOM      4  N   LIG    1        1.417   1.437   2.443  0.00  0.00    -0.480 N 
ATOM      5  C   LIG    1        2.112   0.992   1.228  0.00  0.00    +0.220 C 
ATOM      6  C   LIG    1        1.367   1.513  -0.003  0.00  0.00    +0.270 C 
ATOM      7  H   LIG    1        0.002  -0.004   0.002  0.00  0.00    +0.420 HD
ENDROOT
BRANCH   4   8
ATOM      8  C   LIG    1        2.100   1.024   3.592  0.00  0.00    +0.040 A 
ATOM      9  C   LIG    1        3.272   0.287   3.476  0.00  0.00    +0.010 A 
ATOM     10  C   LIG    1        3.950  -0.115   4.611  0.00  0.00    -0.040 A 
ATOM     11  C   LIG    1        3.454   0.207   5.865  0.00  0.00    +0.130 A 
ATOM     12  C   LIG    1        2.281   0.937   5.982  0.00  0.00    +0.010 A 
ATOM     13  C   LIG    1        1.605   1.345   4.849  0.00  0.00    +0.060 A 
BRANCH  11  14
ATOM     14  O   LIG    1        4.119  -0.195   6.982  0.00  0.00    -0.310 OA
ATOM     15  C   LIG    1        5.320  -0.943   6.788  0.00  0.00    +0.250 C 
ENDBRANCH  11  14
ENDBRANCH   4   8
BRANCH   1  16
ATOM     16  C   LIG    1       -0.722   1.491  -1.183  0.00  0.00    +0.280 C 
BRANCH  16  17
ATOM     17  C   LIG    1       -0.080   0.896  -2.438  0.00  0.00    +0.110 C 
BRANCH  17  18
ATOM     18  C   LIG    1       -0.808   1.395  -3.659  0.00  0.00    +0.470 C 
ATOM     19  O   LIG    1       -1.744   2.149  -3.538  0.00  0.00    -0.500 OA
BRANCH  18  21
ATOM     20  C   LIG    1       -1.164   1.523  -6.012  0.00  0.00    +0.280 C 
ATOM     21  O   LIG    1       -0.416   1.002  -4.882  0.00  0.00    -0.350 OA
ENDBRANCH  18  21
ENDBRANCH  17  18
ENDBRANCH  16  17
ENDBRANCH   1  16
TORSDOF 6
