REMARK  Name = ZINCnE000004qt3F.1
REMARK                            x       y       z     vdW  Elec       q    Type
REMARK                         _______ _______ _______ _____ _____    ______ ____
ROOT
ATOM      1  C   LIG    1        1.416   3.483  -0.130  0.00  0.00    +0.470 C 
ATOM      2  N   LIG    1        0.805   4.238   0.804  0.00  0.00    -0.650 NA
ATOM      3  O   LIG    1        1.961   4.012  -1.075  0.00  0.00    -0.590 OA
ENDROOT
BRANCH   2   4
ATOM      4  C   LIG    1        0.801   5.619   0.686  0.00  0.00    +0.420 A 
ATOM      5  N   LIG    1        0.248   6.427   1.522  0.00  0.00    -0.550 NA
ATOM      6  C   LIG    1        0.328   7.748   1.270  0.00  0.00    +0.170 A 
ATOM      7  C   LIG    1       -0.190   8.824   2.022  0.00  0.00    -0.080 A 
ATOM      8  C   LIG    1       -0.006  10.118   1.602  0.00  0.00    +0.060 A 
ATOM      9  C   LIG    1        0.690  10.389   0.433  0.00  0.00    -0.030 A 
ATOM     10  C   LIG    1        1.204   9.354  -0.317  0.00  0.00    +0.080 A 
ATOM     11 BR   LIG    1       -1.143   8.482   3.619  0.00  0.00    -0.060 Br
ATOM     12  C   LIG    1        1.028   8.035   0.094  0.00  0.00    -0.240 A 
ATOM     13  S   LIG    1        1.557   6.516  -0.624  0.00  0.00    -0.020 S 
ENDBRANCH   2   4
BRANCH   1  19
ATOM     14  C   LIG    1       -0.667  -0.705   0.939  0.00  0.00    +0.540 C 
ATOM     15  N   LIG    1        0.002  -0.004   0.002  0.00  0.00    -0.610 N 
ATOM     16  C   LIG    1        0.771  -0.695  -1.042  0.00  0.00    +0.250 C 
ATOM     17  C   LIG    1        2.204  -0.153  -1.039  0.00  0.00    +0.020 C 
ATOM     18  C   LIG    1        2.171   1.369  -1.186  0.00  0.00    +0.040 C 
ATOM     19  C   LIG    1        1.420   1.982  -0.001  0.00  0.00    +0.000 C 
ATOM     20  C   LIG    1       -0.022   1.465   0.007  0.00  0.00    +0.300 C 
ATOM     21  O   LIG    1       -1.220  -0.124   1.853  0.00  0.00    -0.540 OA
BRANCH  14  23
ATOM     22  C   LIG    1       -1.471  -2.857   1.720  0.00  0.00    +0.120 C 
ATOM     23  C   LIG    1       -0.729  -2.172   0.854  0.00  0.00    -0.080 C 
ENDBRANCH  14  23
ENDBRANCH   1  19
TORSDOF 3
