REMARK  Name = ZINCbw0000000HlT.0
REMARK                            x       y       z     vdW  Elec       q    Type
REMARK                         _______ _______ _______ _____ _____    ______ ____
ROOT
ATOM      1  C   LIG    1        3.502   4.882  -0.004  0.00  0.00    +0.190 C 
ATOM      2  C   LIG    1        2.786   3.556  -0.005  0.00  0.00    +0.290 A 
ATOM      3  N   LIG    1        1.494   3.406   0.006  0.00  0.00    -0.480 NA
ATOM      4  C   LIG    1        1.188   2.083   0.002  0.00  0.00    +0.070 A 
ATOM      5  C   LIG    1       -0.017   1.373   0.010  0.00  0.00    -0.040 A 
ATOM      6  C   LIG    1        0.002  -0.004   0.002  0.00  0.00    +0.050 A 
ATOM      7  C   LIG    1        1.207  -0.692  -0.013  0.00  0.00    +0.040 A 
ATOM      8  C   LIG    1        2.403  -0.007  -0.021  0.00  0.00    +0.040 A 
ATOM      9 BR   LIG    1       -1.665   2.300   0.022  0.00  0.00    -0.030 Br
ATOM     10  C   LIG    1        2.404   1.381  -0.013  0.00  0.00    +0.050 A 
ATOM     11  N   LIG    1        3.397   2.340  -0.017  0.00  0.00    -0.600 N 
ATOM     12  H   LIG    1        4.354   2.178  -0.028  0.00  0.00    +0.430 HD
ENDROOT
TORSDOF 0
