REMARK  Name = ZINCbw0000000HlT.1
REMARK                            x       y       z     vdW  Elec       q    Type
REMARK                         _______ _______ _______ _____ _____    ______ ____
ROOT
ATOM      1  C   LIG    1        4.753   2.483  -0.029  0.00  0.00    +0.190 C 
ATOM      2  C   LIG    1        3.246   2.490  -0.016  0.00  0.00    +0.290 A 
ATOM      3  N   LIG    1        2.495   1.427  -0.014  0.00  0.00    -0.490 NA
ATOM      4  C   LIG    1        1.187   1.792   0.000  0.00  0.00    +0.060 A 
ATOM      5  C   LIG    1       -0.013   1.076   0.008  0.00  0.00    +0.090 A 
ATOM      6  C   LIG    1       -1.204   1.744   0.017  0.00  0.00    +0.020 A 
ATOM      7  C   LIG    1       -1.238   3.131   0.031  0.00  0.00    +0.070 A 
ATOM      8  C   LIG    1       -0.066   3.859   0.024  0.00  0.00    -0.090 A 
ATOM      9 BR   LIG    1       -0.122   5.749   0.034  0.00  0.00    -0.050 Br
ATOM     10  C   LIG    1        1.154   3.196   0.008  0.00  0.00    +0.070 A 
ATOM     11  N   LIG    1        2.472   3.609  -0.002  0.00  0.00    -0.590 N 
ATOM     12  H   LIG    1        2.788   4.526   0.000  0.00  0.00    +0.430 HD
ENDROOT
TORSDOF 0
