REMARK  Name = ZINCrH000004jn3y.0
REMARK                            x       y       z     vdW  Elec       q    Type
REMARK                         _______ _______ _______ _____ _____    ______ ____
ROOT
ATOM      1  N   LIG    1       -2.405   3.838   0.183  0.00  0.00    -0.510 N 
ATOM      2  C   LIG    1       -2.401   5.178   0.357  0.00  0.00    +0.500 A 
ATOM      3  C   LIG    1       -1.121   5.874   0.533  0.00  0.00    +0.120 A 
ATOM      4  N   LIG    1       -0.004   5.204   0.521  0.00  0.00    -0.400 NA
ATOM      5  C   LIG    1        0.002   3.868   0.349  0.00  0.00    +0.020 A 
ATOM      6  C   LIG    1        1.216   3.169   0.340  0.00  0.00    +0.190 A 
ATOM      7  C   LIG    1        1.214   1.791   0.161  0.00  0.00    -0.170 A 
ATOM      8  C   LIG    1        0.003   1.105  -0.010  0.00  0.00    +0.110 A 
ATOM      9  C   LIG    1       -1.182   1.780  -0.008  0.00  0.00    -0.010 A 
ATOM     10  C   LIG    1       -1.099   7.368   0.728  0.00  0.00    +0.180 C 
ATOM     11  O   LIG    1       -3.447   5.801   0.367  0.00  0.00    -0.500 OA
ATOM     12  C   LIG    1       -1.204   3.161   0.175  0.00  0.00    +0.170 A 
ENDROOT
BRANCH   7  13
ATOM     13  C   LIG    1        2.490   1.048   0.151  0.00  0.00    +0.560 C 
ATOM     14  N   LIG    1        2.490  -0.289  -0.023  0.00  0.00    -0.670 N 
ATOM     15  H   LIG    1        1.650  -0.772  -0.065  0.00  0.00    +0.410 HD
ATOM     16  O   LIG    1        3.540   1.641   0.299  0.00  0.00    -0.510 OA
BRANCH  14  17
ATOM     17  C   LIG    1        3.702  -0.979  -0.144  0.00  0.00    +0.130 A 
ATOM     18  C   LIG    1        3.816  -2.272   0.349  0.00  0.00    +0.020 A 
ATOM     19  C   LIG    1        5.012  -2.956   0.231  0.00  0.00    -0.030 A 
ATOM     20  C   LIG    1        6.099  -2.354  -0.380  0.00  0.00    +0.130 A 
ATOM     21  C   LIG    1        5.988  -1.056  -0.877  0.00  0.00    -0.100 A 
ATOM     22  C   LIG    1        4.787  -0.373  -0.763  0.00  0.00    +0.050 A 
BRANCH  21  23
ATOM     23  S   LIG    1        7.370  -0.288  -1.655  0.00  0.00    -0.080 S 
ATOM     24  C   LIG    1        6.726   1.345  -2.111  0.00  0.00    +0.130 C 
ENDBRANCH  21  23
BRANCH  20  25
ATOM     25  O   LIG    1        7.275  -3.029  -0.495  0.00  0.00    -0.310 OA
ATOM     26  C   LIG    1        7.317  -4.355   0.036  0.00  0.00    +0.250 C 
ENDBRANCH  20  25
ENDBRANCH  14  17
ENDBRANCH   7  13
BRANCH   1  28
ATOM     27  C   LIG    1       -4.010   3.050  -1.485  0.00  0.00    +0.040 C 
ATOM     28  C   LIG    1       -3.667   3.116   0.005  0.00  0.00    +0.290 C 
ENDBRANCH   1  28
TORSDOF 5
