REMARK  Name = ZINCqH0000003CQZ.0
REMARK                            x       y       z     vdW  Elec       q    Type
REMARK                         _______ _______ _______ _____ _____    ______ ____
ROOT
ATOM      1  C   LIG    1       -2.202   5.779  -3.916  0.00  0.00    +0.350 A 
ATOM      2  N   LIG    1       -2.069   4.531  -4.317  0.00  0.00    -0.580 NA
ATOM      3  C   LIG    1       -1.492   3.587  -3.573  0.00  0.00    +0.500 A 
ATOM      4  C   LIG    1       -1.019   4.012  -2.302  0.00  0.00    -0.220 A 
ATOM      5  C   LIG    1       -1.185   5.352  -1.927  0.00  0.00    +0.100 A 
ATOM      6  S   LIG    1       -0.520   5.603  -0.333  0.00  0.00    +0.180 S 
ATOM      7  C   LIG    1       -0.033   3.920  -0.191  0.00  0.00    -0.180 A 
ATOM      8  C   LIG    1        0.667   3.335   1.022  0.00  0.00    +0.130 C 
ATOM      9  C   LIG    1        0.560   1.809   0.971  0.00  0.00    -0.010 C 
ATOM     10  C   LIG    1        1.468   1.194   2.037  0.00  0.00    +0.030 C 
ATOM     11  C   LIG    1        0.998   1.329  -0.416  0.00  0.00    +0.030 C 
ATOM     12  C   LIG    1       -0.056   1.736  -1.445  0.00  0.00    +0.090 C 
ATOM     13  C   LIG    1       -0.356   3.222  -1.286  0.00  0.00    -0.070 A 
ATOM     14  N   LIG    1       -1.781   6.229  -2.747  0.00  0.00    -0.490 NA
ENDROOT
BRANCH   3  15
ATOM     15  N   LIG    1       -1.361   2.281  -4.010  0.00  0.00    -0.820 N 
ATOM     16  H   LIG    1       -1.566   2.055  -4.931  0.00  0.00    +0.410 HD
ATOM     17  H   LIG    1       -1.065   1.592  -3.395  0.00  0.00    +0.420 HD
ENDBRANCH   3  15
BRANCH   1  18
ATOM     18  C   LIG    1       -2.874   6.754  -4.849  0.00  0.00    +0.410 C 
BRANCH  18  23
ATOM     19  C   LIG    1       -1.383   6.880  -6.868  0.00  0.00    +0.210 A 
ATOM     20  N   LIG    1       -0.505   7.717  -7.349  0.00  0.00    -0.460 NA
ATOM     21  C   LIG    1       -0.398   8.769  -6.524  0.00  0.00    +0.140 A 
ATOM     22  C   LIG    1       -1.247   8.579  -5.496  0.00  0.00    +0.140 A 
ATOM     23  N   LIG    1       -1.867   7.378  -5.711  0.00  0.00    -0.450 N 
BRANCH  19  24
ATOM     24  C   LIG    1       -1.789   5.573  -7.500  0.00  0.00    +0.260 C 
ATOM     25  C   LIG    1       -2.699   5.847  -8.699  0.00  0.00    +0.030 C 
BRANCH  24  26
ATOM     26  O   LIG    1       -0.622   4.873  -7.937  0.00  0.00    -0.360 OA
BRANCH  26  28
ATOM     27  C   LIG    1        0.546   2.808  -8.399  0.00  0.00    +0.050 C 
ATOM     28  C   LIG    1       -0.755   3.450  -7.914  0.00  0.00    +0.150 C 
ENDBRANCH  26  28
ENDBRANCH  24  26
ENDBRANCH  19  24
ENDBRANCH  18  23
ENDBRANCH   1  18
TORSDOF 6
