REMARK  Name = ZINCtj00001n1jGP.0
REMARK                            x       y       z     vdW  Elec       q    Type
REMARK                         _______ _______ _______ _____ _____    ______ ____
ROOT
ATOM      1  N   LIG    1        3.664   4.513  -0.037  0.00  0.00    -0.460 N 
ATOM      2  C   LIG    1        4.183   4.173   1.296  0.00  0.00    +0.240 C 
ATOM      3  C   LIG    1        3.555   2.858   1.764  0.00  0.00    +0.280 C 
ATOM      4  N   LIG    1        2.094   3.002   1.810  0.00  0.00    -0.390 N 
ATOM      5  C   LIG    1        1.589   3.317   0.467  0.00  0.00    +0.280 C 
ATOM      6  H   LIG    1        1.849   3.747   2.444  0.00  0.00    +0.420 HD
ATOM      7  C   LIG    1        2.200   4.636  -0.011  0.00  0.00    +0.260 C 
ENDROOT
BRANCH   1   9
ATOM      8  N   LIG    1        5.057   5.743  -1.603  0.00  0.00    -0.380 N 
ATOM      9  C   LIG    1        4.247   5.665  -0.513  0.00  0.00    +0.420 A 
ATOM     10  N   LIG    1        4.104   6.865   0.012  0.00  0.00    -0.510 NA
ATOM     11  C   LIG    1        4.804   7.756  -0.691  0.00  0.00    +0.340 A 
ATOM     12  N   LIG    1        5.000   9.123  -0.577  0.00  0.00    -0.510 N 
ATOM     13  C   LIG    1        4.359   9.866   0.511  0.00  0.00    +0.350 C 
ATOM     14  C   LIG    1        5.779   9.769  -1.465  0.00  0.00    +0.710 A 
ATOM     15  O   LIG    1        5.941  10.969  -1.349  0.00  0.00    -0.520 OA
ATOM     16  N   LIG    1        6.383   9.121  -2.476  0.00  0.00    -0.650 N 
ATOM     17  H   LIG    1        6.937   9.617  -3.098  0.00  0.00    +0.440 HD
ATOM     18  C   LIG    1        6.229   7.790  -2.638  0.00  0.00    +0.600 A 
ATOM     19  O   LIG    1        6.782   7.214  -3.558  0.00  0.00    -0.500 OA
ATOM     20  C   LIG    1        5.424   7.075  -1.733  0.00  0.00    -0.130 A 
BRANCH   8  22
ATOM     21  C   LIG    1        4.523   4.561  -3.676  0.00  0.00    +0.050 C 
ATOM     22  C   LIG    1        5.462   4.635  -2.471  0.00  0.00    +0.320 C 
ENDBRANCH   8  22
ENDBRANCH   1   9
BRANCH   4  23
ATOM     23  C   LIG    1        1.494   1.745   2.276  0.00  0.00    +0.320 C 
BRANCH  23  24
ATOM     24  C   LIG    1        0.009   1.933   2.455  0.00  0.00    -0.160 A 
ATOM     25  C   LIG    1       -0.871   1.401   1.533  0.00  0.00    +0.040 A 
ATOM     26  C   LIG    1       -2.233   1.574   1.697  0.00  0.00    -0.080 A 
ATOM     27  C   LIG    1       -2.714   2.279   2.785  0.00  0.00    +0.060 A 
ATOM     28  C   LIG    1       -1.833   2.807   3.710  0.00  0.00    +0.030 A 
ATOM     29  C   LIG    1       -3.193   0.994   0.691  0.00  0.00    +0.100 C 
ATOM     30  C   LIG    1       -0.471   2.639   3.543  0.00  0.00    -0.070 A 
ATOM     31  C   LIG    1        0.489   3.219   4.549  0.00  0.00    +0.090 C 
ENDBRANCH  23  24
ENDBRANCH   4  23
TORSDOF 4
