REMARK  Name = ZINCkj000005gJfD.1
REMARK                            x       y       z     vdW  Elec       q    Type
REMARK                         _______ _______ _______ _____ _____    ______ ____
ROOT
ATOM      1  C   LIG    1        2.863  -2.155  -1.821  0.00  0.00    +0.280 C 
ENDROOT
BRANCH   1   2
ATOM      2  N   LIG    1        3.550  -2.889  -2.886  0.00  0.00    -0.730 N 
ATOM      3  H   LIG    1        3.865  -2.419  -3.674  0.00  0.00    +0.410 HD
ATOM      4  C   LIG    1        3.744  -4.218  -2.772  0.00  0.00    +0.530 C 
ATOM      5  O   LIG    1        3.349  -4.806  -1.788  0.00  0.00    -0.510 OA
BRANCH   4   6
ATOM      6  C   LIG    1        4.450  -4.973  -3.869  0.00  0.00    +0.240 C 
BRANCH   6   7
ATOM      7  C   LIG    1        4.537  -6.431  -3.499  0.00  0.00    +0.160 A 
ATOM      8  N   LIG    1        3.658  -7.351  -3.778  0.00  0.00    -0.260 NA
ATOM      9  N   LIG    1        4.060  -8.481  -3.312  0.00  0.00    -0.290 NA
ATOM     10  C   LIG    1        5.204  -8.319  -2.711  0.00  0.00    +0.180 A 
ATOM     11  C   LIG    1        6.012  -9.391  -2.026  0.00  0.00    +0.250 C 
ATOM     12  O   LIG    1        5.533  -7.020  -2.815  0.00  0.00    -0.220 OA
ENDBRANCH   6   7
ENDBRANCH   4   6
ENDBRANCH   1   2
BRANCH   1  13
ATOM     13  C   LIG    1        2.774  -0.674  -2.196  0.00  0.00    +0.250 C 
BRANCH  13  19
ATOM     14  C   LIG    1        2.139   1.500  -1.415  0.00  0.00    +0.170 C 
ATOM     15  C   LIG    1        1.494   2.278  -0.267  0.00  0.00    +0.060 C 
ATOM     16  C   LIG    1        0.034   1.840  -0.117  0.00  0.00    +0.040 C 
ATOM     17  C   LIG    1       -0.014   0.326   0.108  0.00  0.00    +0.060 C 
ATOM     18  C   LIG    1        0.688  -0.380  -1.055  0.00  0.00    +0.240 C 
ATOM     19  N   LIG    1        2.086   0.062  -1.128  0.00  0.00    -0.380 N 
ATOM     20  H   LIG    1        2.542  -0.121  -0.247  0.00  0.00    +0.430 HD
BRANCH  14  22
ATOM     21  C   LIG    1        1.560   3.261  -3.090  0.00  0.00    +0.060 C 
ATOM     22  C   LIG    1        1.383   1.789  -2.714  0.00  0.00    +0.020 C 
ENDBRANCH  14  22
ENDBRANCH  13  19
ENDBRANCH   1  13
TORSDOF 6
