REMARK  Name = ZINCkj000005gJfD.0
REMARK                            x       y       z     vdW  Elec       q    Type
REMARK                         _______ _______ _______ _____ _____    ______ ____
ROOT
ATOM      1  C   LIG    1        1.899   0.507   1.313  0.00  0.00    +0.280 C 
ENDROOT
BRANCH   1   2
ATOM      2  N   LIG    1        3.327   0.811   1.427  0.00  0.00    -0.730 N 
ATOM      3  H   LIG    1        3.758   1.372   0.763  0.00  0.00    +0.410 HD
ATOM      4  C   LIG    1        4.043   0.312   2.454  0.00  0.00    +0.530 C 
ATOM      5  O   LIG    1        3.504  -0.389   3.284  0.00  0.00    -0.510 OA
BRANCH   4   6
ATOM      6  C   LIG    1        5.512   0.625   2.571  0.00  0.00    +0.240 C 
BRANCH   6   7
ATOM      7  C   LIG    1        6.073  -0.048   3.797  0.00  0.00    +0.160 A 
ATOM      8  N   LIG    1        6.588  -1.244   3.853  0.00  0.00    -0.260 NA
ATOM      9  N   LIG    1        6.965  -1.490   5.057  0.00  0.00    -0.290 NA
ATOM     10  C   LIG    1        6.705  -0.461   5.812  0.00  0.00    +0.180 A 
ATOM     11  C   LIG    1        6.990  -0.340   7.287  0.00  0.00    +0.250 C 
ATOM     12  O   LIG    1        6.140   0.477   5.032  0.00  0.00    -0.220 OA
ENDBRANCH   6   7
ENDBRANCH   4   6
ENDBRANCH   1   2
BRANCH   1  13
ATOM     13  C   LIG    1        1.329   1.190   0.069  0.00  0.00    +0.250 C 
BRANCH  13  19
ATOM     14  C   LIG    1       -0.621   1.437  -1.303  0.00  0.00    +0.170 C 
ATOM     15  C   LIG    1       -2.094   1.054  -1.465  0.00  0.00    +0.070 C 
ATOM     16  C   LIG    1       -2.895   1.621  -0.289  0.00  0.00    +0.040 C 
ATOM     17  C   LIG    1       -2.299   1.097   1.021  0.00  0.00    +0.050 C 
ATOM     18  C   LIG    1       -0.821   1.479   1.089  0.00  0.00    +0.250 C 
ATOM     19  N   LIG    1       -0.103   0.885  -0.045  0.00  0.00    -0.380 N 
ATOM     20  H   LIG    1       -0.235  -0.115  -0.039  0.00  0.00    +0.420 HD
BRANCH  14  22
ATOM     21  C   LIG    1       -0.312   1.498  -3.782  0.00  0.00    +0.060 C 
ATOM     22  C   LIG    1        0.183   0.873  -2.476  0.00  0.00    +0.030 C 
ENDBRANCH  14  22
ENDBRANCH  13  19
ENDBRANCH   1  13
TORSDOF 6
