REMARK  Name = ZINCrH000004oLZc.0
REMARK                            x       y       z     vdW  Elec       q    Type
REMARK                         _______ _______ _______ _____ _____    ______ ____
ROOT
ATOM      1  C   LIG    1        0.223   0.526   6.057  0.00  0.00    -0.700 A 
ATOM      2  C   LIG    1        1.005  -0.613   6.008  0.00  0.00    +0.140 A 
ATOM      3  C   LIG    1        2.064  -0.764   6.882  0.00  0.00    -0.030 A 
ATOM      4  C   LIG    1        2.335   0.225   7.819  0.00  0.00    +0.200 A 
ATOM      5  C   LIG    1        1.543   1.365   7.870  0.00  0.00    +0.010 A 
ATOM      6  C   LIG    1        0.490   1.512   6.989  0.00  0.00    +0.140 A 
ENDROOT
BRANCH   4   7
ATOM      7  N   LIG    1        3.402   0.073   8.710  0.00  0.00    -0.670 N 
ATOM      8  H   LIG    1        4.205  -0.393   8.429  0.00  0.00    +0.410 HD
ATOM      9  C   LIG    1        3.316   0.574   9.957  0.00  0.00    +0.560 C 
ATOM     10  O   LIG    1        2.276   1.073  10.341  0.00  0.00    -0.500 OA
BRANCH   9  11
ATOM     11  C   LIG    1        4.484   0.518  10.859  0.00  0.00    -0.150 A 
ATOM     12  C   LIG    1        5.679  -0.060  10.423  0.00  0.00    +0.090 A 
ATOM     13  C   LIG    1        6.768  -0.105  11.266  0.00  0.00    -0.010 A 
ATOM     14  C   LIG    1        6.676   0.411  12.550  0.00  0.00    +0.130 A 
ATOM     15  C   LIG    1        5.491   0.981  12.990  0.00  0.00    -0.010 A 
ATOM     16  F   LIG    1        7.745   0.359  13.374  0.00  0.00    -0.130 F 
ATOM     17  C   LIG    1        4.397   1.036  12.153  0.00  0.00    +0.130 A 
ENDBRANCH   9  11
ENDBRANCH   4   7
BRANCH   1  18
ATOM     18  S   LIG    1       -1.122   0.717   4.935  0.00  0.00    +2.690 S 
ATOM     19  O   LIG    1       -1.490  -0.592   4.522  0.00  0.00    -0.950 OA
ATOM     20  O   LIG    1       -2.031   1.622   5.548  0.00  0.00    -0.950 OA
BRANCH  18  26
ATOM     21  C   LIG    1       -0.064   0.453  -0.022  0.00  0.00    +0.030 C 
ATOM     22  C   LIG    1       -0.706   1.149   1.180  0.00  0.00    -0.030 C 
ATOM     23  C   LIG    1       -0.576   2.666   1.021  0.00  0.00    +0.020 C 
ATOM     24  C   LIG    1       -1.246   3.364   2.207  0.00  0.00    -0.020 C 
ATOM     25  C   LIG    1       -0.541   2.951   3.502  0.00  0.00    +0.280 C 
ATOM     26  N   LIG    1       -0.534   1.484   3.591  0.00  0.00    -0.990 NA
ATOM     27  C   LIG    1       -2.719   2.954   2.275  0.00  0.00    +0.020 C 
ATOM     28  C   LIG    1        0.006   0.711   2.464  0.00  0.00    +0.280 C 
ENDBRANCH  18  26
ENDBRANCH   1  18
TORSDOF 4
