REMARK  Name = ZINCpk0000053tbG.1
REMARK                            x       y       z     vdW  Elec       q    Type
REMARK                         _______ _______ _______ _____ _____    ______ ____
ROOT
ATOM      1  C   LIG    1       -1.425  -2.916  -0.400  0.00  0.00    +0.550 C 
ATOM      2  N   LIG    1       -1.532  -1.898   0.477  0.00  0.00    -0.600 N 
ATOM      3  C   LIG    1       -1.734  -2.181   1.918  0.00  0.00    +0.280 C 
ATOM      4  C   LIG    1       -0.472  -2.003   2.655  0.00  0.00    -0.050 C 
ATOM      5  C   LIG    1        0.089  -0.580   2.493  0.00  0.00    +0.280 C 
ATOM      6  N   LIG    1        0.722  -0.497   1.208  0.00  0.00    -0.600 N 
ATOM      7  C   LIG    1        0.002  -0.004   0.002  0.00  0.00    +0.220 C 
ATOM      8  C   LIG    1       -0.019   1.526   0.010  0.00  0.00    +0.040 C 
ATOM      9  C   LIG    1        2.009  -0.878   1.089  0.00  0.00    +0.520 C 
ATOM     10  O   LIG    1        2.563  -0.816   0.012  0.00  0.00    -0.540 OA
ATOM     11  C   LIG    1       -0.721  -2.275   4.140  0.00  0.00    +0.030 C 
ATOM     12  C   LIG    1       -1.451  -0.540   0.014  0.00  0.00    +0.270 C 
ATOM     13  O   LIG    1       -1.494  -4.062  -0.011  0.00  0.00    -0.530 OA
ENDROOT
BRANCH   1  16
ATOM     14  C   LIG    1       -1.107  -3.827  -2.811  0.00  0.00    +0.000 C 
ATOM     15  C   LIG    1        0.134  -2.998  -2.475  0.00  0.00    +0.060 C 
ATOM     16  C   LIG    1       -1.220  -2.629  -1.866  0.00  0.00    -0.080 C 
BRANCH  14  18
ATOM     17  C   LIG    1       -1.198  -6.274  -3.309  0.00  0.00    +0.000 C 
ATOM     18  C   LIG    1       -1.210  -5.224  -2.196  0.00  0.00    +0.070 C 
ENDBRANCH  14  18
ENDBRANCH   1  16
BRANCH   9  19
ATOM     19  C   LIG    1        2.760  -1.382   2.295  0.00  0.00    +0.060 C 
BRANCH  19  20
ATOM     20  C   LIG    1        4.190  -1.745   1.890  0.00  0.00    +0.160 C 
BRANCH  20  21
ATOM     21  C   LIG    1        4.941  -2.248   3.095  0.00  0.00    -0.020 A 
ATOM     22  C   LIG    1        5.590  -3.430   3.210  0.00  0.00    +0.150 A 
ATOM     23  N   LIG    1        6.114  -3.453   4.457  0.00  0.00    -0.390 N 
ATOM     24  H   LIG    1        6.638  -4.174   4.840  0.00  0.00    +0.450 HD
ATOM     25  N   LIG    1        5.798  -2.354   5.048  0.00  0.00    -0.080 NA
ATOM     26  N   LIG    1        5.103  -1.611   4.261  0.00  0.00    -0.260 NA
ENDBRANCH  20  21
ENDBRANCH  19  20
ENDBRANCH   9  19
TORSDOF 5
