REMARK  Name = ZINCpk0000053tbG.0
REMARK                            x       y       z     vdW  Elec       q    Type
REMARK                         _______ _______ _______ _____ _____    ______ ____
ROOT
ATOM      1  C   LIG    1        8.191   4.847   1.578  0.00  0.00    +0.540 C 
ATOM      2  N   LIG    1        6.930   4.596   1.174  0.00  0.00    -0.600 N 
ATOM      3  C   LIG    1        6.381   3.267   1.440  0.00  0.00    +0.300 C 
ATOM      4  C   LIG    1        5.547   3.348   2.703  0.00  0.00    -0.050 C 
ATOM      5  C   LIG    1        4.113   3.784   2.373  0.00  0.00    +0.270 C 
ATOM      6  N   LIG    1        4.070   4.846   1.356  0.00  0.00    -0.610 N 
ATOM      7  C   LIG    1        4.965   5.989   1.360  0.00  0.00    +0.210 C 
ATOM      8  C   LIG    1        4.256   7.198   0.747  0.00  0.00    +0.060 C 
ATOM      9  C   LIG    1        3.151   4.755   0.374  0.00  0.00    +0.510 C 
ATOM     10  O   LIG    1        3.031   5.656  -0.429  0.00  0.00    -0.530 OA
ATOM     11  C   LIG    1        5.513   1.974   3.376  0.00  0.00    +0.030 C 
ATOM     12  C   LIG    1        6.225   5.643   0.519  0.00  0.00    +0.280 C 
ATOM     13  O   LIG    1        8.655   5.961   1.462  0.00  0.00    -0.530 OA
ENDROOT
BRANCH   1  16
ATOM     14  C   LIG    1       10.538   3.801   1.953  0.00  0.00    +0.000 C 
ATOM     15  C   LIG    1        9.696   2.764   1.206  0.00  0.00    +0.040 C 
ATOM     16  C   LIG    1        9.025   3.742   2.173  0.00  0.00    -0.060 C 
BRANCH  14  18
ATOM     17  C   LIG    1       12.617   4.925   1.142  0.00  0.00    +0.000 C 
ATOM     18  C   LIG    1       11.088   4.978   1.145  0.00  0.00    +0.050 C 
ENDBRANCH  14  18
ENDBRANCH   1  16
BRANCH   9  19
ATOM     19  C   LIG    1        2.273   3.535   0.274  0.00  0.00    +0.050 C 
BRANCH  19  20
ATOM     20  C   LIG    1        1.325   3.685  -0.917  0.00  0.00    +0.180 C 
BRANCH  20  21
ATOM     21  C   LIG    1        0.446   2.465  -1.017  0.00  0.00    +0.010 A 
ATOM     22  N   LIG    1        0.836   1.213  -1.095  0.00  0.00    -0.280 NA
ATOM     23  N   LIG    1       -0.204   0.460  -1.166  0.00  0.00    -0.250 N 
ATOM     24  H   LIG    1       -0.180  -0.508  -1.232  0.00  0.00    +0.470 HD
ATOM     25  N   LIG    1       -1.279   1.165  -1.144  0.00  0.00    -0.280 NA
ATOM     26  C   LIG    1       -0.950   2.433  -1.046  0.00  0.00    +0.180 A 
ENDBRANCH  20  21
ENDBRANCH  19  20
ENDBRANCH   9  19
TORSDOF 5
