REMARK  Name = ZINCrD00000hQ5D6.0
REMARK                            x       y       z     vdW  Elec       q    Type
REMARK                         _______ _______ _______ _____ _____    ______ ____
ROOT
ATOM      1  C   LIG    1       -0.033   4.250   0.026  0.00  0.00    +0.270 C 
ATOM      2  C   LIG    1       -0.581   4.429  -1.404  0.00  0.00    +0.100 C 
ATOM      3  C   LIG    1       -0.565   5.926  -1.616  0.00  0.00    +0.140 C 
ATOM      4  N   LIG    1       -0.113   6.505  -0.558  0.00  0.00    -0.240 NA
ATOM      5  N   LIG    1        0.231   5.628   0.469  0.00  0.00    -0.470 N 
ATOM      6  C   LIG    1        0.725   5.984   1.671  0.00  0.00    +0.550 C 
ATOM      7  O   LIG    1        0.991   5.133   2.494  0.00  0.00    -0.510 OA
ATOM      8  C   LIG    1        0.948   7.439   1.994  0.00  0.00    +0.110 C 
ENDROOT
BRANCH   1  14
ATOM      9  C   LIG    1        1.185   2.058   0.002  0.00  0.00    +0.140 A 
ATOM     10  C   LIG    1        2.359   1.320  -0.008  0.00  0.00    -0.080 A 
ATOM     11  C   LIG    1        3.580   1.966  -0.021  0.00  0.00    +0.060 A 
ATOM     12  C   LIG    1        3.633   3.348  -0.014  0.00  0.00    -0.020 A 
ATOM     13  C   LIG    1        2.463   4.086   0.000  0.00  0.00    +0.060 A 
ATOM     14  C   LIG    1        1.240   3.445   0.009  0.00  0.00    -0.110 A 
BRANCH   9  15
ATOM     15  O   LIG    1       -0.017   1.425   0.010  0.00  0.00    -0.290 OA
BRANCH  15  16
ATOM     16  C   LIG    1        0.002  -0.004   0.002  0.00  0.00    +0.290 C 
BRANCH  16  17
ATOM     17  C   LIG    1       -1.412  -0.526   0.013  0.00  0.00    +0.470 C 
ATOM     18  O   LIG    1       -2.341   0.247   0.026  0.00  0.00    -0.480 OA
BRANCH  17  19
ATOM     19  O   LIG    1       -1.639  -1.849   0.008  0.00  0.00    -0.350 OA
BRANCH  19  21
ATOM     20  C   LIG    1       -3.085  -3.808   0.011  0.00  0.00    +0.070 C 
ATOM     21  C   LIG    1       -3.026  -2.279   0.019  0.00  0.00    +0.200 C 
ENDBRANCH  19  21
ENDBRANCH  17  19
ENDBRANCH  16  17
ENDBRANCH  15  16
ENDBRANCH   9  15
ENDBRANCH   1  14
BRANCH   3  22
ATOM     22  C   LIG    1       -1.000   6.616  -2.844  0.00  0.00    -0.040 A 
ATOM     23  C   LIG    1       -1.469   5.880  -3.934  0.00  0.00    +0.040 A 
ATOM     24  C   LIG    1       -1.878   6.532  -5.079  0.00  0.00    +0.010 A 
ATOM     25  C   LIG    1       -1.816   7.913  -5.152  0.00  0.00    +0.030 A 
ATOM     26  C   LIG    1       -1.348   8.649  -4.077  0.00  0.00    +0.010 A 
ATOM     27  C   LIG    1       -0.940   8.009  -2.925  0.00  0.00    +0.050 A 
ENDBRANCH   3  22
TORSDOF 7
