REMARK  Name = ZINCwl0000000kqj.0
REMARK                            x       y       z     vdW  Elec       q    Type
REMARK                         _______ _______ _______ _____ _____    ______ ____
ROOT
ATOM      1  S   LIG    1       -0.017   1.417   0.010  0.00  0.00    +2.680 S 
ATOM      2  O   LIG    1        1.162   2.210   0.003  0.00  0.00    -0.950 OA
ATOM      3  O   LIG    1        0.002  -0.004   0.002  0.00  0.00    -0.930 OA
ENDROOT
BRANCH   1   4
ATOM      4  C   LIG    1       -0.930   1.894   1.440  0.00  0.00    -0.640 A 
ATOM      5  C   LIG    1       -0.728   3.140   2.004  0.00  0.00    +0.110 A 
ATOM      6  C   LIG    1       -1.448   3.516   3.123  0.00  0.00    +0.110 A 
ATOM      7  C   LIG    1       -2.361   2.643   3.683  0.00  0.00    -0.620 A 
ATOM      8  C   LIG    1       -2.559   1.395   3.122  0.00  0.00    +0.130 A 
ATOM      9  C   LIG    1       -1.843   1.021   2.000  0.00  0.00    +0.110 A 
BRANCH   7  10
ATOM     10  S   LIG    1       -3.273   3.120   5.114  0.00  0.00    +2.680 S 
ATOM     11  O   LIG    1       -4.452   2.327   5.121  0.00  0.00    -0.940 OA
ATOM     12  O   LIG    1       -3.292   4.541   5.122  0.00  0.00    -0.940 OA
BRANCH  10  13
ATOM     13  N   LIG    1       -2.390   2.657   6.435  0.00  0.00    -1.000 NA
ATOM     14  C   LIG    1       -2.575   1.329   7.043  0.00  0.00    +0.270 C 
ATOM     15  C   LIG    1       -1.193   0.674   7.195  0.00  0.00    +0.210 C 
ATOM     16  O   LIG    1       -0.322   1.573   7.887  0.00  0.00    -0.370 OA
ATOM     17  C   LIG    1       -0.079   2.800   7.196  0.00  0.00    +0.210 C 
ATOM     18  C   LIG    1       -1.400   3.562   7.041  0.00  0.00    +0.270 C 
ENDBRANCH  10  13
ENDBRANCH   7  10
ENDBRANCH   1   4
BRANCH   1  19
ATOM     19  N   LIG    1       -0.900   1.880  -1.312  0.00  0.00    -0.990 NA
BRANCH  19  20
ATOM     20  C   LIG    1       -0.702   3.208  -1.897  0.00  0.00    +0.320 C 
BRANCH  20  21
ATOM     21  C   LIG    1        0.296   3.114  -3.052  0.00  0.00    +0.240 C 
BRANCH  21  23
ATOM     22  C   LIG    1        1.541   4.377  -4.668  0.00  0.00    +0.330 C 
ATOM     23  N   LIG    1        0.495   4.446  -3.639  0.00  0.00    -0.380 N 
ATOM     24  C   LIG    1       -0.761   4.906  -4.247  0.00  0.00    +0.310 C 
ATOM     25  H   LIG    1        0.775   5.093  -2.917  0.00  0.00    +0.430 HD
ENDBRANCH  21  23
ENDBRANCH  20  21
ENDBRANCH  19  20
BRANCH  19  26
ATOM     26  C   LIG    1       -1.879   0.961  -1.898  0.00  0.00    +0.310 C 
BRANCH  26  27
ATOM     27  C   LIG    1       -3.266   1.259  -1.323  0.00  0.00    +0.060 C 
BRANCH  27  28
ATOM     28  C   LIG    1       -4.273   0.313  -1.925  0.00  0.00    -0.100 A 
ATOM     29  C   LIG    1       -4.939   0.660  -3.086  0.00  0.00    +0.000 A 
ATOM     30  C   LIG    1       -5.860  -0.209  -3.640  0.00  0.00    +0.000 A 
ATOM     31  C   LIG    1       -6.122  -1.421  -3.029  0.00  0.00    +0.020 A 
ATOM     32  C   LIG    1       -5.459  -1.766  -1.866  0.00  0.00    +0.020 A 
ATOM     33  C   LIG    1       -4.535  -0.899  -1.314  0.00  0.00    +0.010 A 
ENDBRANCH  27  28
ENDBRANCH  26  27
ENDBRANCH  19  26
ENDBRANCH   1  19
TORSDOF 10
