REMARK  Name = ZINCrD00000F5LCK.0
REMARK                            x       y       z     vdW  Elec       q    Type
REMARK                         _______ _______ _______ _____ _____    ______ ____
ROOT
ATOM      1  N   LIG    1        6.517  10.303  -0.146  0.00  0.00    -1.000 NA
ATOM      2  C   LIG    1        6.014  11.126  -1.254  0.00  0.00    +0.290 C 
ATOM      3  C   LIG    1        4.482  11.114  -1.222  0.00  0.00    +0.030 C 
ATOM      4  C   LIG    1        3.987   9.666  -1.239  0.00  0.00    +0.040 C 
ATOM      5  C   LIG    1        4.503   8.934   0.002  0.00  0.00    -0.010 C 
ATOM      6  C   LIG    1        6.034   8.921  -0.016  0.00  0.00    +0.330 C 
ENDROOT
BRANCH   5   7
ATOM      7  C   LIG    1        3.988   7.517   0.001  0.00  0.00    +0.540 C 
ATOM      8  N   LIG    1        2.661   7.282   0.012  0.00  0.00    -0.580 N 
ATOM      9  H   LIG    1        2.037   8.025   0.021  0.00  0.00    +0.390 HD
ATOM     10  O   LIG    1        4.769   6.588  -0.010  0.00  0.00    -0.490 OA
BRANCH   8  11
ATOM     11  N   LIG    1        2.183   5.966   0.011  0.00  0.00    -0.230 NA
ATOM     12  C   LIG    1        0.902   5.739   0.022  0.00  0.00    +0.280 C 
BRANCH  12  13
ATOM     13  C   LIG    1        0.401   4.361   0.021  0.00  0.00    -0.160 A 
ATOM     14  C   LIG    1       -0.913   4.000   0.031  0.00  0.00    +0.060 A 
ATOM     15  C   LIG    1       -1.130   2.640   0.021  0.00  0.00    +0.050 A 
ATOM     16  C   LIG    1       -0.024   1.887   0.012  0.00  0.00    -0.210 A 
ATOM     17 BR   LIG    1        0.002  -0.004   0.002  0.00  0.00    +0.020 Br
ATOM     18  S   LIG    1        1.403   2.915   0.004  0.00  0.00    +0.250 S 
ENDBRANCH  12  13
ENDBRANCH   8  11
ENDBRANCH   5   7
BRANCH   1  19
ATOM     19  S   LIG    1        7.607  10.921   0.937  0.00  0.00    +2.690 S 
ATOM     20  O   LIG    1        8.271  11.988   0.273  0.00  0.00    -0.950 OA
ATOM     21  O   LIG    1        8.291   9.808   1.497  0.00  0.00    -0.950 OA
BRANCH  19  26
ATOM     22  C   LIG    1        4.447  13.417   5.430  0.00  0.00    +0.090 C 
ATOM     23  C   LIG    1        5.237  12.793   4.308  0.00  0.00    -0.030 A 
ATOM     24  C   LIG    1        5.607  11.464   4.379  0.00  0.00    -0.010 A 
ATOM     25  C   LIG    1        6.332  10.892   3.350  0.00  0.00    +0.120 A 
ATOM     26  C   LIG    1        6.684  11.650   2.249  0.00  0.00    -0.690 A 
ATOM     27  C   LIG    1        6.318  12.981   2.180  0.00  0.00    +0.120 A 
ATOM     28  C   LIG    1        5.590  13.551   3.207  0.00  0.00    -0.010 A 
ENDBRANCH  19  26
ENDBRANCH   1  19
TORSDOF 5
