REMARK  Name = ZINCrH000004uVqw.0
REMARK                            x       y       z     vdW  Elec       q    Type
REMARK                         _______ _______ _______ _____ _____    ______ ____
ROOT
ATOM      1  C   LIG    1        1.151   3.592   0.010  0.00  0.00    +0.270 C 
ENDROOT
BRANCH   1   2
ATOM      2  C   LIG    1        1.171   2.086   0.002  0.00  0.00    -0.100 A 
ATOM      3  C   LIG    1       -0.017   1.378   0.010  0.00  0.00    +0.030 A 
ATOM      4  C   LIG    1        0.002  -0.004   0.002  0.00  0.00    +0.000 A 
ATOM      5  C   LIG    1        1.208  -0.679  -0.013  0.00  0.00    +0.000 A 
ATOM      6  C   LIG    1        2.396   0.029  -0.021  0.00  0.00    +0.000 A 
ATOM      7  C   LIG    1        2.377   1.411  -0.015  0.00  0.00    +0.000 A 
ENDBRANCH   1   2
BRANCH   1  10
ATOM      8  O   LIG    1        0.904   3.903   2.678  0.00  0.00    -0.530 OA
ATOM      9  C   LIG    1        1.986   4.209   2.214  0.00  0.00    +0.560 C 
ATOM     10  N   LIG    1        2.210   4.090   0.890  0.00  0.00    -0.720 N 
ATOM     11  H   LIG    1        3.073   4.335   0.521  0.00  0.00    +0.410 HD
BRANCH   9  12
ATOM     12  C   LIG    1        3.051   4.710   3.099  0.00  0.00    -0.060 A 
ATOM     13  C   LIG    1        4.291   5.058   2.589  0.00  0.00    +0.030 A 
ATOM     14  C   LIG    1        5.303   5.537   3.413  0.00  0.00    +0.050 A 
ATOM     15  C   LIG    1        5.148   5.683   4.754  0.00  0.00    +0.060 A 
ATOM     16  C   LIG    1        3.927   5.352   5.376  0.00  0.00    +0.100 A 
ATOM     17  N   LIG    1        3.479   5.381   6.619  0.00  0.00    -0.300 NA
ATOM     18  N   LIG    1        2.155   4.924   6.634  0.00  0.00    -0.430 N 
ATOM     19  H   LIG    1        1.601   4.850   7.426  0.00  0.00    +0.450 HD
ATOM     20  C   LIG    1        1.768   4.605   5.389  0.00  0.00    +0.300 A 
ATOM     21  C   LIG    1        2.825   4.846   4.542  0.00  0.00    -0.180 A 
ENDBRANCH   9  12
ENDBRANCH   1  10
BRANCH   1  22
ATOM     22  C   LIG    1        1.381   4.113  -1.410  0.00  0.00    +0.270 C 
BRANCH  22  23
ATOM     23  C   LIG    1        0.227   3.703  -2.289  0.00  0.00    -0.120 A 
ATOM     24  C   LIG    1        0.175   2.424  -2.809  0.00  0.00    +0.020 A 
ATOM     25  C   LIG    1       -0.886   2.046  -3.611  0.00  0.00    +0.000 A 
ATOM     26  C   LIG    1       -1.890   2.951  -3.901  0.00  0.00    +0.010 A 
ATOM     27  C   LIG    1       -1.835   4.233  -3.385  0.00  0.00    +0.000 A 
ATOM     28  C   LIG    1       -0.777   4.609  -2.579  0.00  0.00    +0.010 A 
ENDBRANCH  22  23
BRANCH  22  29
ATOM     29  O   LIG    1        2.593   3.562  -1.929  0.00  0.00    -0.550 OA
ATOM     30  H   LIG    1        2.598   2.596  -1.975  0.00  0.00    +0.380 HD
ENDBRANCH  22  29
ENDBRANCH   1  22
TORSDOF 6
