REMARK  Name = ZINCpe000000XMJ9.0
REMARK                            x       y       z     vdW  Elec       q    Type
REMARK                         _______ _______ _______ _____ _____    ______ ____
ROOT
ATOM      1  N   LIG    1       -3.549   1.583  -0.813  0.00  0.00    -0.610 N 
ATOM      2  C   LIG    1       -2.516   0.955   0.019  0.00  0.00    +0.300 C 
ATOM      3  C   LIG    1       -1.330   1.944   0.019  0.00  0.00    +0.000 C 
ATOM      4  C   LIG    1       -1.550   2.701  -1.311  0.00  0.00    +0.080 C 
ATOM      5  C   LIG    1       -3.034   2.563  -1.575  0.00  0.00    +0.520 C 
ATOM      6  O   LIG    1       -3.666   3.239  -2.359  0.00  0.00    -0.520 OA
ENDROOT
BRANCH   3   7
ATOM      7  C   LIG    1       -0.014   1.209   0.009  0.00  0.00    +0.530 C 
ATOM      8  N   LIG    1        1.143   1.898   0.001  0.00  0.00    -0.730 N 
ATOM      9  H   LIG    1        1.130   2.868   0.007  0.00  0.00    +0.400 HD
ATOM     10  O   LIG    1        0.002  -0.004   0.002  0.00  0.00    -0.530 OA
BRANCH   8  11
ATOM     11  C   LIG    1        2.422   1.183  -0.015  0.00  0.00    +0.290 C 
BRANCH  11  12
ATOM     12  C   LIG    1        3.571   2.193  -0.020  0.00  0.00    +0.010 C 
ATOM     13  C   LIG    1        3.594   2.958  -1.355  0.00  0.00    +0.070 C 
ATOM     14  C   LIG    1        4.936   3.707  -1.473  0.00  0.00    -0.310 C 
ATOM     15  S   LIG    1        6.121   2.718  -0.492  0.00  0.00    +2.390 S 
ATOM     16  O   LIG    1        7.064   2.111  -1.365  0.00  0.00    -0.930 OA
ATOM     17  O   LIG    1        6.572   3.485   0.616  0.00  0.00    -0.930 OA
ATOM     18  C   LIG    1        4.929   1.453   0.090  0.00  0.00    -0.310 C 
ENDBRANCH  11  12
ENDBRANCH   8  11
ENDBRANCH   3   7
BRANCH   1  19
ATOM     19  C   LIG    1       -4.961   1.191  -0.814  0.00  0.00    +0.350 C 
BRANCH  19  24
ATOM     20  C   LIG    1       -7.821   4.278   3.146  0.00  0.00    +0.090 C 
ATOM     21  C   LIG    1       -7.075   3.473   2.113  0.00  0.00    -0.080 A 
ATOM     22  C   LIG    1       -6.965   3.943   0.818  0.00  0.00    +0.000 A 
ATOM     23  C   LIG    1       -6.281   3.204  -0.130  0.00  0.00    +0.040 A 
ATOM     24  C   LIG    1       -5.707   1.996   0.218  0.00  0.00    -0.120 A 
ATOM     25  C   LIG    1       -5.821   1.524   1.512  0.00  0.00    +0.020 A 
ATOM     26  C   LIG    1       -6.502   2.264   2.461  0.00  0.00    +0.000 A 
ENDBRANCH  19  24
ENDBRANCH   1  19
TORSDOF 5
