REMARK  Name = ZINCrg00001JduNY.0
REMARK                            x       y       z     vdW  Elec       q    Type
REMARK                         _______ _______ _______ _____ _____    ______ ____
ROOT
ATOM      1  N   LIG    1       -3.026   0.596  -0.868  0.00  0.00    -0.730 N 
ATOM      2  H   LIG    1       -2.595  -0.263  -1.000  0.00  0.00    +0.400 HD
ATOM      3  C   LIG    1       -4.370   0.689  -0.911  0.00  0.00    +0.730 C 
ATOM      4  N   LIG    1       -5.115  -0.411  -1.138  0.00  0.00    -0.630 N 
ATOM      5  C   LIG    1       -4.592  -1.771  -1.361  0.00  0.00    +0.260 C 
ATOM      6  C   LIG    1       -5.755  -2.713  -0.951  0.00  0.00    +0.070 C 
ATOM      7  C   LIG    1       -6.988  -1.920  -1.460  0.00  0.00    +0.160 C 
ATOM      8  C   LIG    1       -6.582  -0.452  -1.210  0.00  0.00    +0.260 C 
ATOM      9  O   LIG    1       -4.910   1.766  -0.745  0.00  0.00    -0.570 OA
ENDROOT
BRANCH   1  14
ATOM     10  C   LIG    1       -0.176   1.628   2.539  0.00  0.00    +0.300 C 
ATOM     11  N   LIG    1       -0.737   1.577   1.186  0.00  0.00    -0.630 N 
ATOM     12  C   LIG    1       -0.013   1.086   0.008  0.00  0.00    +0.260 C 
ATOM     13  C   LIG    1       -0.798   1.617  -1.212  0.00  0.00    +0.060 C 
ATOM     14  C   LIG    1       -2.216   1.792  -0.622  0.00  0.00    +0.260 C 
ATOM     15  C   LIG    1       -1.981   1.975   0.862  0.00  0.00    +0.500 C 
ATOM     16  O   LIG    1       -2.795   2.417   1.645  0.00  0.00    -0.500 OA
ENDBRANCH   1  14
BRANCH   7  17
ATOM     17  O   LIG    1       -8.153  -2.258  -0.705  0.00  0.00    -0.280 OA
BRANCH  17  18
ATOM     18  C   LIG    1       -9.356  -2.082  -1.315  0.00  0.00    +0.070 A 
ATOM     19  C   LIG    1       -9.424  -1.589  -2.609  0.00  0.00    -0.010 A 
ATOM     20  C   LIG    1      -10.675  -1.431  -3.192  0.00  0.00    -0.020 A 
ATOM     21  C   LIG    1      -11.804  -1.756  -2.470  0.00  0.00    +0.250 A 
ATOM     22  N   LIG    1      -11.712  -2.218  -1.236  0.00  0.00    -0.480 NA
ATOM     23  C   LIG    1      -10.542  -2.389  -0.644  0.00  0.00    +0.290 A 
BRANCH  23  24
ATOM     24  N   LIG    1      -10.491  -2.880   0.658  0.00  0.00    -0.450 N 
ATOM     25  C   LIG    1       -9.887  -1.884   1.579  0.00  0.00    +0.200 C 
ATOM     26  C   LIG    1      -10.382  -2.344   2.973  0.00  0.00    +0.040 C 
ATOM     27  C   LIG    1      -11.824  -2.824   2.687  0.00  0.00    +0.010 C 
ATOM     28  C   LIG    1      -11.851  -3.139   1.180  0.00  0.00    +0.200 C 
ENDBRANCH  23  24
ENDBRANCH  17  18
ENDBRANCH   7  17
TORSDOF 4
