REMARK  Name = ZINCpk00000KfKxi.0
REMARK                            x       y       z     vdW  Elec       q    Type
REMARK                         _______ _______ _______ _____ _____    ______ ____
ROOT
ATOM      1  N   LIG    1        3.866  10.055  -0.184  0.00  0.00    -0.740 N 
ATOM      2  H   LIG    1        4.835   9.999  -0.193  0.00  0.00    +0.400 HD
ATOM      3  C   LIG    1        3.127   8.933  -0.082  0.00  0.00    +0.710 C 
ATOM      4  N   LIG    1        3.733   7.732   0.008  0.00  0.00    -0.680 N 
ATOM      5  H   LIG    1        4.700   7.681   0.077  0.00  0.00    +0.410 HD
ATOM      6  O   LIG    1        1.913   9.003  -0.071  0.00  0.00    -0.570 OA
ENDROOT
BRANCH   4   7
ATOM      7  C   LIG    1        2.968   6.559   0.003  0.00  0.00    +0.110 A 
ATOM      8  C   LIG    1        1.784   6.493  -0.728  0.00  0.00    +0.110 A 
ATOM      9  C   LIG    1        1.061   5.313  -0.705  0.00  0.00    +0.010 A 
ATOM     10  C   LIG    1        1.536   4.242   0.040  0.00  0.00    +0.350 A 
ATOM     11  N   LIG    1        2.663   4.341   0.727  0.00  0.00    -0.490 NA
ATOM     12  C   LIG    1        3.381   5.447   0.724  0.00  0.00    +0.280 A 
BRANCH  10  13
ATOM     13  N   LIG    1        0.812   3.045   0.070  0.00  0.00    -0.330 N 
ATOM     14  C   LIG    1        1.154   1.920   0.750  0.00  0.00    +0.260 A 
ATOM     15  C   LIG    1        0.191   0.996   0.523  0.00  0.00    -0.110 A 
ATOM     16  C   LIG    1       -0.762   1.566  -0.328  0.00  0.00    +0.260 A 
ATOM     17  N   LIG    1       -0.394   2.793  -0.597  0.00  0.00    -0.290 NA
ENDBRANCH  10  13
ENDBRANCH   4   7
BRANCH   1  18
ATOM     18  C   LIG    1        3.207  11.360  -0.282  0.00  0.00    +0.290 C 
BRANCH  18  19
ATOM     19  C   LIG    1        4.266  12.459  -0.386  0.00  0.00    +0.160 C 
BRANCH  19  23
ATOM     20  C   LIG    1        2.885  16.302   0.794  0.00  0.00    +0.010 C 
ATOM     21  C   LIG    1        3.841  16.202  -0.396  0.00  0.00    +0.200 C 
ATOM     22  C   LIG    1        4.578  14.861  -0.348  0.00  0.00    +0.150 C 
ATOM     23  N   LIG    1        3.605  13.768  -0.484  0.00  0.00    -0.530 NA
ATOM     24  C   LIG    1        2.859  13.888  -1.746  0.00  0.00    +0.160 C 
ATOM     25  C   LIG    1        2.140  15.239  -1.780  0.00  0.00    +0.160 C 
ATOM     26  C   LIG    1        1.427  15.404  -3.124  0.00  0.00    +0.050 C 
ATOM     27  O   LIG    1        3.097  16.288  -1.615  0.00  0.00    -0.380 OA
ENDBRANCH  19  23
ENDBRANCH  18  19
ENDBRANCH   1  18
TORSDOF 5
