REMARK  Name = ZINCpe00000MJL5T.0
REMARK                            x       y       z     vdW  Elec       q    Type
REMARK                         _______ _______ _______ _____ _____    ______ ____
ROOT
ATOM      1  C   LIG    1       -0.705  -0.711   0.906  0.00  0.00    +0.570 C 
ATOM      2  N   LIG    1        0.209  -0.024   0.193  0.00  0.00    -0.610 N 
ATOM      3  C   LIG    1        0.201   1.447   0.172  0.00  0.00    +0.310 C 
ATOM      4  C   LIG    1        1.610   1.946   0.510  0.00  0.00    +0.190 C 
ATOM      5  N   LIG    1        2.580   1.317  -0.397  0.00  0.00    -0.530 NA
ATOM      6  C   LIG    1        2.610  -0.140  -0.217  0.00  0.00    +0.270 C 
ATOM      7  C   LIG    1        3.918   1.897  -0.221  0.00  0.00    +0.200 C 
ATOM      8  C   LIG    1        1.242  -0.725  -0.585  0.00  0.00    +0.300 C 
ATOM      9  O   LIG    1       -1.485  -0.117   1.626  0.00  0.00    -0.520 OA
ENDROOT
BRANCH   1  14
ATOM     10  C   LIG    1       -0.615  -4.205  -0.493  0.00  0.00    -0.140 A 
ATOM     11  C   LIG    1       -0.868  -4.957   0.656  0.00  0.00    +0.070 A 
ATOM     12  C   LIG    1       -1.065  -4.327   1.869  0.00  0.00    +0.010 A 
ATOM     13  C   LIG    1       -1.013  -2.950   1.954  0.00  0.00    +0.100 A 
ATOM     14  C   LIG    1       -0.760  -2.185   0.813  0.00  0.00    -0.140 A 
ATOM     15  C   LIG    1       -0.566  -2.815  -0.414  0.00  0.00    +0.120 A 
BRANCH  10  19
ATOM     16  C   LIG    1       -0.248  -6.897  -3.151  0.00  0.00    +0.290 C 
ATOM     17  N   LIG    1       -0.457  -6.227  -1.865  0.00  0.00    -0.730 N 
ATOM     18  H   LIG    1       -0.633  -6.750  -1.068  0.00  0.00    +0.400 HD
ATOM     19  C   LIG    1       -0.404  -4.882  -1.790  0.00  0.00    +0.560 C 
ATOM     20  O   LIG    1       -0.183  -4.226  -2.789  0.00  0.00    -0.530 OA
ENDBRANCH  10  19
ENDBRANCH   1  14
BRANCH   6  21
ATOM     21  C   LIG    1        3.668  -0.736  -1.110  0.00  0.00    +0.190 A 
ATOM     22  N   LIG    1        4.548  -1.649  -0.775  0.00  0.00    -0.470 NA
ATOM     23  C   LIG    1        5.279  -1.870  -1.883  0.00  0.00    +0.170 A 
ATOM     24  N   LIG    1        4.814  -1.095  -2.817  0.00  0.00    -0.380 NA
ATOM     25  C   LIG    1        6.426  -2.838  -2.016  0.00  0.00    +0.210 C 
ATOM     26  O   LIG    1        3.885  -0.440  -2.395  0.00  0.00    +0.100 OA
ENDBRANCH   6  21
TORSDOF 3
