REMARK  Name = ZINCrH000004qnbj.0
REMARK                            x       y       z     vdW  Elec       q    Type
REMARK                         _______ _______ _______ _____ _____    ______ ____
ROOT
ATOM      1  C   LIG    1        8.703   1.151  -0.079  0.00  0.00    +0.140 C 
ATOM      2  C   LIG    1        7.799   2.357  -0.063  0.00  0.00    +0.020 A 
ATOM      3  C   LIG    1        6.456   2.324  -0.050  0.00  0.00    +0.000 A 
ATOM      4  C   LIG    1        6.006   3.722  -0.037  0.00  0.00    -0.260 A 
ATOM      5  C   LIG    1        7.155   4.490  -0.050  0.00  0.00    +0.130 A 
ATOM      6  C   LIG    1        7.213   5.996  -0.050  0.00  0.00    +0.150 C 
ATOM      7  N   LIG    1        8.215   3.659  -0.059  0.00  0.00    -0.390 N 
ENDROOT
BRANCH   7   8
ATOM      8  C   LIG    1        9.556   4.071  -0.070  0.00  0.00    +0.060 A 
ATOM      9  C   LIG    1       10.210   4.277  -1.277  0.00  0.00    +0.070 A 
ATOM     10  C   LIG    1       11.529   4.689  -1.285  0.00  0.00    +0.020 A 
ATOM     11  C   LIG    1       12.201   4.885  -0.093  0.00  0.00    +0.070 A 
ATOM     12  C   LIG    1       11.556   4.676   1.112  0.00  0.00    +0.000 A 
ATOM     13  C   LIG    1       10.234   4.269   1.127  0.00  0.00    +0.120 A 
ATOM     14  F   LIG    1        9.603   4.065   2.304  0.00  0.00    -0.130 F 
ENDBRANCH   7   8
BRANCH   4  15
ATOM     15  C   LIG    1        4.623   4.204  -0.021  0.00  0.00    +0.430 C 
ATOM     16  O   LIG    1        4.396   5.396  -0.012  0.00  0.00    -0.430 OA
BRANCH  15  17
ATOM     17  C   LIG    1        3.483   3.219  -0.015  0.00  0.00    +0.210 C 
BRANCH  17  18
ATOM     18  O   LIG    1        2.242   3.928   0.001  0.00  0.00    -0.250 OA
BRANCH  18  19
ATOM     19  C   LIG    1        1.105   3.182   0.009  0.00  0.00    +0.170 A 
ATOM     20  C   LIG    1        1.173   1.793   0.001  0.00  0.00    +0.000 A 
ATOM     21  C   LIG    1       -0.013   1.076   0.008  0.00  0.00    +0.110 A 
ATOM     22  C   LIG    1       -1.214   1.759   0.017  0.00  0.00    +0.270 A 
ATOM     23  N   LIG    1       -1.244   3.077   0.030  0.00  0.00    -0.380 NA
ATOM     24  C   LIG    1       -0.139   3.796   0.024  0.00  0.00    +0.110 A 
BRANCH  24  25
ATOM     25  N   LIG    1       -0.219   5.149   0.032  0.00  0.00    +0.060 N 
ATOM     26  O   LIG    1       -1.308   5.694   0.046  0.00  0.00    -0.160 OA
ATOM     27  O   LIG    1        0.798   5.819   0.027  0.00  0.00    -0.150 OA
ENDBRANCH  24  25
ENDBRANCH  18  19
ENDBRANCH  17  18
ENDBRANCH  15  17
ENDBRANCH   4  15
TORSDOF 6
