REMARK  Name = ZINCpe00000MJIJ2.0
REMARK                            x       y       z     vdW  Elec       q    Type
REMARK                         _______ _______ _______ _____ _____    ______ ____
ROOT
ATOM      1  C   LIG    1       -0.628   2.870   0.536  0.00  0.00    +0.480 A 
ATOM      2  C   LIG    1       -1.950   2.624   0.793  0.00  0.00    -0.050 A 
ATOM      3  C   LIG    1       -2.821   3.708   0.979  0.00  0.00    +0.290 A 
ATOM      4  N   LIG    1       -2.365   4.950   0.905  0.00  0.00    -0.470 NA
ATOM      5  C   LIG    1       -1.076   5.196   0.654  0.00  0.00    +0.470 A 
ATOM      6  N   LIG    1       -0.386   6.326   0.532  0.00  0.00    -0.530 NA
ATOM      7  C   LIG    1        0.887   6.048   0.278  0.00  0.00    +0.480 A 
ATOM      8  N   LIG    1        1.053   4.749   0.229  0.00  0.00    -0.350 NA
ATOM      9  N   LIG    1       -0.197   4.165   0.474  0.00  0.00    -0.340 N 
ENDROOT
BRANCH   1  15
ATOM     10  C   LIG    1        1.622  -0.096  -2.607  0.00  0.00    +0.070 C 
ATOM     11  C   LIG    1        0.760   0.180  -1.373  0.00  0.00    +0.170 C 
ATOM     12  O   LIG    1        1.162  -0.682  -0.306  0.00  0.00    -0.360 OA
ATOM     13  C   LIG    1        0.381  -0.546   0.883  0.00  0.00    +0.230 C 
ATOM     14  C   LIG    1        0.542   0.875   1.433  0.00  0.00    +0.280 C 
ATOM     15  N   LIG    1        0.254   1.828   0.349  0.00  0.00    -0.640 N 
ATOM     16  C   LIG    1        0.941   1.639  -0.939  0.00  0.00    +0.220 C 
BRANCH  16  17
ATOM     17  C   LIG    1        0.340   2.555  -1.973  0.00  0.00    +0.520 C 
ATOM     18  O   LIG    1       -0.853   2.773  -1.971  0.00  0.00    -0.530 OA
ATOM     19  N   LIG    1        1.128   3.132  -2.902  0.00  0.00    -0.840 N 
ATOM     20  H   LIG    1        0.734   3.663  -3.611  0.00  0.00    +0.410 HD
ATOM     21  H   LIG    1        2.091   3.016  -2.860  0.00  0.00    +0.410 HD
ENDBRANCH  16  17
ENDBRANCH   1  15
BRANCH   3  22
ATOM     22  C   LIG    1       -4.256   3.464   1.258  0.00  0.00    -0.070 A 
ATOM     23  C   LIG    1       -4.742   2.159   1.331  0.00  0.00    +0.050 A 
ATOM     24  C   LIG    1       -6.078   1.937   1.597  0.00  0.00    +0.000 A 
ATOM     25  C   LIG    1       -6.937   3.006   1.780  0.00  0.00    +0.040 A 
ATOM     26  C   LIG    1       -6.461   4.303   1.703  0.00  0.00    +0.000 A 
ATOM     27  C   LIG    1       -5.126   4.537   1.443  0.00  0.00    +0.080 A 
ENDBRANCH   3  22
TORSDOF 3
