REMARK  Name = ZINCrH000004mOOF.0
REMARK                            x       y       z     vdW  Elec       q    Type
REMARK                         _______ _______ _______ _____ _____    ______ ____
ROOT
ATOM      1  C   LIG    1        3.877   9.405   0.009  0.00  0.00    +0.090 C 
ENDROOT
BRANCH   1   4
ATOM      2  N   LIG    1        6.260  10.070  -0.002  0.00  0.00    -0.670 N 
ATOM      3  H   LIG    1        5.970  10.994  -0.070  0.00  0.00    +0.410 HD
ATOM      4  C   LIG    1        5.348   9.077   0.003  0.00  0.00    +0.520 C 
ATOM      5  O   LIG    1        5.712   7.920   0.002  0.00  0.00    -0.520 OA
BRANCH   2   9
ATOM      6  C   LIG    1       10.323   9.173   0.269  0.00  0.00    +0.130 A 
ATOM      7  C   LIG    1        9.471   8.326  -0.423  0.00  0.00    -0.040 A 
ATOM      8  C   LIG    1        8.124   8.622  -0.513  0.00  0.00    +0.080 A 
ATOM      9  C   LIG    1        7.625   9.769   0.089  0.00  0.00    +0.120 A 
ATOM     10  C   LIG    1        8.479  10.620   0.777  0.00  0.00    +0.040 A 
ATOM     11  C   LIG    1        9.825  10.320   0.871  0.00  0.00    -0.050 A 
ATOM     12 CL   LIG    1       10.893  11.380   1.736  0.00  0.00    -0.050 Cl
BRANCH   6  14
ATOM     13  C   LIG    1       12.092   7.684  -0.287  0.00  0.00    +0.240 C 
ATOM     14  O   LIG    1       11.648   8.880   0.357  0.00  0.00    -0.310 OA
ENDBRANCH   6  14
ENDBRANCH   2   9
ENDBRANCH   1   4
BRANCH   1  15
ATOM     15  C   LIG    1        3.066   8.107   0.015  0.00  0.00    +0.110 C 
BRANCH  15  16
ATOM     16  C   LIG    1        1.595   8.434   0.021  0.00  0.00    +0.550 C 
ATOM     17  N   LIG    1        0.684   7.441   0.026  0.00  0.00    -0.470 N 
ATOM     18  C   LIG    1       -0.777   7.620   0.033  0.00  0.00    +0.260 C 
ATOM     19  C   LIG    1       -1.317   6.176   0.030  0.00  0.00    +0.090 C 
ATOM     20  C   LIG    1       -0.071   5.321   0.031  0.00  0.00    +0.140 C 
ATOM     21  N   LIG    1        0.971   6.078   0.026  0.00  0.00    -0.240 NA
ATOM     22  O   LIG    1        1.231   9.591   0.022  0.00  0.00    -0.520 OA
BRANCH  20  23
ATOM     23  C   LIG    1       -0.051   3.846   0.032  0.00  0.00    -0.040 A 
ATOM     24  C   LIG    1        1.166   3.160   0.026  0.00  0.00    +0.050 A 
ATOM     25  C   LIG    1        1.177   1.781   0.027  0.00  0.00    +0.010 A 
ATOM     26  C   LIG    1       -0.013   1.077   0.034  0.00  0.00    +0.030 A 
ATOM     27  C   LIG    1       -1.223   1.749   0.034  0.00  0.00    +0.010 A 
ATOM     28  C   LIG    1       -1.249   3.128   0.038  0.00  0.00    +0.040 A 
ENDBRANCH  20  23
ENDBRANCH  15  16
ENDBRANCH   1  15
TORSDOF 6
