REMARK  Name = ZINCrH00000No4BK.0
REMARK                            x       y       z     vdW  Elec       q    Type
REMARK                         _______ _______ _______ _____ _____    ______ ____
ROOT
ATOM      1  O   LIG    1       -1.311   3.321   0.134  0.00  0.00    -0.510 OA
ATOM      2  C   LIG    1       -1.299   2.110   0.020  0.00  0.00    +0.570 C 
ATOM      3  N   LIG    1       -2.459   1.431  -0.080  0.00  0.00    -0.610 N 
ATOM      4  C   LIG    1       -2.475  -0.039  -0.096  0.00  0.00    +0.280 C 
ATOM      5  C   LIG    1       -3.482  -0.522   0.960  0.00  0.00    +0.170 C 
ATOM      6  N   LIG    1       -4.783   0.115   0.716  0.00  0.00    -0.530 NA
ATOM      7  C   LIG    1       -4.699   1.573   0.872  0.00  0.00    +0.170 C 
ATOM      8  C   LIG    1       -3.743   2.142  -0.182  0.00  0.00    +0.300 C 
ENDROOT
BRANCH   2   9
ATOM      9  C   LIG    1       -0.016   1.385  -0.009  0.00  0.00    -0.100 A 
ATOM     10  C   LIG    1        0.273   0.514  -1.050  0.00  0.00    +0.080 A 
ATOM     11  C   LIG    1        1.482  -0.170  -1.089  0.00  0.00    +0.020 A 
ATOM     12  C   LIG    1        2.415  -0.005  -0.109  0.00  0.00    +0.070 A 
ATOM     13  C   LIG    1        2.163   0.868   0.964  0.00  0.00    -0.110 A 
ATOM     14  C   LIG    1        3.109   1.057   1.989  0.00  0.00    +0.090 A 
ATOM     15  C   LIG    1        2.798   1.920   3.002  0.00  0.00    -0.030 A 
ATOM     16  C   LIG    1        1.574   2.582   2.998  0.00  0.00    +0.300 A 
ATOM     17  N   LIG    1        0.695   2.402   2.039  0.00  0.00    -0.460 NA
ATOM     18  C   LIG    1        0.937   1.574   1.023  0.00  0.00    +0.160 A 
ENDBRANCH   2   9
BRANCH   6  19
ATOM     19  C   LIG    1       -5.817  -0.450   1.593  0.00  0.00    +0.210 C 
BRANCH  19  20
ATOM     20  C   LIG    1       -5.711  -1.953   1.592  0.00  0.00    -0.020 C 
ATOM     21  C   LIG    1       -5.579  -2.608   2.737  0.00  0.00    +0.000 C 
BRANCH  21  22
ATOM     22  C   LIG    1       -5.474  -4.083   2.737  0.00  0.00    -0.060 A 
ATOM     23  C   LIG    1       -5.519  -4.788   1.534  0.00  0.00    +0.010 A 
ATOM     24  C   LIG    1       -5.414  -6.164   1.540  0.00  0.00    +0.000 A 
ATOM     25  C   LIG    1       -5.277  -6.845   2.736  0.00  0.00    +0.000 A 
ATOM     26  C   LIG    1       -5.237  -6.152   3.933  0.00  0.00    +0.000 A 
ATOM     27  C   LIG    1       -5.335  -4.776   3.940  0.00  0.00    +0.010 A 
ENDBRANCH  21  22
ENDBRANCH  19  20
ENDBRANCH   6  19
TORSDOF 4
