REMARK  Name = ZINCnE000001TzAE.0
REMARK                            x       y       z     vdW  Elec       q    Type
REMARK                         _______ _______ _______ _____ _____    ______ ____
ROOT
ATOM      1  N   LIG    1       -2.706   1.360   0.031  0.00  0.00    -0.710 N 
ATOM      2  H   LIG    1       -2.868   0.409  -0.080  0.00  0.00    +0.400 HD
ATOM      3  C   LIG    1       -1.443   1.825   0.098  0.00  0.00    +0.590 C 
ATOM      4  O   LIG    1       -1.239   3.022   0.143  0.00  0.00    -0.510 OA
ENDROOT
BRANCH   3   5
ATOM      5  C   LIG    1       -0.303   0.876   0.116  0.00  0.00    -0.010 A 
ATOM      6  N   LIG    1       -0.369  -0.433   0.072  0.00  0.00    -0.330 NA
ATOM      7  O   LIG    1        0.728  -0.940   0.097  0.00  0.00    +0.140 OA
ATOM      8  C   LIG    1        1.702  -0.014   0.163  0.00  0.00    +0.040 A 
ATOM      9  C   LIG    1        1.074   1.205   0.178  0.00  0.00    +0.020 A 
BRANCH   8  10
ATOM     10  C   LIG    1        3.151  -0.260   0.209  0.00  0.00    -0.140 A 
ATOM     11  C   LIG    1        3.742  -1.487   0.198  0.00  0.00    +0.050 A 
ATOM     12  C   LIG    1        5.118  -1.457   0.244  0.00  0.00    +0.010 A 
ATOM     13  C   LIG    1        5.659  -0.235   0.303  0.00  0.00    -0.040 A 
ATOM     14  S   LIG    1        4.392   0.983   0.295  0.00  0.00    +0.180 S 
ENDBRANCH   8  10
ENDBRANCH   3   5
BRANCH   1  15
ATOM     15  C   LIG    1       -3.835   2.288   0.124  0.00  0.00    +0.350 C 
BRANCH  15  16
ATOM     16  C   LIG    1       -5.063   1.543   0.582  0.00  0.00    -0.160 A 
ATOM     17  C   LIG    1       -5.964   2.006   1.449  0.00  0.00    +0.060 A 
ATOM     18  C   LIG    1       -7.011   1.142   1.719  0.00  0.00    +0.010 A 
ATOM     19  C   LIG    1       -6.960  -0.023   1.071  0.00  0.00    -0.060 A 
ATOM     20  S   LIG    1       -5.529  -0.067   0.049  0.00  0.00    +0.050 S 
ENDBRANCH  15  16
BRANCH  15  21
ATOM     21  C   LIG    1       -4.099   2.910  -1.249  0.00  0.00    -0.060 C 
BRANCH  21  23
ATOM     22  O   LIG    1       -5.563   4.304  -0.021  0.00  0.00    -0.690 OA
ATOM     23  C   LIG    1       -5.154   3.979  -1.123  0.00  0.00    +0.500 C 
ATOM     24  O   LIG    1       -5.598   4.519  -2.121  0.00  0.00    -0.700 OA
ENDBRANCH  21  23
ENDBRANCH  15  21
ENDBRANCH   1  15
TORSDOF 6
