REMARK  Name = ZINCrD00000ibpuj.0
REMARK                            x       y       z     vdW  Elec       q    Type
REMARK                         _______ _______ _______ _____ _____    ______ ____
ROOT
ATOM      1  N   LIG    1       -1.295   2.781   1.284  0.00  0.00    -0.550 N 
ATOM      2  C   LIG    1       -0.714   1.569   1.249  0.00  0.00    +0.520 C 
ATOM      3  C   LIG    1       -0.013   1.086   0.008  0.00  0.00    +0.070 C 
ATOM      4  C   LIG    1       -0.749   1.591  -1.234  0.00  0.00    +0.090 C 
ATOM      5  C   LIG    1       -1.013   3.067  -1.097  0.00  0.00    -0.070 A 
ATOM      6  C   LIG    1       -0.994   3.881  -2.212  0.00  0.00    -0.030 A 
ATOM      7  C   LIG    1       -1.239   5.242  -2.083  0.00  0.00    +0.200 A 
ATOM      8  C   LIG    1       -1.502   5.784  -0.832  0.00  0.00    -0.040 A 
ATOM      9  C   LIG    1       -1.521   4.970   0.284  0.00  0.00    +0.030 A 
ATOM     10  O   LIG    1       -0.753   0.858   2.231  0.00  0.00    -0.530 OA
ATOM     11  C   LIG    1       -1.276   3.610   0.154  0.00  0.00    +0.100 A 
ENDROOT
BRANCH   7  12
ATOM     12  N   LIG    1       -1.220   6.067  -3.212  0.00  0.00    -0.730 N 
ATOM     13  H   LIG    1       -1.036   5.688  -4.086  0.00  0.00    +0.400 HD
BRANCH  12  14
ATOM     14  C   LIG    1       -1.478   7.502  -3.076  0.00  0.00    +0.270 C 
ATOM     15  C   LIG    1       -2.987   7.752  -3.099  0.00  0.00    +0.220 C 
ATOM     16  O   LIG    1       -3.463   7.524  -4.430  0.00  0.00    -0.360 OA
ATOM     17  C   LIG    1       -3.046   8.527  -5.356  0.00  0.00    +0.310 C 
ATOM     18  C   LIG    1       -1.552   8.717  -5.282  0.00  0.00    +0.110 A 
ATOM     19  N   LIG    1       -0.946   9.357  -6.270  0.00  0.00    -0.480 NA
ATOM     20  C   LIG    1        0.354   9.565  -6.276  0.00  0.00    +0.280 A 
ATOM     21  C   LIG    1        1.146   9.117  -5.236  0.00  0.00    -0.040 A 
ATOM     22  C   LIG    1        0.551   8.440  -4.183  0.00  0.00    +0.090 A 
ATOM     23  C   LIG    1       -0.823   8.239  -4.214  0.00  0.00    -0.150 A 
ENDBRANCH  12  14
ENDBRANCH   7  12
BRANCH   1  24
ATOM     24  C   LIG    1       -1.954   3.238   2.510  0.00  0.00    +0.300 C 
BRANCH  24  25
ATOM     25  C   LIG    1       -3.424   2.812   2.488  0.00  0.00    +0.030 C 
BRANCH  25  26
ATOM     26  C   LIG    1       -4.112   3.289   3.769  0.00  0.00    +0.200 C 
BRANCH  26  28
ATOM     27  N   LIG    1       -6.617   2.564   3.731  0.00  0.00    -0.430 NA
ATOM     28  C   LIG    1       -5.526   2.880   3.747  0.00  0.00    +0.200 C 
ENDBRANCH  26  28
ENDBRANCH  25  26
ENDBRANCH  24  25
ENDBRANCH   1  24
TORSDOF 6
