REMARK  Name = ZINCnE00000dSTOe.0
REMARK                            x       y       z     vdW  Elec       q    Type
REMARK                         _______ _______ _______ _____ _____    ______ ____
ROOT
ATOM      1  N   LIG    1       -0.537  -0.086   1.111  0.00  0.00    -0.720 N 
ATOM      2  H   LIG    1       -1.048  -0.901   1.235  0.00  0.00    +0.400 HD
ATOM      3  C   LIG    1       -1.101   0.976   0.500  0.00  0.00    +0.550 C 
ATOM      4  O   LIG    1       -0.498   2.026   0.430  0.00  0.00    -0.500 OA
ENDROOT
BRANCH   3   5
ATOM      5  C   LIG    1       -2.480   0.858  -0.095  0.00  0.00    -0.090 C 
ATOM      6  C   LIG    1       -3.671   0.918   0.864  0.00  0.00    +0.130 C 
ATOM      7  C   LIG    1       -3.373   2.100  -0.062  0.00  0.00    +0.030 C 
ATOM      8 CL   LIG    1       -4.483   2.365  -1.458  0.00  0.00    -0.080 Cl
ATOM      9 CL   LIG    1       -2.693   3.593   0.686  0.00  0.00    -0.060 Cl
BRANCH   5  10
ATOM     10  C   LIG    1       -2.596  -0.051  -1.292  0.00  0.00    -0.060 A 
ATOM     11  C   LIG    1       -3.364  -1.198  -1.218  0.00  0.00    +0.030 A 
ATOM     12  C   LIG    1       -3.473  -2.029  -2.317  0.00  0.00    +0.010 A 
ATOM     13  C   LIG    1       -2.808  -1.717  -3.488  0.00  0.00    +0.010 A 
ATOM     14  C   LIG    1       -2.036  -0.573  -3.561  0.00  0.00    +0.010 A 
ATOM     15  C   LIG    1       -1.930   0.260  -2.463  0.00  0.00    +0.030 A 
ENDBRANCH   5  10
ENDBRANCH   3   5
BRANCH   1  16
ATOM     16  C   LIG    1        0.848  -0.010   1.581  0.00  0.00    +0.290 C 
BRANCH  16  17
ATOM     17  C   LIG    1        1.242  -1.340   2.226  0.00  0.00    +0.100 C 
BRANCH  17  18
ATOM     18  S   LIG    1        2.957  -1.246   2.808  0.00  0.00    -0.120 S 
BRANCH  18  19
ATOM     19  S   LIG    1        2.836   0.050   4.392  0.00  0.00    -0.170 S 
BRANCH  19  20
ATOM     20  C   LIG    1        2.366  -1.033   5.770  0.00  0.00    +0.150 C 
BRANCH  20  21
ATOM     21  C   LIG    1        3.543  -1.941   6.129  0.00  0.00    -0.040 C 
BRANCH  21  23
ATOM     22  O   LIG    1        2.036  -2.762   7.757  0.00  0.00    -0.700 OA
ATOM     23  C   LIG    1        3.153  -2.841   7.274  0.00  0.00    +0.500 C 
ATOM     24  O   LIG    1        3.954  -3.647   7.716  0.00  0.00    -0.700 OA
ENDBRANCH  21  23
ENDBRANCH  20  21
ENDBRANCH  19  20
ENDBRANCH  18  19
ENDBRANCH  17  18
ENDBRANCH  16  17
ENDBRANCH   1  16
TORSDOF 9
