REMARK  Name = ZINCrD0000071zSZ.0
REMARK                            x       y       z     vdW  Elec       q    Type
REMARK                         _______ _______ _______ _____ _____    ______ ____
ROOT
ATOM      1  C   LIG    1       -2.491   1.002   0.040  0.00  0.00    +0.400 C 
ATOM      2  O   LIG    1       -2.480  -0.201   0.195  0.00  0.00    -0.430 OA
ENDROOT
BRANCH   1   6
ATOM      3  C   LIG    1        1.148   3.168   0.013  0.00  0.00    +0.190 A 
ATOM      4  C   LIG    1        1.164   1.788   0.192  0.00  0.00    +0.000 A 
ATOM      5  C   LIG    1       -0.012   1.083   0.205  0.00  0.00    +0.110 A 
ATOM      6  C   LIG    1       -1.230   1.753   0.033  0.00  0.00    -0.190 A 
ATOM      7  C   LIG    1       -1.241   3.143  -0.139  0.00  0.00    +0.090 A 
ATOM      8  C   LIG    1       -0.060   3.840  -0.152  0.00  0.00    -0.020 A 
BRANCH   3  10
ATOM      9  C   LIG    1        3.459   3.316  -0.508  0.00  0.00    +0.510 C 
ATOM     10  N   LIG    1        2.346   3.880  -0.001  0.00  0.00    -0.680 N 
ATOM     11  H   LIG    1        2.378   4.782   0.355  0.00  0.00    +0.420 HD
ATOM     12  O   LIG    1        3.400   2.227  -1.039  0.00  0.00    -0.510 OA
BRANCH   9  13
ATOM     13  C   LIG    1        4.779   4.038  -0.416  0.00  0.00    +0.060 C 
BRANCH  13  15
ATOM     14  C   LIG    1        7.213   3.918  -0.969  0.00  0.00    +0.030 C 
ATOM     15  C   LIG    1        5.873   3.185  -1.063  0.00  0.00    +0.030 C 
ENDBRANCH  13  15
ENDBRANCH   9  13
ENDBRANCH   3  10
ENDBRANCH   1   6
BRANCH   1  16
ATOM     16  C   LIG    1       -3.800   1.725  -0.145  0.00  0.00    +0.170 C 
ATOM     17  C   LIG    1       -4.021   2.008  -1.632  0.00  0.00    +0.070 C 
BRANCH  16  18
ATOM     18  O   LIG    1       -4.885   0.900   0.358  0.00  0.00    -0.340 OA
BRANCH  18  19
ATOM     19  C   LIG    1       -5.964   1.541   0.850  0.00  0.00    +0.540 C 
ATOM     20  O   LIG    1       -5.998   2.757   0.858  0.00  0.00    -0.490 OA
BRANCH  19  21
ATOM     21  C   LIG    1       -7.098   0.772   1.374  0.00  0.00    -0.050 A 
ATOM     22  C   LIG    1       -8.243   1.296   1.897  0.00  0.00    +0.130 A 
ATOM     23  C   LIG    1       -9.060   0.204   2.278  0.00  0.00    -0.270 A 
ATOM     24  C   LIG    1       -8.362  -0.952   1.964  0.00  0.00    +0.300 A 
ATOM     25  N   LIG    1       -7.189  -0.603   1.417  0.00  0.00    -0.510 N 
ATOM     26  H   LIG    1       -6.510  -1.220   1.103  0.00  0.00    +0.430 HD
BRANCH  23  27
ATOM     27  C   LIG    1      -10.390   0.282   2.888  0.00  0.00    +0.420 C 
ATOM     28  O   LIG    1      -10.893   1.363   3.113  0.00  0.00    -0.460 OA
ATOM     29  C   LIG    1      -11.134  -0.982   3.237  0.00  0.00    +0.060 C 
ENDBRANCH  23  27
ENDBRANCH  19  21
ENDBRANCH  18  19
ENDBRANCH  16  18
ENDBRANCH   1  16
TORSDOF 9
