REMARK  Name = ZINCqH00000029Sl.0
REMARK                            x       y       z     vdW  Elec       q    Type
REMARK                         _______ _______ _______ _____ _____    ______ ____
ROOT
ATOM      1  C   LIG    1       -1.482   3.014   0.507  0.00  0.00    +0.230 A 
ATOM      2  N   LIG    1       -1.011   3.772  -0.436  0.00  0.00    -0.280 NA
ATOM      3  N   LIG    1       -1.466   4.945  -0.531  0.00  0.00    -0.240 NA
ATOM      4  C   LIG    1       -2.375   5.312   0.325  0.00  0.00    -0.070 A 
ATOM      5  S   LIG    1       -2.688   3.946   1.397  0.00  0.00    +0.240 S 
ENDROOT
BRANCH   1   7
ATOM      6  C   LIG    1       -1.571   1.069   1.864  0.00  0.00    +0.520 C 
ATOM      7  N   LIG    1       -1.105   1.699   0.767  0.00  0.00    -0.480 N 
ATOM      8  O   LIG    1       -2.318   1.647   2.624  0.00  0.00    -0.500 OA
BRANCH   7   9
ATOM      9  C   LIG    1       -0.203   1.000  -0.151  0.00  0.00    +0.190 C 
ATOM     10  C   LIG    1       -0.003   1.605  -1.542  0.00  0.00    +0.070 C 
ATOM     11  C   LIG    1        1.118   1.687  -0.503  0.00  0.00    +0.040 C 
ENDBRANCH   7   9
BRANCH   6  13
ATOM     12  C   LIG    1       -1.827  -0.829   3.440  0.00  0.00    +0.070 C 
ATOM     13  C   LIG    1       -1.164  -0.355   2.145  0.00  0.00    +0.090 C 
ENDBRANCH   6  13
ENDBRANCH   1   7
BRANCH   4  14
ATOM     14  S   LIG    1       -3.158   6.889   0.396  0.00  0.00    +0.070 S 
BRANCH  14  15
ATOM     15  C   LIG    1       -2.384   7.791  -0.975  0.00  0.00    +0.250 C 
BRANCH  15  16
ATOM     16  C   LIG    1       -2.958   9.182  -1.048  0.00  0.00    +0.190 A 
ATOM     17  N   LIG    1       -2.504  10.244  -0.430  0.00  0.00    -0.450 NA
ATOM     18  C   LIG    1       -3.326  11.255  -0.793  0.00  0.00    +0.220 A 
ATOM     19  N   LIG    1       -4.226  10.750  -1.596  0.00  0.00    -0.370 NA
ATOM     20  O   LIG    1       -4.029   9.564  -1.751  0.00  0.00    +0.100 OA
BRANCH  18  21
ATOM     21  C   LIG    1       -3.227  12.670  -0.358  0.00  0.00    -0.030 A 
ATOM     22  C   LIG    1       -2.212  13.066   0.510  0.00  0.00    +0.070 A 
ATOM     23  C   LIG    1       -2.121  14.384   0.907  0.00  0.00    +0.010 A 
ATOM     24  C   LIG    1       -3.043  15.310   0.454  0.00  0.00    +0.030 A 
ATOM     25  C   LIG    1       -4.057  14.922  -0.403  0.00  0.00    +0.010 A 
ATOM     26  C   LIG    1       -4.153  13.607  -0.811  0.00  0.00    +0.050 A 
ENDBRANCH  18  21
ENDBRANCH  15  16
ENDBRANCH  14  15
ENDBRANCH   4  14
TORSDOF 7
