REMARK  Name = ZINCnE000001Tyhr.0
REMARK                            x       y       z     vdW  Elec       q    Type
REMARK                         _______ _______ _______ _____ _____    ______ ____
ROOT
ATOM      1  C   LIG    1       -1.217   1.104   2.654  0.00  0.00    -0.020 C 
ATOM      2  C   LIG    1       -1.253  -0.425   2.714  0.00  0.00    +0.020 C 
ATOM      3  C   LIG    1       -0.110  -0.924   3.603  0.00  0.00    +0.250 C 
ATOM      4  N   LIG    1       -0.209  -0.267   4.914  0.00  0.00    -0.610 N 
ATOM      5  C   LIG    1       -0.274   1.200   4.965  0.00  0.00    +0.270 C 
ATOM      6  C   LIG    1       -0.240  -0.995   6.047  0.00  0.00    +0.520 C 
ATOM      7  O   LIG    1       -0.226  -0.440   7.125  0.00  0.00    -0.540 OA
ATOM      8  C   LIG    1       -1.415   1.676   4.060  0.00  0.00    +0.020 C 
ENDROOT
BRANCH   6   9
ATOM      9  C   LIG    1       -0.291  -2.500   5.974  0.00  0.00    +0.000 C 
ATOM     10  C   LIG    1        1.128  -3.052   5.821  0.00  0.00    +0.030 C 
ATOM     11  C   LIG    1        1.075  -4.579   5.747  0.00  0.00    +0.040 C 
ATOM     12  C   LIG    1        0.450  -5.130   7.030  0.00  0.00    +0.040 C 
ATOM     13  C   LIG    1       -0.969  -4.578   7.183  0.00  0.00    -0.010 C 
ATOM     14  C   LIG    1       -0.917  -3.051   7.257  0.00  0.00    +0.070 C 
BRANCH  13  15
ATOM     15  C   LIG    1       -1.595  -5.130   8.466  0.00  0.00    +0.450 C 
ATOM     16  F   LIG    1       -0.822  -4.742   9.566  0.00  0.00    -0.180 F 
ATOM     17  F   LIG    1       -1.642  -6.526   8.399  0.00  0.00    -0.180 F 
ATOM     18  F   LIG    1       -2.892  -4.625   8.607  0.00  0.00    -0.180 F 
ENDBRANCH  13  15
ENDBRANCH   6   9
BRANCH   1  19
ATOM     19  C   LIG    1       -2.336   1.604   1.738  0.00  0.00    +0.030 C 
BRANCH  19  20
ATOM     20  C   LIG    1       -2.071   1.136   0.306  0.00  0.00    -0.070 C 
BRANCH  20  22
ATOM     21  O   LIG    1       -4.086   2.293  -0.136  0.00  0.00    -0.700 OA
ATOM     22  C   LIG    1       -3.173   1.629  -0.596  0.00  0.00    +0.490 C 
ATOM     23  O   LIG    1       -3.152   1.363  -1.785  0.00  0.00    -0.710 OA
ENDBRANCH  20  22
ENDBRANCH  19  20
ENDBRANCH   1  19
TORSDOF 5
