REMARK  Name = ZINCrg000000rhY1.0
REMARK                            x       y       z     vdW  Elec       q    Type
REMARK                         _______ _______ _______ _____ _____    ______ ____
ROOT
ATOM      1  C   LIG    1        3.877   2.208  -2.606  0.00  0.00    +0.150 A 
ATOM      2  C   LIG    1        3.478   1.273  -3.552  0.00  0.00    +0.030 A 
ATOM      3  C   LIG    1        2.329   0.534  -3.348  0.00  0.00    +0.030 A 
ATOM      4  C   LIG    1        1.577   0.724  -2.204  0.00  0.00    +0.020 A 
ATOM      5  C   LIG    1        1.972   1.653  -1.259  0.00  0.00    -0.080 A 
ATOM      6  C   LIG    1        3.117   2.399  -1.459  0.00  0.00    +0.020 A 
ENDROOT
BRANCH   5   7
ATOM      7  C   LIG    1        1.149   1.857  -0.013  0.00  0.00    +0.170 C 
ATOM      8  N   LIG    1       -0.022   0.964  -0.015  0.00  0.00    -0.720 N 
ATOM      9  H   LIG    1       -0.012  -0.006  -0.026  0.00  0.00    +0.440 HD
ATOM     10  C   LIG    1       -1.110   1.756  -0.003  0.00  0.00    +0.710 C 
ATOM     11  N   LIG    1       -0.794   3.057   0.015  0.00  0.00    -0.680 N 
ATOM     12  H   LIG    1       -1.446   3.775   0.027  0.00  0.00    +0.440 HD
ATOM     13  O   LIG    1       -2.251   1.338  -0.004  0.00  0.00    -0.540 OA
ATOM     14  C   LIG    1        2.001   1.625   1.237  0.00  0.00    +0.090 C 
ATOM     15  C   LIG    1        0.540   3.244   0.007  0.00  0.00    +0.540 C 
ATOM     16  O   LIG    1        1.131   4.303   0.014  0.00  0.00    -0.450 OA
ENDBRANCH   5   7
BRANCH   1  18
ATOM     17  C   LIG    1        6.103   2.402  -3.425  0.00  0.00    +0.520 C 
ATOM     18  N   LIG    1        5.041   2.958  -2.809  0.00  0.00    -0.670 N 
ATOM     19  H   LIG    1        5.083   3.879  -2.506  0.00  0.00    +0.420 HD
ATOM     20  O   LIG    1        6.022   1.280  -3.878  0.00  0.00    -0.510 OA
BRANCH  17  22
ATOM     21  C   LIG    1        7.914   3.524  -2.156  0.00  0.00    +0.060 C 
ATOM     22  C   LIG    1        7.391   3.174  -3.551  0.00  0.00    +0.250 C 
BRANCH  22  23
ATOM     23  N   LIG    1        8.383   2.357  -4.254  0.00  0.00    -0.710 N 
ATOM     24  H   LIG    1        8.314   1.390  -4.238  0.00  0.00    +0.410 HD
ATOM     25  C   LIG    1        9.392   2.950  -4.922  0.00  0.00    +0.600 C 
ATOM     26  O   LIG    1        9.479   4.163  -4.942  0.00  0.00    -0.530 OA
BRANCH  25  27
ATOM     27  C   LIG    1       10.390   2.129  -5.630  0.00  0.00    -0.240 A 
ATOM     28  C   LIG    1       10.438   0.767  -5.699  0.00  0.00    +0.240 A 
ATOM     29  O   LIG    1       11.495   0.419  -6.439  0.00  0.00    -0.170 OA
ATOM     30  C   LIG    1       12.164   1.504  -6.859  0.00  0.00    +0.170 A 
ATOM     31  C   LIG    1       11.547   2.605  -6.403  0.00  0.00    +0.000 A 
ENDBRANCH  25  27
ENDBRANCH  22  23
ENDBRANCH  17  22
ENDBRANCH   1  18
TORSDOF 5
