REMARK  Name = ZINCpe000000X8yN.0
REMARK                            x       y       z     vdW  Elec       q    Type
REMARK                         _______ _______ _______ _____ _____    ______ ____
ROOT
ATOM      1  C   LIG    1       -1.657   2.413   1.466  0.00  0.00    +0.210 C 
ENDROOT
BRANCH   1   2
ATOM      2  O   LIG    1       -0.666   3.222   2.104  0.00  0.00    -0.540 OA
ATOM      3  H   LIG    1       -0.526   4.080   1.680  0.00  0.00    +0.380 HD
ENDBRANCH   1   2
BRANCH   1   4
ATOM      4  C   LIG    1       -1.239   2.140   0.020  0.00  0.00    +0.300 C 
BRANCH   4  10
ATOM      5  C   LIG    1        3.047   0.647   1.235  0.00  0.00    +0.100 C 
ATOM      6  C   LIG    1        2.165   0.655  -0.015  0.00  0.00    +0.150 C 
ATOM      7  N   LIG    1        1.252  -0.501  -0.013  0.00  0.00    -0.720 N 
ATOM      8  H   LIG    1        1.503  -1.438  -0.021  0.00  0.00    +0.440 HD
ATOM      9  C   LIG    1        0.002  -0.004   0.002  0.00  0.00    +0.710 C 
ATOM     10  N   LIG    1       -0.016   1.334   0.009  0.00  0.00    -0.570 N 
ATOM     11  O   LIG    1       -0.999  -0.693   0.008  0.00  0.00    -0.540 OA
ATOM     12  C   LIG    1        1.230   1.848   0.000  0.00  0.00    +0.540 C 
ATOM     13  O   LIG    1        1.538   3.020   0.003  0.00  0.00    -0.460 OA
BRANCH   6  14
ATOM     14  C   LIG    1        3.026   0.658  -1.280  0.00  0.00    -0.030 C 
ATOM     15  C   LIG    1        2.698  -0.374  -2.361  0.00  0.00    +0.030 C 
ATOM     16  C   LIG    1        3.956  -0.536  -1.504  0.00  0.00    +0.040 C 
ENDBRANCH   6  14
ENDBRANCH   4  10
ENDBRANCH   1   4
BRANCH   1  17
ATOM     17  C   LIG    1       -3.000   3.148   1.478  0.00  0.00    +0.180 C 
BRANCH  17  18
ATOM     18  O   LIG    1       -3.447   3.300   2.827  0.00  0.00    -0.300 OA
BRANCH  18  19
ATOM     19  C   LIG    1       -4.633   3.937   3.016  0.00  0.00    +0.140 A 
ATOM     20  C   LIG    1       -5.347   4.410   1.925  0.00  0.00    -0.060 A 
ATOM     21  C   LIG    1       -6.556   5.054   2.114  0.00  0.00    +0.080 A 
ATOM     22  C   LIG    1       -7.052   5.237   3.394  0.00  0.00    -0.010 A 
ATOM     23  O   LIG    1       -8.196   5.833   3.844  0.00  0.00    -0.310 OA
ATOM     24  C   LIG    1       -7.973   6.085   5.244  0.00  0.00    +0.430 C 
ATOM     25  O   LIG    1       -7.028   5.069   5.628  0.00  0.00    -0.300 OA
ATOM     26  C   LIG    1       -6.334   4.768   4.492  0.00  0.00    +0.080 A 
ATOM     27  C   LIG    1       -5.126   4.119   4.299  0.00  0.00    +0.020 A 
ENDBRANCH  18  19
ENDBRANCH  17  18
ENDBRANCH   1  17
TORSDOF 7
