REMARK  Name = ZINCqH0000050LkU.0
REMARK                            x       y       z     vdW  Elec       q    Type
REMARK                         _______ _______ _______ _____ _____    ______ ____
ROOT
ATOM      1  C   LIG    1        6.556   2.661  -0.850  0.00  0.00    +0.530 C 
ATOM      2  N   LIG    1        5.946   3.082   0.276  0.00  0.00    -0.600 N 
ATOM      3  C   LIG    1        6.411   2.607   1.582  0.00  0.00    +0.300 C 
ATOM      4  O   LIG    1        6.171   3.054  -1.931  0.00  0.00    -0.530 OA
ENDROOT
BRANCH   1   5
ATOM      5  C   LIG    1        7.716   1.703  -0.766  0.00  0.00    +0.100 C 
BRANCH   5   6
ATOM      6  C   LIG    1        8.221   1.389  -2.175  0.00  0.00    +0.100 C 
BRANCH   6   7
ATOM      7  S   LIG    1        9.617   0.235  -2.074  0.00  0.00    -0.240 S 
BRANCH   7   8
ATOM      8  C   LIG    1       10.069  -0.012  -3.814  0.00  0.00    +0.190 C 
BRANCH   8  12
ATOM      9  C   LIG    1       12.191  -4.483  -4.187  0.00  0.00    +0.180 C 
ATOM     10  C   LIG    1       12.158  -2.981  -4.068  0.00  0.00    +0.050 A 
ATOM     11  N   LIG    1       11.085  -2.268  -4.001  0.00  0.00    -0.460 NA
ATOM     12  C   LIG    1       11.235  -0.963  -3.899  0.00  0.00    +0.080 A 
ATOM     13  C   LIG    1       12.507  -0.551  -3.884  0.00  0.00    -0.060 A 
ATOM     14  S   LIG    1       13.539  -1.975  -4.002  0.00  0.00    +0.130 S 
ENDBRANCH   8  12
ENDBRANCH   7   8
ENDBRANCH   6   7
ENDBRANCH   5   6
ENDBRANCH   1   5
BRANCH   2  15
ATOM     15  C   LIG    1        4.819   4.013   0.194  0.00  0.00    +0.330 C 
BRANCH  15  16
ATOM     16  C   LIG    1        3.532   3.236   0.088  0.00  0.00    +0.500 C 
ATOM     17  N   LIG    1        2.356   3.889   0.001  0.00  0.00    -0.670 N 
ATOM     18  H   LIG    1        2.341   4.857  -0.060  0.00  0.00    +0.410 HD
ATOM     19  O   LIG    1        3.554   2.023   0.082  0.00  0.00    -0.510 OA
BRANCH  17  20
ATOM     20  C   LIG    1        1.155   3.170  -0.003  0.00  0.00    +0.150 A 
ATOM     21  C   LIG    1        1.092   1.925  -0.614  0.00  0.00    +0.020 A 
ATOM     22  C   LIG    1       -0.095   1.217  -0.616  0.00  0.00    +0.030 A 
ATOM     23  C   LIG    1       -1.220   1.750  -0.014  0.00  0.00    -0.010 A 
ATOM     24  C   LIG    1       -1.158   2.987   0.601  0.00  0.00    -0.070 A 
ATOM     25  C   LIG    1       -2.385   3.562   1.261  0.00  0.00    +0.090 C 
ATOM     26  C   LIG    1        0.025   3.700   0.606  0.00  0.00    -0.110 A 
ATOM     27  C   LIG    1        0.089   5.050   1.271  0.00  0.00    +0.090 C 
ENDBRANCH  17  20
ENDBRANCH  15  16
ENDBRANCH   2  15
TORSDOF 8
