REMARK  Name = ZINCrH000004qZ6x.0
REMARK                            x       y       z     vdW  Elec       q    Type
REMARK                         _______ _______ _______ _____ _____    ______ ____
ROOT
ATOM      1  C   LIG    1       -4.104   2.787   6.621  0.00  0.00    +0.190 A 
ATOM      2  N   LIG    1       -3.741   2.103   7.682  0.00  0.00    -0.280 NA
ATOM      3  N   LIG    1       -2.875   1.078   7.291  0.00  0.00    -0.310 N 
ATOM      4  C   LIG    1       -2.698   1.119   5.959  0.00  0.00    +0.290 A 
ATOM      5  C   LIG    1       -3.445   2.169   5.466  0.00  0.00    -0.270 A 
ENDROOT
BRANCH   1  10
ATOM      6  C   LIG    1       -7.627   7.341   6.522  0.00  0.00    +0.090 C 
ATOM      7  C   LIG    1       -6.705   6.149   6.548  0.00  0.00    -0.070 A 
ATOM      8  C   LIG    1       -6.927   5.126   7.452  0.00  0.00    -0.020 A 
ATOM      9  C   LIG    1       -6.086   4.032   7.480  0.00  0.00    +0.040 A 
ATOM     10  C   LIG    1       -5.011   3.960   6.596  0.00  0.00    -0.040 A 
ATOM     11  C   LIG    1       -4.788   4.997   5.691  0.00  0.00    +0.100 A 
ATOM     12  C   LIG    1       -5.639   6.083   5.668  0.00  0.00    -0.010 A 
ENDBRANCH   1  10
BRANCH   3  13
ATOM     13  C   LIG    1       -2.281   0.149   8.156  0.00  0.00    +0.150 A 
ATOM     14  C   LIG    1       -1.439  -0.833   7.650  0.00  0.00    -0.010 A 
ATOM     15  C   LIG    1       -0.852  -1.744   8.505  0.00  0.00    +0.050 A 
ATOM     16  C   LIG    1       -1.110  -1.687   9.863  0.00  0.00    +0.010 A 
ATOM     17  C   LIG    1       -1.952  -0.714  10.369  0.00  0.00    +0.040 A 
ATOM     18  C   LIG    1       -2.538   0.204   9.519  0.00  0.00    +0.030 A 
ENDBRANCH   3  13
BRANCH   5  19
ATOM     19  C   LIG    1       -3.554   2.590   4.059  0.00  0.00    +0.590 C 
ATOM     20  N   LIG    1       -2.880   1.922   3.102  0.00  0.00    -0.720 N 
ATOM     21  H   LIG    1       -2.322   1.165   3.340  0.00  0.00    +0.400 HD
ATOM     22  O   LIG    1       -4.252   3.540   3.760  0.00  0.00    -0.530 OA
BRANCH  20  23
ATOM     23  C   LIG    1       -2.988   2.341   1.702  0.00  0.00    +0.290 C 
BRANCH  23  24
ATOM     24  C   LIG    1       -2.131   1.423   0.827  0.00  0.00    +0.140 C 
ATOM     25  C   LIG    1       -2.230   1.847  -0.655  0.00  0.00    +0.010 C 
ATOM     26  C   LIG    1       -0.804   1.620  -1.206  0.00  0.00    +0.000 C 
ATOM     27  C   LIG    1       -0.013   1.086   0.008  0.00  0.00    +0.190 C 
ATOM     28  O   LIG    1       -0.731   1.573   1.163  0.00  0.00    -0.370 OA
ENDBRANCH  23  24
ENDBRANCH  20  23
ENDBRANCH   5  19
TORSDOF 5
