REMARK  Name = ZINCqH0000032LfD.1
REMARK                            x       y       z     vdW  Elec       q    Type
REMARK                         _______ _______ _______ _____ _____    ______ ____
ROOT
ATOM      1  S   LIG    1        3.661   3.620   0.705  0.00  0.00    +2.690 S 
ATOM      2  O   LIG    1        2.480   4.315   0.328  0.00  0.00    -0.950 OA
ATOM      3  O   LIG    1        4.968   4.118   0.456  0.00  0.00    -0.940 OA
ENDROOT
BRANCH   1   7
ATOM      4  C   LIG    1        3.378   2.950   5.173  0.00  0.00    -0.010 A 
ATOM      5  C   LIG    1        4.613   2.958   4.552  0.00  0.00    -0.010 A 
ATOM      6  C   LIG    1        4.700   3.163   3.187  0.00  0.00    +0.130 A 
ATOM      7  C   LIG    1        3.551   3.359   2.444  0.00  0.00    -0.680 A 
ATOM      8  C   LIG    1        2.316   3.357   3.066  0.00  0.00    +0.130 A 
ATOM      9  C   LIG    1        2.230   3.148   4.429  0.00  0.00    +0.000 A 
BRANCH   4  10
ATOM     10  C   LIG    1        3.284   2.727   6.660  0.00  0.00    -0.030 C 
ATOM     11  C   LIG    1        4.058   3.826   7.391  0.00  0.00    +0.050 C 
ATOM     12  C   LIG    1        3.883   1.363   7.010  0.00  0.00    +0.050 C 
BRANCH  10  14
ATOM     13  C   LIG    1        1.721   2.539   8.600  0.00  0.00    +0.020 C 
ATOM     14  C   LIG    1        1.816   2.765   7.090  0.00  0.00    +0.020 C 
ENDBRANCH  10  14
ENDBRANCH   4  10
ENDBRANCH   1   7
BRANCH   1  15
ATOM     15  N   LIG    1        3.580   2.134  -0.020  0.00  0.00    -1.040 N 
ATOM     16  H   LIG    1        4.317   1.820  -0.567  0.00  0.00    +0.440 HD
BRANCH  15  17
ATOM     17  C   LIG    1        2.451   1.331   0.157  0.00  0.00    +0.180 A 
ATOM     18  C   LIG    1        1.193   1.909   0.244  0.00  0.00    +0.010 A 
ATOM     19  C   LIG    1        0.077   1.112   0.419  0.00  0.00    +0.060 A 
ATOM     20  C   LIG    1        0.210  -0.262   0.507  0.00  0.00    +0.020 A 
ATOM     21  C   LIG    1        1.459  -0.846   0.420  0.00  0.00    +0.070 A 
ATOM     22  C   LIG    1        2.585  -0.055   0.245  0.00  0.00    +0.120 A 
BRANCH  22  23
ATOM     23  N   LIG    1        3.853  -0.647   0.158  0.00  0.00    -0.100 N 
ATOM     24  N   LIG    1        4.951   0.002  -0.010  0.00  0.00    -0.300 NA
ATOM     25  C   LIG    1        5.947  -0.857  -0.044  0.00  0.00    +0.200 A 
ATOM     26  C   LIG    1        5.369  -2.119   0.110  0.00  0.00    +0.190 A 
ATOM     27  N   LIG    1        4.076  -1.911   0.228  0.00  0.00    -0.280 NA
ENDBRANCH  22  23
ENDBRANCH  15  17
ENDBRANCH   1  15
TORSDOF 6
