REMARK  Name = ZINCpe000027pGSq.0
REMARK                            x       y       z     vdW  Elec       q    Type
REMARK                         _______ _______ _______ _____ _____    ______ ____
ROOT
ATOM      1  C   LIG    1        2.279   1.220   0.146  0.00  0.00    +0.290 C 
ATOM      2  C   LIG    1        2.711   2.037  -1.073  0.00  0.00    +0.050 C 
ENDROOT
BRANCH   1   3
ATOM      3  C   LIG    1        3.139   1.587   1.328  0.00  0.00    -0.120 A 
ATOM      4  C   LIG    1        3.223   2.904   1.738  0.00  0.00    +0.090 A 
ATOM      5  C   LIG    1        4.013   3.242   2.822  0.00  0.00    +0.000 A 
ATOM      6  C   LIG    1        4.718   2.262   3.495  0.00  0.00    +0.140 A 
ATOM      7  C   LIG    1        4.633   0.944   3.085  0.00  0.00    -0.670 A 
ATOM      8  C   LIG    1        3.841   0.607   2.004  0.00  0.00    +0.150 A 
BRANCH   7   9
ATOM      9  S   LIG    1        5.532  -0.305   3.943  0.00  0.00    +2.700 S 
ATOM     10  O   LIG    1        6.617   0.351   4.585  0.00  0.00    -0.960 OA
ATOM     11  O   LIG    1        5.704  -1.377   3.026  0.00  0.00    -0.960 OA
BRANCH   9  12
ATOM     12  N   LIG    1        4.550  -0.874   5.149  0.00  0.00    -1.250 NA
ATOM     13  H   LIG    1        4.865  -1.575   5.741  0.00  0.00    +0.420 HD
ATOM     14  H   LIG    1        3.659  -0.507   5.263  0.00  0.00    +0.420 HD
ENDBRANCH   9  12
ENDBRANCH   7   9
ENDBRANCH   1   3
BRANCH   1  16
ATOM     15  C   LIG    1       -0.016   0.501   0.537  0.00  0.00    +0.530 C 
ATOM     16  N   LIG    1        0.876   1.508   0.456  0.00  0.00    -0.610 N 
ATOM     17  C   LIG    1        0.444   2.890   0.675  0.00  0.00    +0.280 C 
ATOM     18  O   LIG    1        0.322  -0.632   0.268  0.00  0.00    -0.530 OA
BRANCH  15  23
ATOM     19  C   LIG    1       -4.801   1.418  -0.368  0.00  0.00    +0.560 C 
ATOM     20  N   LIG    1       -3.682   0.854   0.129  0.00  0.00    -0.620 N 
ATOM     21  C   LIG    1       -3.636  -0.208   1.144  0.00  0.00    +0.250 C 
ATOM     22  C   LIG    1       -2.148  -0.514   1.420  0.00  0.00    +0.070 C 
ATOM     23  C   LIG    1       -1.435   0.784   0.959  0.00  0.00    -0.020 C 
ATOM     24  C   LIG    1       -2.302   1.201  -0.256  0.00  0.00    +0.290 C 
ATOM     25  O   LIG    1       -4.720   2.293  -1.208  0.00  0.00    -0.540 OA
BRANCH  19  27
ATOM     26  C   LIG    1       -7.225   1.531  -0.383  0.00  0.00    +0.150 C 
ATOM     27  C   LIG    1       -6.121   0.974   0.107  0.00  0.00    -0.090 C 
ENDBRANCH  19  27
ENDBRANCH  15  23
ENDBRANCH   1  16
TORSDOF 6
