REMARK  Name = ZINCqH0000004RNe.0
REMARK                            x       y       z     vdW  Elec       q    Type
REMARK                         _______ _______ _______ _____ _____    ______ ____
ROOT
ATOM      1  N   LIG    1        3.457   4.786  -0.246  0.00  0.00    -0.640 N 
ATOM      2  H   LIG    1        4.412   4.809  -0.075  0.00  0.00    +0.410 HD
ATOM      3  C   LIG    1        2.759   5.936  -0.325  0.00  0.00    +0.560 C 
ATOM      4  O   LIG    1        1.562   5.908  -0.539  0.00  0.00    -0.430 OA
ENDROOT
BRANCH   1  13
ATOM      5  N   LIG    1        3.416   2.350  -0.350  0.00  0.00    -0.500 N 
ATOM      6  C   LIG    1        2.435   1.397  -0.562  0.00  0.00    +0.050 A 
ATOM      7  C   LIG    1        2.436   0.012  -0.616  0.00  0.00    +0.010 A 
ATOM      8  C   LIG    1        1.258  -0.667  -0.852  0.00  0.00    +0.030 A 
ATOM      9  C   LIG    1        0.071   0.028  -1.036  0.00  0.00    +0.010 A 
ATOM     10  C   LIG    1        0.052   1.404  -0.985  0.00  0.00    +0.060 A 
ATOM     11  C   LIG    1        1.236   2.106  -0.747  0.00  0.00    +0.060 A 
ATOM     12  N   LIG    1        1.533   3.427  -0.642  0.00  0.00    -0.470 NA
ATOM     13  C   LIG    1        2.812   3.573  -0.409  0.00  0.00    +0.500 A 
BRANCH   5  15
ATOM     14  C   LIG    1        5.585   2.061  -1.442  0.00  0.00    +0.040 C 
ATOM     15  C   LIG    1        4.838   2.094  -0.107  0.00  0.00    +0.290 C 
ENDBRANCH   5  15
ENDBRANCH   1  13
BRANCH   3  16
ATOM     16  C   LIG    1        3.446   7.230  -0.152  0.00  0.00    -0.240 A 
ATOM     17  C   LIG    1        4.839   7.297  -0.045  0.00  0.00    +0.360 A 
ATOM     18  N   LIG    1        5.414   8.478   0.104  0.00  0.00    -0.520 NA
ATOM     19  C   LIG    1        4.698   9.585   0.164  0.00  0.00    +0.540 A 
ATOM     20  N   LIG    1        3.385   9.578   0.074  0.00  0.00    -0.510 NA
ATOM     21  C   LIG    1        2.718   8.437  -0.083  0.00  0.00    +0.290 A 
BRANCH  21  22
ATOM     22  C   LIG    1        1.240   8.434  -0.184  0.00  0.00    -0.070 A 
ATOM     23  C   LIG    1        0.600   9.258  -1.108  0.00  0.00    +0.050 A 
ATOM     24  C   LIG    1       -0.777   9.248  -1.201  0.00  0.00    +0.000 A 
ATOM     25  C   LIG    1       -1.522   8.428  -0.372  0.00  0.00    +0.030 A 
ATOM     26  C   LIG    1       -0.893   7.612   0.551  0.00  0.00    +0.010 A 
ATOM     27  C   LIG    1        0.483   7.610   0.649  0.00  0.00    +0.080 A 
ENDBRANCH  21  22
ENDBRANCH   3  16
TORSDOF 4
