REMARK  Name = ZINCpe00000VVGZS.0
REMARK                            x       y       z     vdW  Elec       q    Type
REMARK                         _______ _______ _______ _____ _____    ______ ____
ROOT
ATOM      1  C   LIG    1       -3.570   0.937   3.094  0.00  0.00    +0.610 C 
ATOM      2  N   LIG    1       -2.377   0.810   2.480  0.00  0.00    -0.610 N 
ATOM      3  C   LIG    1       -1.996   1.285   1.129  0.00  0.00    +0.290 C 
ATOM      4  C   LIG    1       -0.556   1.817   1.296  0.00  0.00    -0.010 C 
ATOM      5  C   LIG    1        0.002   1.079   2.530  0.00  0.00    +0.130 C 
ATOM      6  C   LIG    1       -1.150   0.165   3.002  0.00  0.00    +0.290 C 
ATOM      7  O   LIG    1       -3.727   0.490   4.214  0.00  0.00    -0.520 OA
ENDROOT
BRANCH   1  10
ATOM      8  N   LIG    1       -5.453   2.702   0.557  0.00  0.00    -0.340 N 
ATOM      9  N   LIG    1       -4.515   2.102   1.196  0.00  0.00    -0.170 NA
ATOM     10  C   LIG    1       -4.687   1.619   2.407  0.00  0.00    +0.020 A 
ATOM     11  C   LIG    1       -5.941   1.746   3.052  0.00  0.00    +0.130 A 
ATOM     12  C   LIG    1       -6.946   2.385   2.389  0.00  0.00    -0.010 A 
ATOM     13  C   LIG    1       -6.676   2.874   1.091  0.00  0.00    +0.480 A 
ATOM     14  O   LIG    1       -7.547   3.448   0.458  0.00  0.00    -0.520 OA
BRANCH   8  15
ATOM     15  C   LIG    1       -5.184   3.212  -0.789  0.00  0.00    +0.320 C 
BRANCH  15  17
ATOM     16  C   LIG    1       -4.387   5.182  -2.103  0.00  0.00    +0.030 C 
ATOM     17  C   LIG    1       -4.668   4.649  -0.696  0.00  0.00    +0.000 C 
ENDBRANCH  15  17
ENDBRANCH   8  15
ENDBRANCH   1  10
BRANCH   5  18
ATOM     18  N   LIG    1        1.173   0.274   2.158  0.00  0.00    -0.520 NA
ATOM     19  C   LIG    1        1.332  -0.874   3.063  0.00  0.00    +0.150 C 
ATOM     20  C   LIG    1        2.525  -1.716   2.604  0.00  0.00    +0.220 C 
ATOM     21  O   LIG    1        3.695  -0.894   2.562  0.00  0.00    -0.380 OA
ATOM     22  C   LIG    1        3.575   0.233   1.690  0.00  0.00    +0.220 C 
ATOM     23  C   LIG    1        2.392   1.095   2.139  0.00  0.00    +0.150 C 
ENDBRANCH   5  18
BRANCH   4  24
ATOM     24  C   LIG    1        0.279   1.488   0.057  0.00  0.00    +0.040 C 
ATOM     25  C   LIG    1       -0.243   2.288  -1.138  0.00  0.00    -0.010 C 
ENDBRANCH   4  24
TORSDOF 5
