REMARK  Name = ZINCpk00000Eh7Hz.0
REMARK                            x       y       z     vdW  Elec       q    Type
REMARK                         _______ _______ _______ _____ _____    ______ ____
ROOT
ATOM      1  N   LIG    1        0.728   7.053   2.989  0.00  0.00    -0.690 NA
ATOM      2  H   LIG    1        0.434   7.431   2.145  0.00  0.00    +0.410 HD
ENDROOT
BRANCH   1   7
ATOM      3  N   LIG    1        1.491   9.208   3.859  0.00  0.00    -0.370 N 
ATOM      4  N   LIG    1        2.072   9.581   5.084  0.00  0.00    -0.090 NA
ATOM      5  N   LIG    1        2.178   8.508   5.789  0.00  0.00    -0.010 NA
ATOM      6  N   LIG    1        1.720   7.499   5.139  0.00  0.00    -0.360 NA
ATOM      7  C   LIG    1        1.285   7.872   3.956  0.00  0.00    +0.500 C 
BRANCH   3  12
ATOM      8  C   LIG    1        0.262  12.578  -0.540  0.00  0.00    +0.100 C 
ATOM      9  C   LIG    1        0.588  11.683   0.628  0.00  0.00    -0.070 A 
ATOM     10  C   LIG    1        0.229  12.062   1.908  0.00  0.00    +0.040 A 
ATOM     11  C   LIG    1        0.527  11.244   2.981  0.00  0.00    +0.050 A 
ATOM     12  C   LIG    1        1.187  10.041   2.772  0.00  0.00    +0.120 A 
ATOM     13  C   LIG    1        1.550   9.665   1.486  0.00  0.00    +0.010 A 
ATOM     14  C   LIG    1        1.245  10.485   0.417  0.00  0.00    +0.040 A 
ENDBRANCH   3  12
ENDBRANCH   1   7
BRANCH   1  15
ATOM     15  C   LIG    1        0.582   5.618   3.241  0.00  0.00    +0.290 C 
ATOM     16  C   LIG    1        0.550   4.848   1.904  0.00  0.00    +0.050 C 
ATOM     17  C   LIG    1       -0.476   3.713   2.144  0.00  0.00    +0.000 C 
ATOM     18  C   LIG    1       -1.560   4.408   3.006  0.00  0.00    +0.010 C 
ATOM     19  C   LIG    1       -0.759   5.338   3.941  0.00  0.00    +0.150 C 
BRANCH  19  20
ATOM     20  O   LIG    1       -0.531   4.692   5.196  0.00  0.00    -0.550 OA
ATOM     21  H   LIG    1       -1.339   4.489   5.686  0.00  0.00    +0.380 HD
ENDBRANCH  19  20
BRANCH  17  22
ATOM     22  C   LIG    1       -1.067   3.227   0.819  0.00  0.00    +0.310 C 
BRANCH  22  23
ATOM     23  N   LIG    1       -1.942   2.078   1.066  0.00  0.00    -0.460 N 
ATOM     24  C   LIG    1       -1.570   0.760   1.071  0.00  0.00    +0.110 A 
ATOM     25  C   LIG    1       -2.678   0.044   1.339  0.00  0.00    +0.140 A 
ATOM     26  N   LIG    1       -3.698   0.900   1.494  0.00  0.00    -0.490 NA
ATOM     27  C   LIG    1       -3.265   2.120   1.332  0.00  0.00    +0.380 A 
ENDBRANCH  22  23
ENDBRANCH  17  22
ENDBRANCH   1  15
TORSDOF 6
