REMARK  Name = ZINCb80000006kST.0
REMARK                            x       y       z     vdW  Elec       q    Type
REMARK                         _______ _______ _______ _____ _____    ______ ____
ROOT
ATOM      1  C   LIG    1       -1.213   1.768   0.017  0.00  0.00    -0.200 A 
ATOM      2  C   LIG    1       -0.013   1.076   0.008  0.00  0.00    +0.080 A 
ATOM      3  C   LIG    1        1.169   1.801   0.001  0.00  0.00    -0.040 A 
ATOM      4  C   LIG    1        1.116   3.186   0.009  0.00  0.00    +0.280 A 
ATOM      5  N   LIG    1       -0.036   3.818   0.023  0.00  0.00    -0.440 NA
ATOM      6  CA  LIG    1       -1.191   3.162   0.030  0.00  0.00    +0.100 A 
ENDROOT
BRANCH   6   7
ATOM      7  C   LIG    1       -2.463   3.916   0.046  0.00  0.00    +0.530 C 
ATOM      8  OXT LIG    1       -3.529   3.317   0.053  0.00  0.00    -0.700 OA
ATOM      9  O   LIG    1       -2.449   5.139   0.052  0.00  0.00    -0.610 OA
ENDBRANCH   6   7
BRANCH   1  10
ATOM     10  C   LIG    1       -2.524   1.025   0.019  0.00  0.00    +0.350 C 
BRANCH  10  11
ATOM     11  N   LIG    1       -3.075   1.001  -1.343  0.00  0.00    -0.620 N 
ATOM     12  H   LIG    1       -3.953   0.503  -1.342  0.00  0.00    +0.430 HD
ATOM     13  H   LIG    1       -2.426   0.536  -1.960  0.00  0.00    +0.420 HD
ATOM     14  H   LIG    1       -3.225   1.946  -1.662  0.00  0.00    +0.440 HD
ENDBRANCH  10  11
ENDBRANCH   1  10
TORSDOF 3
