REMARK  Name = ZINCpk00000e9gRd.0
REMARK                            x       y       z     vdW  Elec       q    Type
REMARK                         _______ _______ _______ _____ _____    ______ ____
ROOT
ATOM      1  N   LIG    1        2.399   0.551  -0.025  0.00  0.00    -0.620 N 
ATOM      2  C   LIG    1        2.429  -0.343   0.984  0.00  0.00    +0.690 C 
ATOM      3  N   LIG    1        3.326  -1.349   0.966  0.00  0.00    -0.690 N 
ATOM      4  H   LIG    1        3.905  -1.469   0.197  0.00  0.00    +0.410 HD
ATOM      5  O   LIG    1        1.647  -0.242   1.909  0.00  0.00    -0.530 OA
ENDROOT
BRANCH   3   6
ATOM      6  C   LIG    1        3.422  -2.220   2.057  0.00  0.00    +0.230 A 
ATOM      7  C   LIG    1        4.656  -2.736   2.426  0.00  0.00    -0.110 A 
ATOM      8  C   LIG    1        4.752  -3.596   3.510  0.00  0.00    +0.180 A 
ATOM      9  C   LIG    1        3.614  -3.949   4.219  0.00  0.00    -0.050 A 
ATOM     10  C   LIG    1        2.378  -3.437   3.846  0.00  0.00    +0.220 A 
ATOM     11  C   LIG    1        2.282  -2.573   2.765  0.00  0.00    +0.000 A 
BRANCH  10  12
ATOM     12  N   LIG    1        1.227  -3.795   4.563  0.00  0.00    -0.320 N 
ATOM     13  C   LIG    1        1.179  -4.627   5.627  0.00  0.00    +0.230 A 
ATOM     14  C   LIG    1       -0.111  -4.706   6.029  0.00  0.00    -0.100 A 
ATOM     15  C   LIG    1       -0.878  -3.904   5.178  0.00  0.00    +0.240 A 
ATOM     16  N   LIG    1       -0.077  -3.357   4.298  0.00  0.00    -0.280 NA
ENDBRANCH  10  12
BRANCH   8  17
ATOM     17  O   LIG    1        5.962  -4.097   3.874  0.00  0.00    -0.310 OA
ATOM     18  C   LIG    1        7.092  -3.692   3.100  0.00  0.00    +0.250 C 
ENDBRANCH   8  17
ENDBRANCH   3   6
BRANCH   1  19
ATOM     19  C   LIG    1        1.425   1.645  -0.005  0.00  0.00    +0.260 C 
ATOM     20  C   LIG    1        1.536   2.450   1.309  0.00  0.00    +0.200 C 
ATOM     21  O   LIG    1        0.544   1.868   2.183  0.00  0.00    -0.330 OA
ATOM     22  C   LIG    1       -0.604   1.619   1.343  0.00  0.00    +0.170 C 
ATOM     23  C   LIG    1       -0.016   1.086   0.018  0.00  0.00    +0.140 C 
BRANCH  23  24
ATOM     24  O   LIG    1       -0.761   1.577  -1.098  0.00  0.00    -0.560 OA
ATOM     25  H   LIG    1       -1.681   1.280  -1.117  0.00  0.00    +0.390 HD
ENDBRANCH  23  24
ENDBRANCH   1  19
BRANCH   1  27
ATOM     26  C   LIG    1        4.614   1.217  -0.821  0.00  0.00    +0.010 C 
ATOM     27  C   LIG    1        3.341   0.429  -1.140  0.00  0.00    +0.260 C 
ENDBRANCH   1  27
TORSDOF 6
