REMARK  Name = ZINCrD000000A7aY.0
REMARK                            x       y       z     vdW  Elec       q    Type
REMARK                         _______ _______ _______ _____ _____    ______ ____
ROOT
ATOM      1  C   LIG    1        1.435   1.610  -0.060  0.00  0.00    +0.020 C 
ATOM      2  C   LIG    1        2.167   1.014  -1.266  0.00  0.00    +0.030 C 
ATOM      3  C   LIG    1        3.620   1.494  -1.264  0.00  0.00    +0.170 C 
ATOM      4  N   LIG    1        4.273   1.076  -0.016  0.00  0.00    -0.530 NA
ATOM      5  C   LIG    1        3.617   1.674   1.153  0.00  0.00    +0.180 C 
ATOM      6  C   LIG    1        2.163   1.200   1.223  0.00  0.00    +0.030 C 
ENDROOT
BRANCH   1  15
ATOM      7  O   LIG    1        0.650   3.108  -1.619  0.00  0.00    -0.520 OA
ATOM      8  C   LIG    1       -0.256   2.405  -2.015  0.00  0.00    +0.540 C 
ATOM      9  N   LIG    1       -0.636   1.329  -1.299  0.00  0.00    -0.600 N 
ATOM     10  C   LIG    1       -1.683   0.446  -1.850  0.00  0.00    +0.270 C 
ATOM     11  C   LIG    1       -2.696   0.008  -0.777  0.00  0.00    +0.020 C 
ATOM     12  C   LIG    1       -3.022   1.166   0.133  0.00  0.00    +0.000 C 
ATOM     13  C   LIG    1       -2.077   1.148   1.331  0.00  0.00    +0.000 C 
ATOM     14  C   LIG    1       -0.788   1.815   1.095  0.00  0.00    +0.010 C 
ATOM     15  C   LIG    1       -0.002   1.086  -0.023  0.00  0.00    +0.240 C 
BRANCH   8  16
ATOM     16  C   LIG    1       -0.955   2.736  -3.308  0.00  0.00    -0.080 C 
ATOM     17  C   LIG    1       -0.200   2.464  -4.610  0.00  0.00    +0.050 C 
ATOM     18  C   LIG    1       -0.405   3.902  -4.131  0.00  0.00    +0.060 C 
ENDBRANCH   8  16
ENDBRANCH   1  15
BRANCH   4  19
ATOM     19  C   LIG    1        5.706   1.398  -0.039  0.00  0.00    +0.350 C 
BRANCH  19  20
ATOM     20  C   LIG    1        6.294   0.983  -1.363  0.00  0.00    +0.170 A 
ATOM     21  N   LIG    1        6.375   1.719  -2.435  0.00  0.00    -0.280 NA
ATOM     22  N   LIG    1        6.934   1.042  -3.376  0.00  0.00    -0.290 NA
ATOM     23  C   LIG    1        7.228  -0.149  -2.936  0.00  0.00    +0.200 A 
ATOM     24  O   LIG    1        6.835  -0.212  -1.653  0.00  0.00    -0.210 OA
BRANCH  23  25
ATOM     25  C   LIG    1        7.892  -1.250  -3.721  0.00  0.00    +0.050 C 
ATOM     26  C   LIG    1        8.447  -0.898  -5.102  0.00  0.00    +0.080 C 
ATOM     27  C   LIG    1        7.180  -1.748  -4.981  0.00  0.00    +0.060 C 
ENDBRANCH  23  25
ENDBRANCH  19  20
ENDBRANCH   4  19
TORSDOF 5
