REMARK  Name = ZINCtV00001bB3v1.0
REMARK                            x       y       z     vdW  Elec       q    Type
REMARK                         _______ _______ _______ _____ _____    ______ ____
ROOT
ATOM      1  C   LIG    1        0.723   2.346   5.703  0.00  0.00    +0.080 C 
ATOM      2  C   LIG    1       -0.559   3.125   6.006  0.00  0.00    +0.040 C 
ATOM      3  C   LIG    1       -1.222   3.550   4.694  0.00  0.00    +0.030 C 
ATOM      4  C   LIG    1       -1.594   2.302   3.887  0.00  0.00    +0.270 C 
ATOM      5  N   LIG    1       -0.393   1.474   3.715  0.00  0.00    -0.610 N 
ATOM      6  C   LIG    1        0.000   1.080   2.488  0.00  0.00    +0.530 C 
ATOM      7  O   LIG    1        0.943   0.328   2.365  0.00  0.00    -0.530 OA
ATOM      8  C   LIG    1        0.370   1.080   4.908  0.00  0.00    +0.290 C 
ENDROOT
BRANCH   6   9
ATOM      9  C   LIG    1       -0.733   1.574   1.267  0.00  0.00    -0.010 C 
ATOM     10  C   LIG    1       -0.545   0.578   0.121  0.00  0.00    +0.050 C 
ATOM     11  C   LIG    1       -1.289   1.079  -1.118  0.00  0.00    +0.030 C 
ATOM     12  C   LIG    1       -0.732   2.443  -1.531  0.00  0.00    +0.030 C 
ATOM     13  C   LIG    1       -0.920   3.439  -0.385  0.00  0.00    +0.290 C 
ATOM     14  F   LIG    1       -0.411   4.686  -0.762  0.00  0.00    -0.200 F 
ATOM     15  F   LIG    1       -2.283   3.561  -0.092  0.00  0.00    -0.200 F 
ATOM     16  C   LIG    1       -0.176   2.938   0.854  0.00  0.00    +0.040 C 
ENDBRANCH   6   9
BRANCH   1  20
ATOM     17  C   LIG    1        3.015   1.882   8.516  0.00  0.00    +0.080 A 
ATOM     18  C   LIG    1        2.143   1.121   9.186  0.00  0.00    -0.080 A 
ATOM     19  S   LIG    1        0.682   0.984   8.210  0.00  0.00    +0.120 S 
ATOM     20  C   LIG    1        1.392   1.956   6.996  0.00  0.00    +0.060 A 
ATOM     21  N   LIG    1        2.581   2.312   7.348  0.00  0.00    -0.460 NA
BRANCH  17  27
ATOM     22  C   LIG    1        6.861   0.184  11.181  0.00  0.00    +0.030 C 
ATOM     23  C   LIG    1        6.316   1.373  10.389  0.00  0.00    -0.060 C 
ATOM     24  C   LIG    1        6.216   2.594  11.306  0.00  0.00    +0.010 C 
ATOM     25  C   LIG    1        5.671   3.784  10.514  0.00  0.00    +0.010 C 
ATOM     26  C   LIG    1        4.283   3.441   9.969  0.00  0.00    +0.010 C 
ATOM     27  C   LIG    1        4.382   2.220   9.052  0.00  0.00    +0.080 C 
ATOM     28  C   LIG    1        7.258   1.686   9.224  0.00  0.00    +0.020 C 
ATOM     29  C   LIG    1        4.928   1.030   9.845  0.00  0.00    +0.030 C 
ENDBRANCH  17  27
ENDBRANCH   1  20
TORSDOF 3
