REMARK  Name = ZINCpk000000oLOs.0
REMARK                            x       y       z     vdW  Elec       q    Type
REMARK                         _______ _______ _______ _____ _____    ______ ____
ROOT
ATOM      1  C   LIG    1        1.711   3.128   0.753  0.00  0.00    +0.530 C 
ATOM      2  N   LIG    1        1.192   4.335   0.453  0.00  0.00    -0.590 N 
ATOM      3  C   LIG    1        1.531   5.462   1.295  0.00  0.00    +0.280 C 
ATOM      4  C   LIG    1        0.486   5.593   2.431  0.00  0.00    +0.030 C 
ATOM      5  C   LIG    1       -0.808   6.027   1.869  0.00  0.00    +0.180 C 
ATOM      6  N   LIG    1       -1.398   5.087   0.916  0.00  0.00    -0.500 N 
ATOM      7  C   LIG    1       -0.914   5.348  -0.423  0.00  0.00    +0.200 C 
ATOM      8  C   LIG    1        0.306   4.450  -0.724  0.00  0.00    +0.270 C 
ATOM      9  O   LIG    1        2.359   2.981   1.767  0.00  0.00    -0.530 OA
ENDROOT
BRANCH   1  12
ATOM     10  N   LIG    1        1.597  -0.431  -0.041  0.00  0.00    -0.620 N 
ATOM     11  C   LIG    1        2.400   0.773   0.203  0.00  0.00    +0.280 C 
ATOM     12  C   LIG    1        1.487   1.960  -0.173  0.00  0.00    -0.020 C 
ATOM     13  C   LIG    1        0.079   1.354   0.032  0.00  0.00    +0.080 C 
ATOM     14  C   LIG    1        0.289  -0.135  -0.136  0.00  0.00    +0.520 C 
ATOM     15  O   LIG    1       -0.594  -0.944  -0.328  0.00  0.00    -0.530 OA
BRANCH  10  17
ATOM     16  C   LIG    1        2.488  -2.062  -1.631  0.00  0.00    +0.020 C 
ATOM     17  C   LIG    1        2.150  -1.782  -0.166  0.00  0.00    +0.280 C 
ENDBRANCH  10  17
ENDBRANCH   1  12
BRANCH   6  18
ATOM     18  C   LIG    1       -2.788   5.136   0.962  0.00  0.00    +0.130 A 
ATOM     19  C   LIG    1       -3.434   6.355   1.144  0.00  0.00    -0.030 A 
ATOM     20  C   LIG    1       -4.809   6.408   1.185  0.00  0.00    +0.080 A 
ATOM     21  C   LIG    1       -5.556   5.233   1.054  0.00  0.00    -0.040 A 
ATOM     22  C   LIG    1       -4.904   4.010   0.877  0.00  0.00    +0.080 A 
ATOM     23  C   LIG    1       -3.529   3.965   0.832  0.00  0.00    +0.040 A 
BRANCH  21  24
ATOM     24  C   LIG    1       -6.987   5.284   1.101  0.00  0.00    +0.250 C 
ATOM     25  N   LIG    1       -8.121   5.323   1.138  0.00  0.00    -0.410 NA
ENDBRANCH  21  24
ENDBRANCH   6  18
TORSDOF 4
