REMARK  Name = ZINCqH00000074sp.0
REMARK                            x       y       z     vdW  Elec       q    Type
REMARK                         _______ _______ _______ _____ _____    ______ ____
ROOT
ATOM      1  O   LIG    1       -0.715   1.567  -1.168  0.00  0.00    -0.350 OA
ENDROOT
BRANCH   1   2
ATOM      2  C   LIG    1       -0.209   1.218  -2.368  0.00  0.00    +0.520 C 
ATOM      3  O   LIG    1        0.791   0.531  -2.429  0.00  0.00    -0.480 OA
BRANCH   2   7
ATOM      4  C   LIG    1       -2.112   2.522  -5.934  0.00  0.00    +0.210 A 
ATOM      5  C   LIG    1       -2.633   2.881  -4.694  0.00  0.00    -0.120 A 
ATOM      6  C   LIG    1       -2.024   2.456  -3.537  0.00  0.00    +0.170 A 
ATOM      7  C   LIG    1       -0.869   1.669  -3.604  0.00  0.00    -0.200 A 
ATOM      8  C   LIG    1       -0.344   1.308  -4.855  0.00  0.00    +0.230 A 
ATOM      9  C   LIG    1       -0.971   1.737  -6.012  0.00  0.00    -0.110 A 
BRANCH   4  11
ATOM     10  C   LIG    1       -3.895   3.745  -6.919  0.00  0.00    +0.250 C 
ATOM     11  O   LIG    1       -2.724   2.940  -7.070  0.00  0.00    -0.310 OA
ENDBRANCH   4  11
BRANCH   8  12
ATOM     12  O   LIG    1        0.771   0.541  -4.930  0.00  0.00    -0.280 OA
ATOM     13  C   LIG    1        1.247   0.212  -6.237  0.00  0.00    +0.250 C 
ENDBRANCH   8  12
ENDBRANCH   2   7
ENDBRANCH   1   2
BRANCH   1  14
ATOM     14  C   LIG    1       -0.013   1.086   0.008  0.00  0.00    +0.410 C 
BRANCH  14  15
ATOM     15  C   LIG    1       -0.718   1.572   1.248  0.00  0.00    +0.160 A 
ATOM     16  N   LIG    1       -1.674   0.953   1.883  0.00  0.00    -0.250 NA
ATOM     17  N   LIG    1       -2.042   1.654   2.896  0.00  0.00    -0.270 NA
ATOM     18  C   LIG    1       -1.327   2.754   2.944  0.00  0.00    +0.220 A 
ATOM     19  O   LIG    1       -0.472   2.720   1.903  0.00  0.00    -0.210 OA
BRANCH  18  20
ATOM     20  C   LIG    1       -1.437   3.828   3.954  0.00  0.00    -0.030 A 
ATOM     21  C   LIG    1       -0.603   4.945   3.882  0.00  0.00    +0.070 A 
ATOM     22  C   LIG    1       -0.713   5.946   4.825  0.00  0.00    +0.040 A 
ATOM     23  C   LIG    1       -1.641   5.839   5.847  0.00  0.00    -0.010 A 
ATOM     24  C   LIG    1       -2.468   4.731   5.926  0.00  0.00    +0.040 A 
ATOM     25 CL   LIG    1       -1.769   7.099   7.034  0.00  0.00    -0.050 Cl
ATOM     26  C   LIG    1       -2.370   3.726   4.987  0.00  0.00    +0.100 A 
ENDBRANCH  18  20
ENDBRANCH  14  15
ENDBRANCH   1  14
TORSDOF 7
