REMARK  Name = ZINCpe000027pHdA.0
REMARK                            x       y       z     vdW  Elec       q    Type
REMARK                         _______ _______ _______ _____ _____    ______ ____
ROOT
ATOM      1  C   LIG    1       -2.143  -2.741  -0.383  0.00  0.00    +0.220 C 
ATOM      2  C   LIG    1       -0.878  -3.512   0.019  0.00  0.00    +0.050 C 
ATOM      3  C   LIG    1       -0.165  -2.254  -0.502  0.00  0.00    +0.280 C 
ATOM      4  N   LIG    1       -1.385  -1.497  -0.185  0.00  0.00    -0.640 N 
ATOM      5  C   LIG    1       -1.679  -0.222   0.139  0.00  0.00    +0.590 C 
ATOM      6  O   LIG    1       -2.820   0.084   0.426  0.00  0.00    -0.520 OA
ENDROOT
BRANCH   5   7
ATOM      7  C   LIG    1       -0.615   0.804   0.145  0.00  0.00    -0.170 A 
ATOM      8  C   LIG    1        0.666   0.499  -0.316  0.00  0.00    +0.280 A 
ATOM      9  N   LIG    1        1.617   1.410  -0.312  0.00  0.00    -0.470 NA
ATOM     10  C   LIG    1        1.405   2.637   0.122  0.00  0.00    +0.270 A 
ATOM     11  C   LIG    1        0.158   3.022   0.598  0.00  0.00    +0.050 A 
ATOM     12  C   LIG    1       -0.876   2.097   0.613  0.00  0.00    +0.110 A 
BRANCH  11  13
ATOM     13  O   LIG    1       -0.047   4.291   1.042  0.00  0.00    -0.490 OA
ATOM     14  H   LIG    1        0.128   4.410   1.985  0.00  0.00    +0.400 HD
ENDBRANCH  11  13
ENDBRANCH   5   7
BRANCH   1  15
ATOM     15  C   LIG    1       -3.300  -2.913   0.604  0.00  0.00    +0.310 C 
BRANCH  15  17
ATOM     16  C   LIG    1       -3.610  -5.424   0.801  0.00  0.00    +0.300 C 
ATOM     17  N   LIG    1       -4.047  -4.129   0.273  0.00  0.00    -0.610 N 
ATOM     18  C   LIG    1       -5.137  -4.057  -0.517  0.00  0.00    +0.560 C 
ATOM     19  O   LIG    1       -5.439  -3.002  -1.040  0.00  0.00    -0.520 OA
BRANCH  18  20
ATOM     20  C   LIG    1       -5.964  -5.260  -0.748  0.00  0.00    -0.170 A 
ATOM     21  C   LIG    1       -5.940  -6.321   0.158  0.00  0.00    +0.280 A 
ATOM     22  N   LIG    1       -6.676  -7.394  -0.044  0.00  0.00    -0.470 NA
ATOM     23  C   LIG    1       -7.459  -7.515  -1.098  0.00  0.00    +0.270 A 
ATOM     24  C   LIG    1       -7.541  -6.505  -2.048  0.00  0.00    +0.050 A 
ATOM     25  C   LIG    1       -6.788  -5.351  -1.876  0.00  0.00    +0.100 A 
BRANCH  24  26
ATOM     26  O   LIG    1       -8.352  -6.642  -3.130  0.00  0.00    -0.490 OA
ATOM     27  H   LIG    1       -9.250  -6.312  -2.993  0.00  0.00    +0.400 HD
ENDBRANCH  24  26
ENDBRANCH  18  20
ENDBRANCH  15  17
ENDBRANCH   1  15
TORSDOF 6
