REMARK  Name = ZINCpk00000y6tH9.0
REMARK                            x       y       z     vdW  Elec       q    Type
REMARK                         _______ _______ _______ _____ _____    ______ ____
ROOT
ATOM      1  N   LIG    1        0.002  -0.004   0.002  0.00  0.00    -0.530 NA
ATOM      2  C   LIG    1       -0.018   1.464   0.010  0.00  0.00    +0.170 C 
ATOM      3  C   LIG    1        1.417   1.995  -0.001  0.00  0.00    +0.030 C 
ATOM      4  C   LIG    1        2.160   1.470   1.231  0.00  0.00    -0.030 C 
ATOM      5  C   LIG    1        2.125  -0.061   1.224  0.00  0.00    +0.040 C 
ATOM      6  C   LIG    1        0.669  -0.533   1.199  0.00  0.00    +0.180 C 
ENDROOT
BRANCH   1   7
ATOM      7  C   LIG    1       -1.356  -0.548  -0.128  0.00  0.00    +0.240 C 
BRANCH   7  13
ATOM      8  C   LIG    1       -1.064  -2.903   0.681  0.00  0.00    +0.130 A 
ATOM      9  C   LIG    1       -0.999  -4.267   0.456  0.00  0.00    -0.020 A 
ATOM     10  C   LIG    1       -1.142  -4.763  -0.841  0.00  0.00    +0.010 A 
ATOM     11  C   LIG    1       -1.355  -3.879  -1.901  0.00  0.00    +0.040 A 
ATOM     12  C   LIG    1       -1.423  -2.522  -1.663  0.00  0.00    +0.080 A 
ATOM     13  C   LIG    1       -1.281  -2.032  -0.378  0.00  0.00    -0.080 A 
BRANCH   8  15
ATOM     14  C   LIG    1       -0.699  -3.368   2.984  0.00  0.00    +0.240 C 
ATOM     15  O   LIG    1       -0.920  -2.416   1.942  0.00  0.00    -0.310 OA
ENDBRANCH   8  15
BRANCH  10  16
ATOM     16  C   LIG    1       -1.072  -6.172  -1.084  0.00  0.00    +0.250 C 
ATOM     17  N   LIG    1       -1.016  -7.291  -1.276  0.00  0.00    -0.410 NA
ENDBRANCH  10  16
ENDBRANCH   7  13
ENDBRANCH   1   7
BRANCH   4  18
ATOM     18  C   LIG    1        3.613   1.947   1.195  0.00  0.00    +0.220 C 
BRANCH  18  19
ATOM     19  C   LIG    1        3.652   3.448   1.326  0.00  0.00    +0.490 C 
ATOM     20  N   LIG    1        3.233   4.036   2.464  0.00  0.00    -0.700 N 
ATOM     21  H   LIG    1        2.906   3.494   3.199  0.00  0.00    +0.400 HD
ATOM     22  O   LIG    1        4.060   4.127   0.407  0.00  0.00    -0.530 OA
BRANCH  20  23
ATOM     23  C   LIG    1        3.271   5.495   2.591  0.00  0.00    +0.220 C 
ATOM     24  C   LIG    1        3.792   6.077   3.907  0.00  0.00    +0.010 C 
ATOM     25  C   LIG    1        2.298   6.144   3.579  0.00  0.00    +0.010 C 
ENDBRANCH  20  23
ENDBRANCH  18  19
BRANCH  18  26
ATOM     26  O   LIG    1        4.212   1.562  -0.044  0.00  0.00    -0.530 OA
ATOM     27  H   LIG    1        3.772   1.927  -0.823  0.00  0.00    +0.380 HD
ENDBRANCH  18  26
ENDBRANCH   4  18
TORSDOF 8
