REMARK  Name = ZINCrH000004ozrw.0
REMARK                            x       y       z     vdW  Elec       q    Type
REMARK                         _______ _______ _______ _____ _____    ______ ____
ROOT
ATOM      1  C   LIG    1        1.119   2.801   6.117  0.00  0.00    +0.360 A 
ATOM      2  N   LIG    1        1.089   1.515   5.862  0.00  0.00    -0.510 NA
ATOM      3  C   LIG    1        1.483   0.605   6.777  0.00  0.00    +0.090 A 
ATOM      4  C   LIG    1        1.931   1.029   8.021  0.00  0.00    -0.230 A 
ATOM      5  C   LIG    1        2.318  -0.078   8.889  0.00  0.00    -0.030 A 
ATOM      6  C   LIG    1        2.169  -1.279   8.329  0.00  0.00    -0.200 A 
ATOM      7  C   LIG    1        2.498  -2.592   9.019  0.00  0.00    +0.120 C 
ATOM      8  C   LIG    1        3.386  -2.303  10.232  0.00  0.00    +0.020 C 
ATOM      9  C   LIG    1        2.742  -1.192  11.066  0.00  0.00    +0.020 C 
ATOM     10  C   LIG    1        2.843   0.130  10.303  0.00  0.00    +0.110 C 
ATOM     11  C   LIG    1        1.958   2.432   8.284  0.00  0.00    +0.560 A 
ATOM     12  O   LIG    1        2.344   2.854   9.360  0.00  0.00    -0.510 OA
ATOM     13  S   LIG    1        1.543  -1.149   6.694  0.00  0.00    +0.190 S 
ATOM     14  N   LIG    1        1.554   3.281   7.318  0.00  0.00    -0.520 N 
ATOM     15  C   LIG    1        1.578   4.726   7.561  0.00  0.00    +0.330 C 
ENDROOT
BRANCH   1  16
ATOM     16  S   LIG    1        0.592   3.936   4.878  0.00  0.00    +0.090 S 
BRANCH  16  17
ATOM     17  C   LIG    1        0.152   2.778   3.557  0.00  0.00    +0.100 C 
BRANCH  17  26
ATOM     18  C   LIG    1       -1.531   5.105   0.520  0.00  0.00    +0.060 C 
ATOM     19  C   LIG    1       -1.420   3.621   0.163  0.00  0.00    +0.220 C 
ATOM     20  C   LIG    1       -2.817   3.052  -0.109  0.00  0.00    +0.020 C 
ATOM     21  C   LIG    1       -2.714   1.541  -0.328  0.00  0.00    +0.020 C 
ATOM     22  C   LIG    1       -2.159   0.877   0.935  0.00  0.00    +0.020 C 
ATOM     23  C   LIG    1       -0.755   1.421   1.218  0.00  0.00    +0.230 C 
ATOM     24  C   LIG    1        0.194   0.999   0.095  0.00  0.00    +0.030 C 
ATOM     25  N   LIG    1       -0.821   2.887   1.286  0.00  0.00    -0.600 N 
ATOM     26  C   LIG    1       -0.341   3.547   2.358  0.00  0.00    +0.540 C 
ATOM     27  O   LIG    1       -0.305   4.759   2.359  0.00  0.00    -0.520 OA
ENDBRANCH  17  26
ENDBRANCH  16  17
ENDBRANCH   1  16
TORSDOF 3
