REMARK  Name = ZINCrg000000rJag.0
REMARK                            x       y       z     vdW  Elec       q    Type
REMARK                         _______ _______ _______ _____ _____    ______ ____
ROOT
ATOM      1  C   LIG    1       -3.384   6.094   1.044  0.00  0.00    +0.570 C 
ATOM      2  N   LIG    1       -3.346   7.441   1.089  0.00  0.00    -0.730 N 
ATOM      3  H   LIG    1       -2.546   7.913   0.809  0.00  0.00    +0.400 HD
ATOM      4  O   LIG    1       -4.386   5.502   1.394  0.00  0.00    -0.520 OA
ENDROOT
BRANCH   1  12
ATOM      5  C   LIG    1        1.723   2.260   1.386  0.00  0.00    +0.050 C 
ATOM      6  C   LIG    1        1.299   1.958  -0.053  0.00  0.00    +0.200 C 
ATOM      7  C   LIG    1        0.010   1.176  -0.041  0.00  0.00    +0.530 C 
ATOM      8  N   LIG    1       -1.166   1.839   0.026  0.00  0.00    -0.660 N 
ATOM      9  H   LIG    1       -2.007   1.355   0.042  0.00  0.00    +0.420 HD
ATOM     10  C   LIG    1       -1.143   3.241   0.077  0.00  0.00    +0.110 A 
ATOM     11  C   LIG    1       -2.246   3.941   0.522  0.00  0.00    +0.090 A 
ATOM     12  C   LIG    1       -2.209   5.339   0.569  0.00  0.00    -0.130 A 
ATOM     13  C   LIG    1       -1.056   6.017   0.166  0.00  0.00    +0.050 A 
ATOM     14  C   LIG    1        0.041   5.313  -0.279  0.00  0.00    +0.000 A 
ATOM     15  C   LIG    1        0.007   3.924  -0.328  0.00  0.00    +0.110 A 
ATOM     16  O   LIG    1        0.029  -0.035  -0.096  0.00  0.00    -0.510 OA
ATOM     17  N   LIG    1        1.116   3.217  -0.781  0.00  0.00    -0.480 N 
ATOM     18  C   LIG    1        2.329   4.043  -0.716  0.00  0.00    +0.250 C 
ENDBRANCH   1  12
BRANCH   2  19
ATOM     19  C   LIG    1       -4.513   8.191   1.559  0.00  0.00    +0.330 C 
BRANCH  19  20
ATOM     20  C   LIG    1       -4.214   9.667   1.512  0.00  0.00    -0.010 A 
ATOM     21  C   LIG    1       -3.853  10.337   2.666  0.00  0.00    +0.020 A 
ATOM     22  C   LIG    1       -3.578  11.691   2.622  0.00  0.00    +0.080 A 
ATOM     23  C   LIG    1       -3.664  12.375   1.424  0.00  0.00    +0.010 A 
ATOM     24  C   LIG    1       -4.024  11.705   0.270  0.00  0.00    +0.130 A 
ATOM     25  C   LIG    1       -4.295  10.351   0.313  0.00  0.00    -0.660 A 
BRANCH  25  26
ATOM     26  S   LIG    1       -4.748   9.495  -1.160  0.00  0.00    +2.700 S 
ATOM     27  O   LIG    1       -4.707  10.454  -2.209  0.00  0.00    -0.960 OA
ATOM     28  O   LIG    1       -5.908   8.738  -0.843  0.00  0.00    -0.950 OA
BRANCH  26  29
ATOM     29  N   LIG    1       -3.547   8.401  -1.480  0.00  0.00    -1.240 NA
ATOM     30  H   LIG    1       -3.611   7.825  -2.259  0.00  0.00    +0.420 HD
ATOM     31  H   LIG    1       -2.781   8.335  -0.889  0.00  0.00    +0.410 HD
ENDBRANCH  26  29
ENDBRANCH  25  26
ENDBRANCH  19  20
ENDBRANCH   2  19
TORSDOF 5
