REMARK  Name = ZINCqH0000000y4Q.0
REMARK                            x       y       z     vdW  Elec       q    Type
REMARK                         _______ _______ _______ _____ _____    ______ ____
ROOT
ATOM      1  C   LIG    1       -1.151   9.357  -0.262  0.00  0.00    +0.520 C 
ATOM      2  N   LIG    1       -0.323   8.316  -0.043  0.00  0.00    -0.610 N 
ATOM      3  C   LIG    1        0.455   7.716  -1.137  0.00  0.00    +0.320 C 
ATOM      4  C   LIG    1        0.403   6.218  -1.016  0.00  0.00    -0.030 C 
ATOM      5  C   LIG    1       -0.074   5.594   0.033  0.00  0.00    -0.060 C 
ATOM      6  C   LIG    1       -0.633   6.279   1.245  0.00  0.00    +0.070 C 
ATOM      7  C   LIG    1       -0.161   7.735   1.300  0.00  0.00    +0.290 C 
ATOM      8  O   LIG    1       -1.782   9.833   0.659  0.00  0.00    -0.510 OA
ENDROOT
BRANCH   5   9
ATOM      9  C   LIG    1       -0.054   4.116   0.025  0.00  0.00    -0.070 A 
ATOM     10  C   LIG    1        1.163   3.433   0.009  0.00  0.00    +0.050 A 
ATOM     11  C   LIG    1        1.176   2.054   0.002  0.00  0.00    -0.010 A 
ATOM     12  C   LIG    1       -0.016   1.347   0.009  0.00  0.00    +0.100 A 
ATOM     13  C   LIG    1       -1.227   2.021   0.019  0.00  0.00    -0.010 A 
ATOM     14  F   LIG    1        0.002  -0.004   0.002  0.00  0.00    -0.140 F 
ATOM     15  C   LIG    1       -1.251   3.400   0.032  0.00  0.00    +0.050 A 
ENDBRANCH   5   9
BRANCH   1  16
ATOM     16  C   LIG    1       -1.294   9.928  -1.649  0.00  0.00    +0.240 C 
BRANCH  16  17
ATOM     17  O   LIG    1       -2.222  11.015  -1.623  0.00  0.00    -0.290 OA
BRANCH  17  22
ATOM     18  C   LIG    1       -3.602  13.352  -4.062  0.00  0.00    -0.130 A 
ATOM     19  C   LIG    1       -2.950  12.921  -5.222  0.00  0.00    +0.030 A 
ATOM     20  C   LIG    1       -2.068  11.863  -5.162  0.00  0.00    +0.040 A 
ATOM     21  C   LIG    1       -1.820  11.229  -3.959  0.00  0.00    -0.050 A 
ATOM     22  C   LIG    1       -2.466  11.646  -2.802  0.00  0.00    +0.120 A 
ATOM     23  C   LIG    1       -3.354  12.706  -2.847  0.00  0.00    +0.050 A 
BRANCH  18  25
ATOM     24  C   LIG    1       -4.809  15.175  -5.431  0.00  0.00    +0.090 C 
ATOM     25  C   LIG    1       -4.544  14.481  -4.120  0.00  0.00    +0.390 C 
ATOM     26  O   LIG    1       -5.108  14.852  -3.113  0.00  0.00    -0.450 OA
ENDBRANCH  18  25
ENDBRANCH  17  22
ENDBRANCH  16  17
ENDBRANCH   1  16
TORSDOF 5
