REMARK  Name = ZINCvU0000000GqZ.0
REMARK                            x       y       z     vdW  Elec       q    Type
REMARK                         _______ _______ _______ _____ _____    ______ ____
ROOT
ATOM      1  C   LIG    1        1.827   6.239  -3.725  0.00  0.00    +0.220 C 
ENDROOT
BRANCH   1   5
ATOM      2  C   LIG    1        0.195   6.048  -0.452  0.00  0.00    +0.110 A 
ATOM      3  C   LIG    1        0.203   7.388  -0.303  0.00  0.00    -0.060 A 
ATOM      4  S   LIG    1        0.962   8.085  -1.732  0.00  0.00    +0.220 S 
ATOM      5  C   LIG    1        1.186   6.524  -2.391  0.00  0.00    +0.020 A 
ATOM      6  N   LIG    1        0.730   5.626  -1.588  0.00  0.00    -0.440 NA
BRANCH   2  10
ATOM      7  C   LIG    1       -1.427   3.410   2.470  0.00  0.00    +0.110 A 
ATOM      8  C   LIG    1       -1.536   4.782   2.637  0.00  0.00    -0.030 A 
ATOM      9  C   LIG    1       -1.011   5.639   1.691  0.00  0.00    +0.030 A 
ATOM     10  C   LIG    1       -0.369   5.127   0.566  0.00  0.00    -0.020 A 
ATOM     11  C   LIG    1       -0.255   3.748   0.399  0.00  0.00    +0.010 A 
ATOM     12  C   LIG    1       -0.787   2.893   1.346  0.00  0.00    +0.100 A 
BRANCH   7  14
ATOM     13  C   LIG    1       -2.589   3.168   4.531  0.00  0.00    +0.240 C 
ATOM     14  O   LIG    1       -1.947   2.569   3.404  0.00  0.00    -0.300 OA
ENDBRANCH   7  14
BRANCH  12  15
ATOM     15  O   LIG    1       -0.682   1.547   1.184  0.00  0.00    -0.310 OA
ATOM     16  C   LIG    1       -0.013   1.086   0.008  0.00  0.00    +0.240 C 
ENDBRANCH  12  15
ENDBRANCH   2  10
ENDBRANCH   1   5
BRANCH   1  17
ATOM     17  C   LIG    1        1.036   6.912  -4.817  0.00  0.00    +0.410 C 
ATOM     18  O   LIG    1        0.435   7.939  -4.585  0.00  0.00    -0.420 OA
BRANCH  17  19
ATOM     19  C   LIG    1        0.992   6.322  -6.163  0.00  0.00    -0.170 A 
ATOM     20  C   LIG    1        0.262   6.946  -7.166  0.00  0.00    +0.130 A 
ATOM     21  C   LIG    1        0.226   6.377  -8.447  0.00  0.00    -0.080 A 
ATOM     22  C   LIG    1       -0.502   6.980  -9.489  0.00  0.00    +0.040 A 
ATOM     23  C   LIG    1       -0.517   6.403 -10.722  0.00  0.00    +0.010 A 
ATOM     24  C   LIG    1        0.180   5.222 -10.969  0.00  0.00    -0.060 A 
ATOM     25  C   LIG    1        0.895   4.610  -9.984  0.00  0.00    +0.010 A 
ATOM     26  C   LIG    1        0.141   4.612 -12.346  0.00  0.00    +0.100 C 
ATOM     27  C   LIG    1        0.935   5.175  -8.699  0.00  0.00    -0.020 A 
ATOM     28  C   LIG    1        1.666   4.566  -7.662  0.00  0.00    +0.030 A 
ATOM     29  C   LIG    1        1.697   5.131  -6.429  0.00  0.00    +0.050 A 
ENDBRANCH  17  19
ENDBRANCH   1  17
BRANCH   1  30
ATOM     30  C   LIG    1        3.205   6.755  -3.728  0.00  0.00    +0.200 C 
ATOM     31  N   LIG    1        4.269   7.154  -3.730  0.00  0.00    -0.370 NA
ENDBRANCH   1  30
TORSDOF 7
