REMARK  Name = ZINCpk00000KfKBY.0
REMARK                            x       y       z     vdW  Elec       q    Type
REMARK                         _______ _______ _______ _____ _____    ______ ____
ROOT
ATOM      1  N   LIG    1        4.296   0.020   2.460  0.00  0.00    -0.530 NA
ATOM      2  C   LIG    1        4.984  -0.349   1.215  0.00  0.00    +0.180 C 
ATOM      3  C   LIG    1        6.347   0.349   1.163  0.00  0.00    +0.290 C 
ATOM      4  N   LIG    1        7.082   0.032   2.397  0.00  0.00    -0.610 N 
ATOM      5  C   LIG    1        6.404   0.246   3.685  0.00  0.00    +0.300 C 
ATOM      6  C   LIG    1        8.342  -0.444   2.350  0.00  0.00    +0.510 C 
ATOM      7  O   LIG    1        8.932  -0.700   3.377  0.00  0.00    -0.520 OA
ATOM      8  C   LIG    1        5.038  -0.447   3.638  0.00  0.00    +0.180 C 
ENDROOT
BRANCH   1   9
ATOM      9  C   LIG    1        2.917  -0.488   2.470  0.00  0.00    +0.270 C 
BRANCH   9  10
ATOM     10  C   LIG    1        2.178   0.019   1.231  0.00  0.00    +0.010 C 
ATOM     11  C   LIG    1        0.742  -0.511   1.242  0.00  0.00    +0.010 C 
ATOM     12  C   LIG    1        0.002  -0.004   0.002  0.00  0.00    +0.000 C 
ATOM     13  C   LIG    1       -0.019   1.526   0.010  0.00  0.00    +0.000 C 
ATOM     14  C   LIG    1        1.417   2.055  -0.000  0.00  0.00    +0.000 C 
ATOM     15  C   LIG    1        2.157   1.548   1.239  0.00  0.00    +0.030 C 
ENDBRANCH   9  10
BRANCH   9  17
ATOM     16  N   LIG    1        1.697   0.353   4.616  0.00  0.00    -0.420 NA
ATOM     17  C   LIG    1        2.228  -0.013   3.681  0.00  0.00    +0.220 C 
ENDBRANCH   9  17
ENDBRANCH   1   9
BRANCH   6  18
ATOM     18  C   LIG    1        9.017  -0.656   1.019  0.00  0.00    +0.320 C 
BRANCH  18  19
ATOM     19  N   LIG    1       10.370  -1.175   1.236  0.00  0.00    -0.480 N 
ATOM     20  C   LIG    1       11.408  -0.309   1.365  0.00  0.00    +0.300 A 
ATOM     21  C   LIG    1       12.666  -0.764   1.571  0.00  0.00    -0.080 A 
ATOM     22  C   LIG    1       12.908  -2.143   1.642  0.00  0.00    +0.130 A 
ATOM     23  C   LIG    1       11.865  -3.011   1.506  0.00  0.00    -0.090 A 
ATOM     24  C   LIG    1       10.571  -2.505   1.299  0.00  0.00    +0.520 A 
ATOM     25  O   LIG    1        9.629  -3.270   1.176  0.00  0.00    -0.550 OA
ENDBRANCH  18  19
ENDBRANCH   6  18
TORSDOF 5
