REMARK  Name = ZINCrD00000l1Z0x.0
REMARK                            x       y       z     vdW  Elec       q    Type
REMARK                         _______ _______ _______ _____ _____    ______ ____
ROOT
ATOM      1  C   LIG    1       -3.744   2.081   0.031  0.00  0.00    +0.370 C 
ENDROOT
BRANCH   1   2
ATOM      2  C   LIG    1       -4.810   1.201   0.632  0.00  0.00    +0.280 A 
ATOM      3  N   LIG    1       -6.072   1.505   0.708  0.00  0.00    -0.470 NA
ATOM      4  C   LIG    1       -6.752   0.490   1.301  0.00  0.00    +0.050 A 
ATOM      5  C   LIG    1       -8.096   0.291   1.624  0.00  0.00    +0.070 A 
ATOM      6  C   LIG    1       -8.483  -0.866   2.241  0.00  0.00    +0.000 A 
ATOM      7  C   LIG    1       -7.554  -1.848   2.551  0.00  0.00    +0.030 A 
ATOM      8  C   LIG    1       -6.222  -1.672   2.242  0.00  0.00    +0.010 A 
ATOM      9  C   LIG    1       -5.810  -0.504   1.615  0.00  0.00    +0.050 A 
ATOM     10  N   LIG    1       -4.591  -0.025   1.179  0.00  0.00    -0.600 N 
ATOM     11  H   LIG    1       -3.736  -0.479   1.250  0.00  0.00    +0.420 HD
ENDBRANCH   1   2
BRANCH   1  13
ATOM     12  C   LIG    1       -1.308   2.051   0.019  0.00  0.00    +0.580 C 
ATOM     13  N   LIG    1       -2.467   1.363   0.021  0.00  0.00    -0.720 N 
ATOM     14  H   LIG    1       -2.455   0.394   0.016  0.00  0.00    +0.410 HD
ATOM     15  O   LIG    1       -1.322   3.266   0.026  0.00  0.00    -0.490 OA
BRANCH  12  20
ATOM     16  C   LIG    1        3.659  -0.676  -0.036  0.00  0.00    +0.160 C 
ATOM     17  C   LIG    1        2.346   0.063  -0.020  0.00  0.00    +0.110 A 
ATOM     18  C   LIG    1        1.153  -0.646  -0.012  0.00  0.00    +0.230 A 
ATOM     19  N   LIG    1        0.002  -0.004   0.002  0.00  0.00    -0.410 NA
ATOM     20  C   LIG    1       -0.016   1.326   0.009  0.00  0.00    +0.020 A 
ATOM     21  C   LIG    1        1.184   2.035   0.002  0.00  0.00    +0.300 A 
ATOM     22  N   LIG    1        2.333   1.384  -0.012  0.00  0.00    -0.440 NA
ENDBRANCH  12  20
ENDBRANCH   1  13
BRANCH   1  23
ATOM     23  C   LIG    1       -4.134   2.448  -1.402  0.00  0.00    +0.100 C 
BRANCH  23  24
ATOM     24  C   LIG    1       -3.132   3.425  -1.960  0.00  0.00    -0.070 A 
ATOM     25  C   LIG    1       -3.334   4.785  -1.809  0.00  0.00    +0.020 A 
ATOM     26  C   LIG    1       -2.413   5.681  -2.317  0.00  0.00    +0.010 A 
ATOM     27  C   LIG    1       -1.295   5.219  -2.986  0.00  0.00    +0.000 A 
ATOM     28  C   LIG    1       -1.095   3.860  -3.142  0.00  0.00    -0.010 A 
ATOM     29  C   LIG    1       -2.014   2.963  -2.629  0.00  0.00    +0.000 A 
ENDBRANCH  23  24
ENDBRANCH   1  23
TORSDOF 5
