REMARK  Name = ZINCrD0000074HzW.0
REMARK                            x       y       z     vdW  Elec       q    Type
REMARK                         _______ _______ _______ _____ _____    ______ ____
ROOT
ATOM      1  C   LIG    1       -4.235  -0.344   1.067  0.00  0.00    +0.250 C 
ATOM      2  C   LIG    1       -4.716   0.344   2.362  0.00  0.00    +0.050 C 
ATOM      3  C   LIG    1       -5.480  -0.790   3.095  0.00  0.00    +0.040 C 
ATOM      4  C   LIG    1       -4.632  -2.030   2.717  0.00  0.00    +0.250 C 
ATOM      5  N   LIG    1       -4.214  -1.791   1.324  0.00  0.00    -0.620 N 
ATOM      6  C   LIG    1       -3.869  -2.742   0.433  0.00  0.00    +0.730 C 
ATOM      7  N   LIG    1       -3.890  -4.041   0.792  0.00  0.00    -0.740 N 
ATOM      8  H   LIG    1       -4.154  -4.292   1.691  0.00  0.00    +0.390 HD
ATOM      9  O   LIG    1       -3.538  -2.428  -0.694  0.00  0.00    -0.570 OA
ENDROOT
BRANCH   7  10
ATOM     10  C   LIG    1       -3.514  -5.074  -0.176  0.00  0.00    +0.250 C 
ATOM     11  C   LIG    1       -4.731  -5.441  -1.028  0.00  0.00    +0.000 C 
ATOM     12  C   LIG    1       -4.339  -6.520  -2.039  0.00  0.00    +0.010 C 
ATOM     13  C   LIG    1       -3.845  -7.762  -1.294  0.00  0.00    +0.000 C 
ATOM     14  C   LIG    1       -2.628  -7.395  -0.443  0.00  0.00    +0.020 C 
ATOM     15  C   LIG    1       -3.020  -6.316   0.569  0.00  0.00    +0.010 C 
ENDBRANCH   7  10
BRANCH   1  18
ATOM     16  N   LIG    1       -2.636   1.437   0.442  0.00  0.00    -0.670 N 
ATOM     17  H   LIG    1       -3.383   2.054   0.405  0.00  0.00    +0.420 HD
ATOM     18  C   LIG    1       -2.849   0.135   0.717  0.00  0.00    +0.510 C 
ATOM     19  O   LIG    1       -1.927  -0.651   0.683  0.00  0.00    -0.490 OA
BRANCH  16  24
ATOM     20  C   LIG    1        2.640   3.304  -0.489  0.00  0.00    +0.120 C 
ATOM     21  C   LIG    1        1.238   2.809  -0.244  0.00  0.00    -0.040 A 
ATOM     22  C   LIG    1        0.325   3.617   0.408  0.00  0.00    +0.050 A 
ATOM     23  C   LIG    1       -0.961   3.167   0.634  0.00  0.00    +0.050 A 
ATOM     24  C   LIG    1       -1.336   1.899   0.210  0.00  0.00    +0.150 A 
ATOM     25  C   LIG    1       -0.418   1.092  -0.451  0.00  0.00    +0.100 A 
ATOM     26  C   LIG    1        0.866   1.548  -0.673  0.00  0.00    -0.020 A 
BRANCH  26  27
ATOM     27  N   LIG    1        1.846   0.686  -1.372  0.00  0.00    +0.020 N 
ATOM     28  O   LIG    1        3.011   0.678  -1.017  0.00  0.00    -0.150 OA
ATOM     29  O   LIG    1        1.487  -0.015  -2.301  0.00  0.00    -0.150 OA
ENDBRANCH  26  27
ENDBRANCH  16  24
ENDBRANCH   1  18
TORSDOF 4
