REMARK  Name = ZINCvU00000009li.0
REMARK                            x       y       z     vdW  Elec       q    Type
REMARK                         _______ _______ _______ _____ _____    ______ ____
ROOT
ATOM      1  C   LIG    1        5.104 -11.612   6.147  0.00  0.00    +0.180 C 
ATOM      2  C   LIG    1        5.326 -10.133   5.959  0.00  0.00    +0.160 A 
ATOM      3  C   LIG    1        6.510  -9.601   6.360  0.00  0.00    -0.250 A 
ATOM      4  C   LIG    1        6.727  -8.155   6.154  0.00  0.00    +0.430 A 
ATOM      5  C   LIG    1        5.758  -7.480   5.270  0.00  0.00    -0.250 A 
ATOM      6  C   LIG    1        5.991  -6.195   4.783  0.00  0.00    +0.160 A 
ATOM      7  C   LIG    1        5.077  -5.609   3.954  0.00  0.00    -0.090 A 
ATOM      8  C   LIG    1        3.916  -6.290   3.596  0.00  0.00    +0.190 A 
ATOM      9  C   LIG    1        3.667  -7.564   4.080  0.00  0.00    -0.010 A 
ATOM     10  C   LIG    1        4.586  -8.176   4.922  0.00  0.00    +0.180 A 
ATOM     11  O   LIG    1        7.649  -7.557   6.682  0.00  0.00    -0.450 OA
ATOM     12  O   LIG    1        4.352  -9.409   5.407  0.00  0.00    -0.210 OA
ENDROOT
BRANCH   3  13
ATOM     13  C   LIG    1        7.554 -10.447   6.986  0.00  0.00    -0.020 A 
ATOM     14  C   LIG    1        7.321 -11.046   8.223  0.00  0.00    +0.010 A 
ATOM     15  C   LIG    1        8.294 -11.838   8.798  0.00  0.00    +0.010 A 
ATOM     16  C   LIG    1        9.504 -12.028   8.155  0.00  0.00    +0.000 A 
ATOM     17  C   LIG    1        9.743 -11.432   6.930  0.00  0.00    +0.000 A 
ATOM     18  C   LIG    1        8.775 -10.643   6.343  0.00  0.00    +0.020 A 
ENDBRANCH   3  13
BRANCH   8  19
ATOM     19  O   LIG    1        3.017  -5.698   2.769  0.00  0.00    -0.280 OA
BRANCH  19  20
ATOM     20  C   LIG    1        3.328  -4.381   2.309  0.00  0.00    +0.240 C 
BRANCH  20  21
ATOM     21  C   LIG    1        2.224  -3.890   1.409  0.00  0.00    +0.520 C 
ATOM     22  N   LIG    1        2.302  -2.664   0.855  0.00  0.00    -0.720 N 
ATOM     23  H   LIG    1        3.069  -2.098   1.035  0.00  0.00    +0.400 HD
ATOM     24  O   LIG    1        1.265  -4.597   1.184  0.00  0.00    -0.510 OA
BRANCH  22  25
ATOM     25  C   LIG    1        1.229  -2.186  -0.021  0.00  0.00    +0.290 C 
ATOM     26  C   LIG    1        1.472  -2.686  -1.446  0.00  0.00    +0.040 C 
BRANCH  25  27
ATOM     27  C   LIG    1        1.208  -0.679  -0.013  0.00  0.00    -0.100 A 
ATOM     28  C   LIG    1        0.002  -0.004   0.002  0.00  0.00    +0.020 A 
ATOM     29  C   LIG    1       -0.017   1.378   0.010  0.00  0.00    +0.020 A 
ATOM     30  C   LIG    1        1.171   2.086   0.002  0.00  0.00    +0.000 A 
ATOM     31  C   LIG    1        2.377   1.411  -0.015  0.00  0.00    +0.000 A 
ATOM     32  C   LIG    1        2.396   0.029  -0.021  0.00  0.00    +0.000 A 
ENDBRANCH  25  27
ENDBRANCH  22  25
ENDBRANCH  20  21
ENDBRANCH  19  20
ENDBRANCH   8  19
TORSDOF 6
