REMARK  Name = ZINCrD0000073mL7.0
REMARK                            x       y       z     vdW  Elec       q    Type
REMARK                         _______ _______ _______ _____ _____    ______ ____
ROOT
ATOM      1  C   LIG    1        0.009  -0.017   0.084  0.00  0.00    +0.550 C 
ATOM      2  O   LIG    1        1.065  -0.616   0.129  0.00  0.00    -0.510 OA
ENDROOT
BRANCH   1   3
ATOM      3  C   LIG    1       -1.260  -0.763   0.046  0.00  0.00    -0.280 A 
ATOM      4  C   LIG    1       -1.404  -2.137   0.055  0.00  0.00    +0.180 A 
ATOM      5  N   LIG    1       -2.722  -2.403   0.011  0.00  0.00    -0.310 N 
ATOM      6  N   LIG    1       -3.418  -1.190  -0.028  0.00  0.00    -0.290 NA
ATOM      7  C   LIG    1       -0.290  -3.151   0.106  0.00  0.00    +0.180 C 
ATOM      8  C   LIG    1       -2.560  -0.208  -0.001  0.00  0.00    +0.320 A 
BRANCH   5   9
ATOM      9  C   LIG    1       -3.300  -3.680   0.004  0.00  0.00    +0.140 A 
ATOM     10  C   LIG    1       -4.370  -3.954  -0.838  0.00  0.00    +0.040 A 
ATOM     11  C   LIG    1       -4.933  -5.215  -0.847  0.00  0.00    +0.040 A 
ATOM     12  C   LIG    1       -4.441  -6.201  -0.011  0.00  0.00    +0.020 A 
ATOM     13  C   LIG    1       -3.379  -5.928   0.832  0.00  0.00    +0.040 A 
ATOM     14  C   LIG    1       -2.807  -4.671   0.842  0.00  0.00    +0.010 A 
ENDBRANCH   5   9
ENDBRANCH   1   3
BRANCH   1  15
ATOM     15  O   LIG    1       -0.002   1.331   0.069  0.00  0.00    -0.330 OA
BRANCH  15  16
ATOM     16  C   LIG    1        1.286   2.000   0.108  0.00  0.00    +0.240 C 
BRANCH  16  17
ATOM     17  C   LIG    1        1.077   3.493   0.084  0.00  0.00    +0.400 C 
ATOM     18  O   LIG    1       -0.046   3.947   0.038  0.00  0.00    -0.420 OA
BRANCH  17  22
ATOM     19  C   LIG    1        4.417   6.105   0.178  0.00  0.00    +0.130 A 
ATOM     20  C   LIG    1        3.130   6.627   0.125  0.00  0.00    -0.050 A 
ATOM     21  C   LIG    1        2.043   5.783   0.094  0.00  0.00    +0.130 A 
ATOM     22  C   LIG    1        2.235   4.396   0.116  0.00  0.00    -0.180 A 
ATOM     23  C   LIG    1        3.533   3.874   0.175  0.00  0.00    +0.080 A 
ATOM     24  C   LIG    1        4.615   4.726   0.200  0.00  0.00    +0.060 A 
ATOM     25  F   LIG    1        5.868   4.225   0.252  0.00  0.00    -0.130 F 
BRANCH  19  27
ATOM     26  C   LIG    1        5.212   8.344   0.182  0.00  0.00    +0.250 C 
ATOM     27  O   LIG    1        5.486   6.942   0.207  0.00  0.00    -0.300 OA
ENDBRANCH  19  27
ENDBRANCH  17  22
ENDBRANCH  16  17
ENDBRANCH  15  16
ENDBRANCH   1  15
TORSDOF 7
