REMARK  Name = ZINCpk00000xQYbv.2
REMARK                            x       y       z     vdW  Elec       q    Type
REMARK                         _______ _______ _______ _____ _____    ______ ____
ROOT
ATOM      1  N   LIG    1        0.116  -0.485  -1.381  0.00  0.00    -0.520 NA
ATOM      2  C   LIG    1        1.415  -0.114  -1.962  0.00  0.00    +0.180 C 
ATOM      3  C   LIG    1        1.468  -0.581  -3.420  0.00  0.00    +0.210 C 
ATOM      4  O   LIG    1        1.234  -1.991  -3.472  0.00  0.00    -0.370 OA
ATOM      5  C   LIG    1       -0.023  -2.387  -2.915  0.00  0.00    +0.240 C 
ATOM      6  C   LIG    1       -0.091  -1.938  -1.453  0.00  0.00    +0.070 C 
ATOM      7  C   LIG    1       -1.463  -2.288  -0.875  0.00  0.00    +0.050 C 
ATOM      8  C   LIG    1        1.000  -2.650  -0.649  0.00  0.00    +0.000 C 
ENDROOT
BRANCH   3   9
ATOM      9  C   LIG    1        2.825  -0.273  -3.998  0.00  0.00    -0.080 A 
ATOM     10  C   LIG    1        3.872  -1.156  -3.810  0.00  0.00    +0.040 A 
ATOM     11  C   LIG    1        5.116  -0.876  -4.345  0.00  0.00    +0.000 A 
ATOM     12  C   LIG    1        5.316   0.291  -5.057  0.00  0.00    +0.000 A 
ATOM     13  C   LIG    1        4.270   1.177  -5.240  0.00  0.00    +0.000 A 
ATOM     14  C   LIG    1        3.025   0.894  -4.710  0.00  0.00    +0.010 A 
ENDBRANCH   3   9
BRANCH   1  15
ATOM     15  C   LIG    1        0.002  -0.004   0.002  0.00  0.00    +0.270 C 
BRANCH  15  19
ATOM     16  C   LIG    1       -2.465   4.264   0.048  0.00  0.00    +0.340 C 
ATOM     17  N   LIG    1       -1.192   3.539   0.032  0.00  0.00    -0.540 N 
ATOM     18  C   LIG    1       -1.192   2.171   0.019  0.00  0.00    +0.370 A 
ATOM     19  C   LIG    1       -0.018   1.503   0.010  0.00  0.00    -0.260 A 
ATOM     20  C   LIG    1        1.192   2.237   0.003  0.00  0.00    +0.550 A 
ATOM     21  N   LIG    1        1.149   3.584   0.010  0.00  0.00    -0.560 N 
ATOM     22  C   LIG    1        2.396   4.354   0.003  0.00  0.00    +0.330 C 
ATOM     23  O   LIG    1        2.263   1.656  -0.011  0.00  0.00    -0.510 OA
ATOM     24  C   LIG    1       -0.035   4.225   0.025  0.00  0.00    +0.690 A 
ATOM     25  O   LIG    1       -0.058   5.441   0.031  0.00  0.00    -0.540 OA
ENDBRANCH  15  19
ENDBRANCH   1  15
TORSDOF 3
