REMARK  Name = ZINCvU00000007KQ.0
REMARK                            x       y       z     vdW  Elec       q    Type
REMARK                         _______ _______ _______ _____ _____    ______ ____
ROOT
ATOM      1  C   LIG    1        8.387   2.005  -2.245  0.00  0.00    +0.110 A 
ATOM      2  C   LIG    1        8.459   2.389  -0.918  0.00  0.00    -0.040 A 
ATOM      3  C   LIG    1        7.491   1.976  -0.014  0.00  0.00    -0.060 A 
ATOM      4  C   LIG    1        6.450   1.177  -0.437  0.00  0.00    -0.070 A 
ATOM      5  C   LIG    1        5.379   0.701   0.509  0.00  0.00    +0.290 C 
ATOM      6  N   LIG    1        5.376   1.511   1.731  0.00  0.00    -0.500 NA
ATOM      7  C   LIG    1        6.726   1.556   2.315  0.00  0.00    +0.200 C 
ATOM      8  C   LIG    1        6.373   0.790  -1.768  0.00  0.00    -0.030 A 
ATOM      9  C   LIG    1        7.612   2.423   1.420  0.00  0.00    +0.090 C 
ATOM     10  C   LIG    1        7.335   1.200  -2.673  0.00  0.00    +0.100 A 
ENDROOT
BRANCH   5  11
ATOM     11  C   LIG    1        4.035   0.812  -0.165  0.00  0.00    -0.170 A 
ATOM     12  C   LIG    1        3.383  -0.194  -0.750  0.00  0.00    -0.010 A 
ATOM     13  C   LIG    1        2.161   0.147  -1.303  0.00  0.00    +0.000 A 
ATOM     14  C   LIG    1        1.821   1.430  -1.167  0.00  0.00    -0.060 A 
ATOM     15  S   LIG    1        3.087   2.287  -0.299  0.00  0.00    +0.150 S 
ENDBRANCH   5  11
BRANCH   1  17
ATOM     16  C   LIG    1       10.387   3.237  -2.615  0.00  0.00    +0.240 C 
ATOM     17  O   LIG    1        9.338   2.413  -3.127  0.00  0.00    -0.310 OA
ENDBRANCH   1  17
BRANCH  10  18
ATOM     18  O   LIG    1        7.254   0.818  -3.976  0.00  0.00    -0.310 OA
ATOM     19  C   LIG    1        6.146  -0.008  -4.342  0.00  0.00    +0.230 C 
ENDBRANCH  10  18
BRANCH   6  20
ATOM     20  C   LIG    1        4.400   0.996   2.701  0.00  0.00    +0.260 C 
BRANCH  20  21
ATOM     21  C   LIG    1        4.802  -0.391   3.131  0.00  0.00    +0.480 C 
ATOM     22  N   LIG    1        4.004  -1.099   3.955  0.00  0.00    -0.670 N 
ATOM     23  H   LIG    1        3.135  -0.750   4.207  0.00  0.00    +0.410 HD
ATOM     24  O   LIG    1        5.843  -0.871   2.735  0.00  0.00    -0.500 OA
BRANCH  22  25
ATOM     25  C   LIG    1        4.430  -2.339   4.447  0.00  0.00    +0.160 A 
ATOM     26  C   LIG    1        4.884  -3.317   3.571  0.00  0.00    -0.020 A 
ATOM     27  C   LIG    1        5.308  -4.538   4.061  0.00  0.00    +0.040 A 
ATOM     28  C   LIG    1        5.271  -4.790   5.420  0.00  0.00    +0.050 A 
ATOM     29  C   LIG    1        4.815  -3.821   6.294  0.00  0.00    +0.050 A 
ATOM     30 CL   LIG    1        4.924  -3.004   1.864  0.00  0.00    -0.030 Cl
ATOM     31  C   LIG    1        4.394  -2.596   5.812  0.00  0.00    -0.040 A 
ATOM     32 CL   LIG    1        3.823  -1.379   6.910  0.00  0.00    -0.050 Cl
ENDBRANCH  22  25
ENDBRANCH  20  21
ENDBRANCH   6  20
TORSDOF 6
