REMARK  Name = ZINCpe00000VUMjO.0
REMARK                            x       y       z     vdW  Elec       q    Type
REMARK                         _______ _______ _______ _____ _____    ______ ____
ROOT
ATOM      1  C   LIG    1       -0.062   1.214   0.399  0.00  0.00    +0.500 C 
ATOM      2  N   LIG    1       -1.230   1.867   0.239  0.00  0.00    -0.610 N 
ATOM      3  C   LIG    1       -1.299   3.326   0.397  0.00  0.00    +0.280 C 
ATOM      4  C   LIG    1       -2.391   3.666   1.410  0.00  0.00    -0.010 C 
ATOM      5  C   LIG    1       -3.707   3.018   0.974  0.00  0.00    +0.050 C 
ATOM      6  C   LIG    1       -3.540   1.497   0.933  0.00  0.00    +0.030 C 
ATOM      7  C   LIG    1       -2.459   1.133  -0.090  0.00  0.00    +0.230 C 
ATOM      8  C   LIG    1       -2.188  -0.371  -0.037  0.00  0.00    +0.050 C 
ATOM      9  O   LIG    1       -0.035   0.002   0.362  0.00  0.00    -0.510 OA
ENDROOT
BRANCH   4  10
ATOM     10  C   LIG    1       -1.997   3.140   2.766  0.00  0.00    +0.520 C 
ATOM     11  O   LIG    1       -2.699   2.327   3.329  0.00  0.00    -0.530 OA
ATOM     12  N   LIG    1       -0.864   3.574   3.353  0.00  0.00    -0.850 N 
ATOM     13  H   LIG    1       -0.610   3.236   4.226  0.00  0.00    +0.410 HD
ATOM     14  H   LIG    1       -0.303   4.224   2.903  0.00  0.00    +0.400 HD
ENDBRANCH   4  10
BRANCH   1  15
ATOM     15  C   LIG    1        1.212   1.989   0.618  0.00  0.00    +0.320 C 
BRANCH  15  24
ATOM     16  C   LIG    1        6.260  -1.957  -0.365  0.00  0.00    +0.110 C 
ATOM     17  C   LIG    1        5.544  -1.573   0.904  0.00  0.00    -0.070 A 
ATOM     18  C   LIG    1        5.952  -2.093   2.112  0.00  0.00    +0.060 A 
ATOM     19  C   LIG    1        5.302  -1.748   3.290  0.00  0.00    +0.000 A 
ATOM     20  C   LIG    1        4.234  -0.879   3.273  0.00  0.00    +0.090 A 
ATOM     21  C   LIG    1        3.805  -0.342   2.061  0.00  0.00    -0.190 A 
ATOM     22  C   LIG    1        2.675   0.595   1.981  0.00  0.00    +0.550 A 
ATOM     23  O   LIG    1        2.067   0.940   2.978  0.00  0.00    -0.510 OA
ATOM     24  N   LIG    1        2.333   1.057   0.755  0.00  0.00    -0.530 N 
ATOM     25  C   LIG    1        3.025   0.668  -0.347  0.00  0.00    +0.580 A 
ATOM     26  N   LIG    1        4.029  -0.154  -0.308  0.00  0.00    -0.510 NA
ATOM     27  C   LIG    1        4.464  -0.689   0.860  0.00  0.00    +0.150 A 
ENDBRANCH  15  24
ENDBRANCH   1  15
TORSDOF 3
