REMARK  Name = ZINCpk00000l7jZa.0
REMARK                            x       y       z     vdW  Elec       q    Type
REMARK                         _______ _______ _______ _____ _____    ______ ____
ROOT
ATOM      1  O   LIG    1        4.132   6.233   1.381  0.00  0.00    -0.520 OA
ATOM      2  C   LIG    1        5.079   5.473   1.420  0.00  0.00    +0.570 C 
ATOM      3  N   LIG    1        6.323   5.956   1.611  0.00  0.00    -0.590 N 
ATOM      4  C   LIG    1        7.482   5.054   1.688  0.00  0.00    +0.280 C 
ATOM      5  C   LIG    1        8.285   5.396   2.943  0.00  0.00    +0.200 C 
ATOM      6  O   LIG    1        8.570   6.797   2.954  0.00  0.00    -0.360 OA
ATOM      7  C   LIG    1        7.410   7.629   3.010  0.00  0.00    +0.070 C 
ATOM      8  C   LIG    1        6.587   7.278   4.252  0.00  0.00    +0.000 C 
ATOM      9  C   LIG    1        7.417   7.583   5.503  0.00  0.00    +0.000 C 
ATOM     10  C   LIG    1        7.840   9.054   5.479  0.00  0.00    +0.210 C 
ATOM     11  O   LIG    1        8.575   9.319   4.282  0.00  0.00    -0.370 OA
ATOM     12  C   LIG    1        7.834   9.097   3.081  0.00  0.00    +0.260 C 
ATOM     13  C   LIG    1        6.560   7.402   1.755  0.00  0.00    +0.270 C 
ENDROOT
BRANCH   2  14
ATOM     14  C   LIG    1        4.867   4.013   1.256  0.00  0.00    +0.150 A 
ATOM     15  C   LIG    1        3.582   3.482   1.261  0.00  0.00    -0.020 A 
ATOM     16  C   LIG    1        3.438   2.099   1.109  0.00  0.00    +0.370 A 
ATOM     17  N   LIG    1        4.526   1.352   0.957  0.00  0.00    -0.540 NA
ATOM     18  C   LIG    1        5.727   1.897   0.953  0.00  0.00    +0.530 A 
ATOM     19  N   LIG    1        5.905   3.192   1.098  0.00  0.00    -0.520 NA
BRANCH  16  20
ATOM     20  N   LIG    1        2.181   1.518   1.113  0.00  0.00    -0.470 N 
ATOM     21  C   LIG    1        1.318   2.125   0.092  0.00  0.00    +0.200 C 
ATOM     22  C   LIG    1       -0.100   1.563   0.220  0.00  0.00    +0.040 C 
ATOM     23  C   LIG    1       -0.059   0.043   0.043  0.00  0.00    +0.000 C 
ATOM     24  C   LIG    1        0.884  -0.560   1.087  0.00  0.00    +0.030 C 
ATOM     25  C   LIG    1        2.273   0.063   0.933  0.00  0.00    +0.210 C 
ENDBRANCH  16  20
ENDBRANCH   2  14
TORSDOF 2
