REMARK  Name = ZINCkj000005jU85.0
REMARK                            x       y       z     vdW  Elec       q    Type
REMARK                         _______ _______ _______ _____ _____    ______ ____
ROOT
ATOM      1  C   LIG    1        1.441   2.298   2.136  0.00  0.00    -0.040 A 
ATOM      2  C   LIG    1        2.034   3.317   1.447  0.00  0.00    +0.000 A 
ATOM      3  C   LIG    1        3.492   3.404   1.406  0.00  0.00    +0.530 A 
ATOM      4  N   LIG    1        4.258   2.490   2.027  0.00  0.00    -0.630 N 
ATOM      5  H   LIG    1        5.223   2.569   1.981  0.00  0.00    +0.420 HD
ATOM      6  C   LIG    1        3.698   1.444   2.728  0.00  0.00    +0.190 A 
ATOM      7  C   LIG    1        4.509   0.508   3.364  0.00  0.00    -0.020 A 
ATOM      8  C   LIG    1        3.937  -0.534   4.062  0.00  0.00    +0.090 A 
ATOM      9  C   LIG    1        2.557  -0.660   4.137  0.00  0.00    +0.000 A 
ATOM     10  C   LIG    1        1.742   0.246   3.520  0.00  0.00    +0.070 A 
ATOM     11  O   LIG    1        4.022   4.316   0.796  0.00  0.00    -0.510 OA
ATOM     12  C   LIG    1        2.300   1.311   2.807  0.00  0.00    -0.120 A 
ENDROOT
BRANCH   1  19
ATOM     13  C   LIG    1       -4.319   1.655   0.002  0.00  0.00    +0.110 C 
ATOM     14  C   LIG    1       -2.827   1.995   0.004  0.00  0.00    +0.150 C 
ATOM     15  C   LIG    1       -2.172   1.408   1.258  0.00  0.00    +0.330 C 
ATOM     16  N   LIG    1       -0.716   1.633   1.177  0.00  0.00    -0.630 N 
ATOM     17  C   LIG    1       -0.028   1.238  -0.062  0.00  0.00    +0.310 C 
ATOM     18  C   LIG    1       -0.785   1.833  -1.254  0.00  0.00    +0.270 C 
ATOM     19  C   LIG    1       -0.036   2.186   2.201  0.00  0.00    +0.580 C 
ATOM     20  O   LIG    1       -0.634   2.592   3.177  0.00  0.00    -0.480 OA
ATOM     21  N   LIG    1       -2.194   1.424  -1.191  0.00  0.00    -0.500 N 
ATOM     22  H   LIG    1       -2.249   0.417  -1.151  0.00  0.00    +0.430 HD
ATOM     23  H   LIG    1       -2.675   1.752  -2.015  0.00  0.00    +0.440 HD
ENDBRANCH   1  19
TORSDOF 1
