REMARK  Name = ZINCrD0000075OXe.0
REMARK                            x       y       z     vdW  Elec       q    Type
REMARK                         _______ _______ _______ _____ _____    ______ ____
ROOT
ATOM      1  O   LIG    1       -0.865   8.627  -2.598  0.00  0.00    -0.330 OA
ENDROOT
BRANCH   1   3
ATOM      2  O   LIG    1        1.235   8.984  -3.224  0.00  0.00    -0.500 OA
ATOM      3  C   LIG    1        0.064   9.296  -3.309  0.00  0.00    +0.520 C 
BRANCH   3   4
ATOM      4  C   LIG    1       -0.341  10.407  -4.191  0.00  0.00    -0.150 A 
ATOM      5  C   LIG    1       -1.689  10.763  -4.294  0.00  0.00    +0.140 A 
ATOM      6  C   LIG    1       -2.063  11.804  -5.114  0.00  0.00    -0.070 A 
ATOM      7  C   LIG    1       -1.103  12.494  -5.846  0.00  0.00    +0.150 A 
ATOM      8  C   LIG    1        0.238  12.139  -5.751  0.00  0.00    +0.010 A 
ATOM      9  C   LIG    1        0.620  11.102  -4.929  0.00  0.00    +0.150 A 
BRANCH   7  10
ATOM     10  O   LIG    1       -1.476  13.516  -6.657  0.00  0.00    -0.310 OA
BRANCH  10  11
ATOM     11  C   LIG    1       -2.870  13.828  -6.708  0.00  0.00    +0.600 C 
ATOM     12  F   LIG    1       -3.581  12.711  -7.160  0.00  0.00    -0.160 F 
ATOM     13  F   LIG    1       -3.076  14.898  -7.586  0.00  0.00    -0.130 F 
ATOM     14  F   LIG    1       -3.316  14.180  -5.430  0.00  0.00    -0.160 F 
ENDBRANCH  10  11
ENDBRANCH   7  10
ENDBRANCH   3   4
ENDBRANCH   1   3
BRANCH   1  15
ATOM     15  C   LIG    1       -0.393   7.545  -1.752  0.00  0.00    +0.270 C 
BRANCH  15  16
ATOM     16  C   LIG    1       -1.564   6.918  -1.040  0.00  0.00    +0.520 C 
ATOM     17  N   LIG    1       -1.365   5.887  -0.195  0.00  0.00    -0.610 N 
ATOM     18  C   LIG    1       -2.488   5.253   0.516  0.00  0.00    +0.290 C 
ATOM     19  C   LIG    1       -2.596   3.808   0.029  0.00  0.00    +0.070 C 
ATOM     20  C   LIG    1       -1.246   3.140   0.029  0.00  0.00    -0.070 A 
ATOM     21  C   LIG    1       -1.216   1.751   0.017  0.00  0.00    +0.000 A 
ATOM     22  C   LIG    1       -0.013   1.076   0.008  0.00  0.00    +0.010 A 
ATOM     23  C   LIG    1        1.174   1.785   0.000  0.00  0.00    +0.010 A 
ATOM     24  C   LIG    1        1.146   3.165   0.012  0.00  0.00    +0.020 A 
ATOM     25  C   LIG    1       -0.063   3.845   0.028  0.00  0.00    -0.100 A 
ATOM     26  C   LIG    1       -0.022   5.352   0.054  0.00  0.00    +0.330 C 
ATOM     27  O   LIG    1       -2.685   7.341  -1.227  0.00  0.00    -0.510 OA
ENDBRANCH  15  16
ENDBRANCH   1  15
TORSDOF 6
