REMARK  Name = ZINCrD0000071T0L.0
REMARK                            x       y       z     vdW  Elec       q    Type
REMARK                         _______ _______ _______ _____ _____    ______ ____
ROOT
ATOM      1  C   LIG    1        2.776  -3.624  -0.045  0.00  0.00    -0.070 A 
ATOM      2  C   LIG    1        1.990  -2.482  -0.044  0.00  0.00    +0.070 A 
ATOM      3  C   LIG    1        2.608  -1.218  -0.043  0.00  0.00    +0.230 A 
ATOM      4  N   LIG    1        3.919  -1.077  -0.048  0.00  0.00    -0.440 NA
ATOM      5  C   LIG    1        4.749  -2.122  -0.043  0.00  0.00    +0.130 A 
ATOM      6  C   LIG    1        6.144  -1.940  -0.043  0.00  0.00    +0.050 A 
ATOM      7  C   LIG    1        6.966  -3.025  -0.043  0.00  0.00    +0.040 A 
ATOM      8  C   LIG    1        6.450  -4.318  -0.045  0.00  0.00    +0.030 A 
ATOM      9  C   LIG    1        5.103  -4.533  -0.046  0.00  0.00    +0.050 A 
ATOM     10  C   LIG    1        4.229  -3.441  -0.045  0.00  0.00    -0.060 A 
ENDROOT
BRANCH   3  11
ATOM     11  C   LIG    1        1.761  -0.011  -0.043  0.00  0.00    -0.170 A 
ATOM     12  C   LIG    1        2.215   1.260  -0.041  0.00  0.00    +0.070 A 
ATOM     13  C   LIG    1        1.231   2.224  -0.042  0.00  0.00    +0.010 A 
ATOM     14  C   LIG    1       -0.022   1.754  -0.043  0.00  0.00    -0.030 A 
ATOM     15  S   LIG    1        0.002  -0.004  -0.044  0.00  0.00    +0.150 S 
ENDBRANCH   3  11
BRANCH   1  16
ATOM     16  C   LIG    1        2.172  -4.973  -0.046  0.00  0.00    +0.520 C 
ATOM     17  O   LIG    1        2.879  -5.955  -0.151  0.00  0.00    -0.480 OA
BRANCH  16  18
ATOM     18  O   LIG    1        0.837  -5.113   0.069  0.00  0.00    -0.330 OA
BRANCH  18  19
ATOM     19  C   LIG    1        0.313  -6.467   0.060  0.00  0.00    +0.300 C 
BRANCH  19  23
ATOM     20  C   LIG    1       -3.235  -7.537   0.337  0.00  0.00    +0.650 C 
ATOM     21  N   LIG    1       -1.894  -7.574   0.214  0.00  0.00    -0.660 N 
ATOM     22  H   LIG    1       -1.437  -8.426   0.138  0.00  0.00    +0.420 HD
ATOM     23  C   LIG    1       -1.187  -6.426   0.198  0.00  0.00    +0.520 C 
ATOM     24  O   LIG    1       -1.758  -5.361   0.293  0.00  0.00    -0.430 OA
ATOM     25  O   LIG    1       -3.808  -6.470   0.433  0.00  0.00    -0.500 OA
BRANCH  20  26
ATOM     26  O   LIG    1       -3.941  -8.683   0.354  0.00  0.00    -0.360 OA
BRANCH  26  28
ATOM     27  C   LIG    1       -6.008  -9.964   0.488  0.00  0.00    +0.080 C 
ATOM     28  C   LIG    1       -5.382  -8.568   0.489  0.00  0.00    +0.240 C 
ENDBRANCH  26  28
ENDBRANCH  20  26
ENDBRANCH  19  23
ENDBRANCH  18  19
ENDBRANCH  16  18
ENDBRANCH   1  16
TORSDOF 7
