REMARK  Name = ZINCtV00000L6jsY.0
REMARK                            x       y       z     vdW  Elec       q    Type
REMARK                         _______ _______ _______ _____ _____    ______ ____
ROOT
ATOM      1  C   LIG    1       -4.323   4.670   0.912  0.00  0.00    -0.140 A 
ATOM      2  C   LIG    1       -3.172   4.779   0.164  0.00  0.00    +0.430 A 
ATOM      3  N   LIG    1       -2.777   3.786  -0.686  0.00  0.00    -0.400 N 
ATOM      4  C   LIG    1       -1.689   3.663  -1.535  0.00  0.00    +0.020 A 
ATOM      5  C   LIG    1       -0.604   4.476  -1.827  0.00  0.00    +0.050 A 
ATOM      6  C   LIG    1        0.338   4.061  -2.746  0.00  0.00    +0.010 A 
ATOM      7  C   LIG    1        0.208   2.834  -3.381  0.00  0.00    +0.030 A 
ATOM      8  C   LIG    1       -0.862   2.014  -3.105  0.00  0.00    +0.060 A 
ATOM      9  C   LIG    1       -1.829   2.421  -2.180  0.00  0.00    +0.090 A 
ATOM     10  N   LIG    1       -2.966   1.851  -1.716  0.00  0.00    -0.500 NA
ATOM     11  C   LIG    1       -3.539   2.653  -0.837  0.00  0.00    +0.330 A 
ATOM     12  C   LIG    1       -4.769   2.514  -0.050  0.00  0.00    -0.040 A 
ATOM     13  C   LIG    1       -5.131   3.546   0.816  0.00  0.00    +0.050 A 
ATOM     14  C   LIG    1       -6.388   3.441   1.641  0.00  0.00    +0.120 C 
ENDROOT
BRANCH   2  15
ATOM     15  N   LIG    1       -2.397   5.908   0.285  0.00  0.00    -0.670 N 
ATOM     16  C   LIG    1       -2.466   7.091  -0.584  0.00  0.00    +0.240 C 
ATOM     17  C   LIG    1       -1.398   8.088  -0.086  0.00  0.00    +0.030 C 
ATOM     18  C   LIG    1       -0.401   7.175   0.674  0.00  0.00    +0.030 C 
ATOM     19  C   LIG    1       -1.354   6.129   1.304  0.00  0.00    +0.260 C 
ENDBRANCH   2  15
BRANCH  12  20
ATOM     20  C   LIG    1       -5.584   1.342  -0.169  0.00  0.00    +0.270 C 
ATOM     21  N   LIG    1       -6.230   0.413  -0.264  0.00  0.00    -0.400 NA
ENDBRANCH  12  20
BRANCH   1  22
ATOM     22  C   LIG    1       -4.711   5.787   1.847  0.00  0.00    +0.100 C 
BRANCH  22  23
ATOM     23  C   LIG    1       -5.695   6.723   1.143  0.00  0.00    +0.000 C 
BRANCH  23  24
ATOM     24  C   LIG    1       -6.089   7.857   2.092  0.00  0.00    +0.000 C 
BRANCH  24  25
ATOM     25  C   LIG    1       -7.073   8.793   1.388  0.00  0.00    +0.000 C 
BRANCH  25  26
ATOM     26  C   LIG    1       -7.467   9.926   2.337  0.00  0.00    +0.000 C 
BRANCH  26  27
ATOM     27  C   LIG    1       -8.452  10.862   1.633  0.00  0.00    +0.000 C 
BRANCH  27  29
ATOM     28  C   LIG    1       -9.830  12.932   1.878  0.00  0.00    +0.000 C 
ATOM     29  C   LIG    1       -8.845  11.996   2.582  0.00  0.00    -0.010 C 
ENDBRANCH  27  29
ENDBRANCH  26  27
ENDBRANCH  25  26
ENDBRANCH  24  25
ENDBRANCH  23  24
ENDBRANCH  22  23
ENDBRANCH   1  22
TORSDOF 9
