REMARK  Name = ZINCqH0000037yPN.0
REMARK                            x       y       z     vdW  Elec       q    Type
REMARK                         _______ _______ _______ _____ _____    ______ ____
ROOT
ATOM      1  C   LIG    1       -3.037   1.422   0.314  0.00  0.00    +0.070 C 
ATOM      2  C   LIG    1       -3.130  -0.082   0.047  0.00  0.00    +0.030 C 
ATOM      3  C   LIG    1       -4.221  -0.345  -0.996  0.00  0.00    +0.270 C 
ATOM      4  N   LIG    1       -3.938   0.463  -2.190  0.00  0.00    -0.600 N 
ATOM      5  C   LIG    1       -3.740   1.911  -2.033  0.00  0.00    +0.270 C 
ATOM      6  C   LIG    1       -3.861  -0.112  -3.406  0.00  0.00    +0.600 C 
ATOM      7  O   LIG    1       -4.114  -1.294  -3.537  0.00  0.00    -0.530 OA
ATOM      8  C   LIG    1       -2.655   2.148  -0.978  0.00  0.00    +0.020 C 
ENDROOT
BRANCH   1  11
ATOM      9  C   LIG    1       -3.537   2.590   3.146  0.00  0.00    +0.140 C 
ATOM     10  C   LIG    1       -2.195   2.186   2.591  0.00  0.00    +0.080 A 
ATOM     11  C   LIG    1       -1.988   1.681   1.365  0.00  0.00    -0.160 A 
ATOM     12  C   LIG    1       -0.550   1.433   1.240  0.00  0.00    -0.090 A 
ATOM     13  C   LIG    1        0.263   0.928   0.224  0.00  0.00    +0.050 A 
ATOM     14  C   LIG    1        1.610   0.813   0.427  0.00  0.00    -0.030 A 
ATOM     15  C   LIG    1        2.176   1.194   1.635  0.00  0.00    +0.020 A 
ATOM     16  C   LIG    1        1.392   1.695   2.652  0.00  0.00    -0.010 A 
ATOM     17  C   LIG    1        0.019   1.821   2.467  0.00  0.00    +0.100 A 
ATOM     18  N   LIG    1       -1.008   2.274   3.265  0.00  0.00    -0.590 N 
ATOM     19  H   LIG    1       -0.904   2.606   4.171  0.00  0.00    +0.410 HD
ENDBRANCH   1  11
BRANCH   6  20
ATOM     20  C   LIG    1       -3.469   0.693  -4.581  0.00  0.00    +0.020 A 
ATOM     21  N   LIG    1       -3.278   1.997  -4.611  0.00  0.00    -0.250 NA
ATOM     22  N   LIG    1       -2.941   2.366  -5.795  0.00  0.00    -0.370 N 
ATOM     23  H   LIG    1       -2.747   3.280  -6.057  0.00  0.00    +0.440 HD
ATOM     24  C   LIG    1       -2.903   1.298  -6.624  0.00  0.00    -0.010 A 
ATOM     25  C   LIG    1       -2.626   0.894  -8.055  0.00  0.00    +0.130 C 
ATOM     26  C   LIG    1       -3.245  -0.513  -8.201  0.00  0.00    +0.050 C 
ATOM     27  C   LIG    1       -3.214  -1.030  -6.745  0.00  0.00    +0.110 C 
ATOM     28  C   LIG    1       -3.233   0.214  -5.890  0.00  0.00    -0.160 A 
ENDBRANCH   6  20
TORSDOF 2
