REMARK  Name = ZINCvU0000000HgN.0
REMARK                            x       y       z     vdW  Elec       q    Type
REMARK                         _______ _______ _______ _____ _____    ______ ____
ROOT
ATOM      1  C   LIG    1       -2.384   5.052   0.697  0.00  0.00    +0.190 C 
ATOM      2  C   LIG    1       -3.294   4.044   0.473  0.00  0.00    -0.230 C 
ENDROOT
BRANCH   1   8
ATOM      3  C   LIG    1        2.467   6.094   0.233  0.00  0.00    +0.090 C 
ATOM      4  C   LIG    1        1.359   5.222   0.764  0.00  0.00    -0.090 A 
ATOM      5  C   LIG    1        1.663   4.107   1.525  0.00  0.00    +0.020 A 
ATOM      6  C   LIG    1        0.653   3.298   2.018  0.00  0.00    +0.020 A 
ATOM      7  C   LIG    1       -0.666   3.595   1.749  0.00  0.00    +0.040 A 
ATOM      8  C   LIG    1       -0.983   4.725   0.984  0.00  0.00    -0.100 A 
ATOM      9  C   LIG    1        0.045   5.537   0.490  0.00  0.00    +0.040 A 
ENDBRANCH   1   8
BRANCH   2  10
ATOM     10  C   LIG    1       -2.834   2.652   0.350  0.00  0.00    +0.570 C 
ATOM     11  N   LIG    1       -2.119   2.271  -0.727  0.00  0.00    -0.710 N 
ATOM     12  H   LIG    1       -1.852   2.927  -1.389  0.00  0.00    +0.400 HD
ATOM     13  O   LIG    1       -3.099   1.845   1.221  0.00  0.00    -0.530 OA
BRANCH  11  14
ATOM     14  C   LIG    1       -1.745   0.864  -0.897  0.00  0.00    +0.280 C 
ATOM     15  C   LIG    1       -2.878   0.118  -1.605  0.00  0.00    +0.030 C 
BRANCH  14  16
ATOM     16  C   LIG    1       -0.490   0.775  -1.727  0.00  0.00    -0.090 A 
ATOM     17  C   LIG    1       -0.348   1.566  -2.852  0.00  0.00    +0.010 A 
ATOM     18  C   LIG    1        0.805   1.487  -3.610  0.00  0.00    +0.010 A 
ATOM     19  C   LIG    1        1.812   0.612  -3.248  0.00  0.00    +0.000 A 
ATOM     20  C   LIG    1        1.667  -0.182  -2.126  0.00  0.00    +0.010 A 
ATOM     21  C   LIG    1        0.516  -0.101  -1.365  0.00  0.00    +0.010 A 
ENDBRANCH  14  16
ENDBRANCH  11  14
ENDBRANCH   2  10
BRANCH   2  22
ATOM     22  C   LIG    1       -4.727   4.359   0.356  0.00  0.00    +0.580 C 
ATOM     23  N   LIG    1       -5.628   3.364   0.241  0.00  0.00    -0.720 N 
ATOM     24  H   LIG    1       -5.340   2.439   0.299  0.00  0.00    +0.400 HD
ATOM     25  O   LIG    1       -5.097   5.518   0.362  0.00  0.00    -0.530 OA
BRANCH  23  26
ATOM     26  C   LIG    1       -7.043   3.678   0.028  0.00  0.00    +0.280 C 
ATOM     27  C   LIG    1       -7.308   3.853  -1.469  0.00  0.00    +0.040 C 
BRANCH  26  28
ATOM     28  C   LIG    1       -7.893   2.553   0.560  0.00  0.00    -0.100 A 
ATOM     29  C   LIG    1       -7.535   1.241   0.314  0.00  0.00    +0.010 A 
ATOM     30  C   LIG    1       -8.313   0.209   0.806  0.00  0.00    +0.010 A 
ATOM     31  C   LIG    1       -9.452   0.489   1.537  0.00  0.00    +0.000 A 
ATOM     32  C   LIG    1       -9.813   1.802   1.778  0.00  0.00    +0.010 A 
ATOM     33  C   LIG    1       -9.033   2.833   1.290  0.00  0.00    +0.020 A 
ENDBRANCH  26  28
ENDBRANCH  23  26
ENDBRANCH   2  22
TORSDOF 7
