REMARK  Name = ZINCqH0000007006.0
REMARK                            x       y       z     vdW  Elec       q    Type
REMARK                         _______ _______ _______ _____ _____    ______ ____
ROOT
ATOM      1  C   LIG    1       -1.423   7.673  -0.378  0.00  0.00    +0.190 C 
ENDROOT
BRANCH   1   5
ATOM      2  C   LIG    1       -4.786   8.886  -0.005  0.00  0.00    +0.220 A 
ATOM      3  N   LIG    1       -4.662   8.767  -1.302  0.00  0.00    -0.380 NA
ATOM      4  O   LIG    1       -3.552   8.363  -1.578  0.00  0.00    +0.080 OA
ATOM      5  C   LIG    1       -2.843   8.171  -0.462  0.00  0.00    +0.190 A 
ATOM      6  N   LIG    1       -3.612   8.502   0.545  0.00  0.00    -0.470 NA
BRANCH   2  10
ATOM      7  C   LIG    1       -8.235  10.232   2.088  0.00  0.00    +0.150 A 
ATOM      8  C   LIG    1       -8.252  10.157   0.701  0.00  0.00    -0.010 A 
ATOM      9  C   LIG    1       -7.135   9.721   0.020  0.00  0.00    +0.100 A 
ATOM     10  C   LIG    1       -5.989   9.356   0.725  0.00  0.00    -0.070 A 
ATOM     11  C   LIG    1       -5.977   9.428   2.117  0.00  0.00    +0.110 A 
ATOM     12  C   LIG    1       -7.095   9.870   2.792  0.00  0.00    -0.070 A 
BRANCH   7  14
ATOM     13  C   LIG    1       -9.251  10.715   4.182  0.00  0.00    +0.240 C 
ATOM     14  O   LIG    1       -9.337  10.662   2.756  0.00  0.00    -0.310 OA
ENDBRANCH   7  14
ENDBRANCH   2  10
ENDBRANCH   1   5
BRANCH   1  15
ATOM     15  C   LIG    1       -1.424   6.146  -0.270  0.00  0.00    +0.050 C 
BRANCH  15  16
ATOM     16  C   LIG    1        0.018   5.640  -0.184  0.00  0.00    +0.060 C 
BRANCH  16  17
ATOM     17  C   LIG    1        0.017   4.137  -0.079  0.00  0.00    +0.500 C 
ATOM     18  N   LIG    1        1.183   3.467   0.009  0.00  0.00    -0.660 N 
ATOM     19  H   LIG    1        2.019   3.955   0.078  0.00  0.00    +0.420 HD
ATOM     20  O   LIG    1       -1.033   3.530  -0.072  0.00  0.00    -0.460 OA
BRANCH  18  21
ATOM     21  C   LIG    1        1.188   2.072   0.000  0.00  0.00    +0.360 A 
ATOM     22  C   LIG    1        2.398   1.389  -0.017  0.00  0.00    -0.050 A 
ATOM     23  C   LIG    1        2.390   0.005  -0.025  0.00  0.00    +0.110 A 
ATOM     24  C   LIG    1        1.165  -0.650  -0.016  0.00  0.00    -0.120 A 
ATOM     25  C   LIG    1        0.001   0.094   0.000  0.00  0.00    +0.320 A 
ATOM     26 CL   LIG    1        1.098  -2.385  -0.026  0.00  0.00    -0.050 Cl
ATOM     27  N   LIG    1        0.041   1.413   0.007  0.00  0.00    -0.460 NA
ENDBRANCH  18  21
ENDBRANCH  16  17
ENDBRANCH  15  16
ENDBRANCH   1  15
TORSDOF 7
