REMARK  Name = ZINCrg000000smOD.0
REMARK                            x       y       z     vdW  Elec       q    Type
REMARK                         _______ _______ _______ _____ _____    ______ ____
ROOT
ATOM      1  C   LIG    1       -0.605   2.828   6.004  0.00  0.00    +0.270 C 
ATOM      2  C   LIG    1       -0.606   4.359   5.755  0.00  0.00    +0.040 C 
ATOM      3  C   LIG    1        0.824   4.775   6.160  0.00  0.00    +0.250 C 
ATOM      4  N   LIG    1        1.341   3.738   7.064  0.00  0.00    -0.680 N 
ATOM      5  C   LIG    1        0.296   2.717   7.259  0.00  0.00    +0.280 C 
ENDROOT
BRANCH   4   6
ATOM      6  C   LIG    1        2.589   3.723   7.634  0.00  0.00    +0.470 A 
ATOM      7  C   LIG    1        3.654   3.208   6.948  0.00  0.00    -0.130 A 
ATOM      8  C   LIG    1        4.919   3.206   7.556  0.00  0.00    +0.550 A 
ATOM      9  N   LIG    1        5.062   3.710   8.797  0.00  0.00    -0.560 N 
ATOM     10  C   LIG    1        4.004   4.213   9.457  0.00  0.00    +0.700 A 
ATOM     11  O   LIG    1        4.155   4.663  10.577  0.00  0.00    -0.540 OA
ATOM     12  C   LIG    1        6.382   3.710   9.434  0.00  0.00    +0.340 C 
ATOM     13  O   LIG    1        5.883   2.752   6.963  0.00  0.00    -0.520 OA
ATOM     14  N   LIG    1        2.781   4.231   8.896  0.00  0.00    -0.550 N 
ATOM     15  C   LIG    1        1.647   4.790   9.636  0.00  0.00    +0.330 C 
ENDBRANCH   4   6
BRANCH   1  16
ATOM     16  N   LIG    1       -0.017   2.111   4.870  0.00  0.00    -0.690 N 
ATOM     17  H   LIG    1        0.927   1.887   4.875  0.00  0.00    +0.420 HD
BRANCH  16  21
ATOM     18  C   LIG    1       -0.287   0.002   0.580  0.00  0.00    +0.150 C 
ATOM     19  C   LIG    1       -0.942   0.738   1.720  0.00  0.00    +0.270 A 
ATOM     20  N   LIG    1       -0.244   1.104   2.775  0.00  0.00    -0.570 NA
ATOM     21  C   LIG    1       -0.806   1.755   3.792  0.00  0.00    +0.580 A 
ATOM     22  N   LIG    1       -2.086   2.073   3.812  0.00  0.00    -0.570 NA
ATOM     23  C   LIG    1       -2.878   1.743   2.784  0.00  0.00    +0.210 A 
ATOM     24  C   LIG    1       -4.244   2.063   2.767  0.00  0.00    +0.020 A 
ATOM     25  C   LIG    1       -5.006   1.704   1.696  0.00  0.00    +0.060 A 
ATOM     26  C   LIG    1       -4.451   1.022   0.616  0.00  0.00    -0.020 A 
ATOM     27  C   LIG    1       -3.128   0.694   0.598  0.00  0.00    +0.070 A 
ATOM     28  C   LIG    1       -2.313   1.054   1.680  0.00  0.00    -0.210 A 
ENDBRANCH  16  21
ENDBRANCH   1  16
TORSDOF 3
