REMARK  Name = ZINCqH0000007irS.0
REMARK                            x       y       z     vdW  Elec       q    Type
REMARK                         _______ _______ _______ _____ _____    ______ ____
ROOT
ATOM      1  N   LIG    1       -1.548  -0.219   0.055  0.00  0.00    -0.600 N 
ATOM      2  C   LIG    1       -1.913  -0.577   1.302  0.00  0.00    +0.600 C 
ATOM      3  O   LIG    1       -1.140  -0.426   2.230  0.00  0.00    -0.520 OA
ATOM      4  C   LIG    1       -2.530  -0.249  -1.032  0.00  0.00    +0.300 C 
ENDROOT
BRANCH   2   5
ATOM      5  C   LIG    1       -3.242  -1.149   1.541  0.00  0.00    -0.280 A 
ATOM      6  C   LIG    1       -3.781  -1.413   2.765  0.00  0.00    +0.110 A 
ATOM      7  C   LIG    1       -5.055  -1.951   2.710  0.00  0.00    -0.120 A 
ATOM      8  C   LIG    1       -5.525  -2.121   1.468  0.00  0.00    -0.210 A 
ATOM      9  C   LIG    1       -6.895  -2.708   1.141  0.00  0.00    +0.110 C 
ATOM     10  C   LIG    1       -7.954  -1.722   1.641  0.00  0.00    +0.020 C 
ATOM     11  C   LIG    1       -8.184  -1.876   3.126  0.00  0.00    +0.000 C 
ATOM     12  C   LIG    1       -7.072  -1.382   4.019  0.00  0.00    +0.010 C 
ATOM     13  C   LIG    1       -5.856  -2.308   3.965  0.00  0.00    +0.090 C 
ATOM     14  S   LIG    1       -4.399  -1.597   0.297  0.00  0.00    +0.210 S 
ENDBRANCH   2   5
BRANCH   1  15
ATOM     15  C   LIG    1       -0.170   0.200  -0.213  0.00  0.00    +0.340 C 
BRANCH  15  18
ATOM     16  N   LIG    1        1.133   2.302  -0.215  0.00  0.00    -0.670 N 
ATOM     17  H   LIG    1        1.919   1.779  -0.433  0.00  0.00    +0.410 HD
ATOM     18  C   LIG    1       -0.052   1.690  -0.021  0.00  0.00    +0.500 C 
ATOM     19  O   LIG    1       -1.025   2.339   0.301  0.00  0.00    -0.510 OA
BRANCH  16  23
ATOM     20  C   LIG    1        1.416   6.449   0.124  0.00  0.00    +0.120 A 
ATOM     21  C   LIG    1        0.560   5.742   0.956  0.00  0.00    +0.000 A 
ATOM     22  C   LIG    1        0.466   4.369   0.844  0.00  0.00    +0.060 A 
ATOM     23  C   LIG    1        1.228   3.696  -0.101  0.00  0.00    +0.110 A 
ATOM     24  C   LIG    1        2.089   4.403  -0.929  0.00  0.00    +0.030 A 
ATOM     25  C   LIG    1        2.179   5.777  -0.820  0.00  0.00    -0.060 A 
BRANCH  20  27
ATOM     26  C   LIG    1        2.411   8.464  -0.653  0.00  0.00    +0.250 C 
ATOM     27  O   LIG    1        1.509   7.801   0.235  0.00  0.00    -0.320 OA
ENDBRANCH  20  27
ENDBRANCH  16  23
ENDBRANCH  15  18
ENDBRANCH   1  15
TORSDOF 5
