REMARK  Name = ZINCnE000001EiLg.0
REMARK                            x       y       z     vdW  Elec       q    Type
REMARK                         _______ _______ _______ _____ _____    ______ ____
ROOT
ATOM      1  C   LIG    1        3.261  -0.421   1.044  0.00  0.00    +0.530 C 
ATOM      2  N   LIG    1        2.830   0.079  -0.131  0.00  0.00    -0.610 N 
ATOM      3  C   LIG    1        2.904   1.520  -0.424  0.00  0.00    +0.270 C 
ATOM      4  C   LIG    1        3.866   1.712  -1.595  0.00  0.00    +0.060 C 
ATOM      5  C   LIG    1        3.558   0.745  -2.707  0.00  0.00    -0.100 A 
ATOM      6  C   LIG    1        4.042   1.047  -3.976  0.00  0.00    -0.020 A 
ATOM      7  C   LIG    1        3.803   0.207  -5.046  0.00  0.00    -0.030 A 
ATOM      8  C   LIG    1        3.084  -0.955  -4.863  0.00  0.00    +0.040 A 
ATOM      9  C   LIG    1        2.595  -1.269  -3.595  0.00  0.00    -0.130 A 
ATOM     10  C   LIG    1        2.833  -0.407  -2.514  0.00  0.00    -0.060 A 
ATOM     11  C   LIG    1        2.267  -0.790  -1.170  0.00  0.00    +0.370 C 
ATOM     12  O   LIG    1        3.804   0.306   1.849  0.00  0.00    -0.560 OA
ENDROOT
BRANCH   1  17
ATOM     13  C   LIG    1        2.276  -5.508   3.583  0.00  0.00    +0.020 C 
ATOM     14  C   LIG    1        2.471  -4.024   3.265  0.00  0.00    -0.070 C 
ATOM     15  C   LIG    1        3.889  -3.799   2.734  0.00  0.00    +0.010 C 
ATOM     16  C   LIG    1        4.084  -2.315   2.416  0.00  0.00    +0.030 C 
ATOM     17  C   LIG    1        3.068  -1.882   1.357  0.00  0.00    -0.010 C 
ATOM     18  C   LIG    1        1.651  -2.107   1.888  0.00  0.00    +0.030 C 
ATOM     19  C   LIG    1        2.266  -3.199   4.537  0.00  0.00    +0.020 C 
ATOM     20  C   LIG    1        1.455  -3.591   2.206  0.00  0.00    +0.020 C 
ENDBRANCH   1  17
BRANCH   9  21
ATOM     21  C   LIG    1        1.825  -2.510  -3.389  0.00  0.00    +0.520 C 
ATOM     22  O   LIG    1        1.395  -2.786  -2.278  0.00  0.00    -0.680 OA
ATOM     23  O   LIG    1        1.616  -3.263  -4.330  0.00  0.00    -0.680 OA
ENDBRANCH   9  21
TORSDOF 2
