REMARK  Name = ZINCvU0000000JFa.0
REMARK                            x       y       z     vdW  Elec       q    Type
REMARK                         _______ _______ _______ _____ _____    ______ ____
ROOT
ATOM      1  C   LIG    1        5.395   5.125  -0.019  0.00  0.00    +0.560 C 
ATOM      2  N   LIG    1        4.047   5.105  -0.008  0.00  0.00    -0.460 N 
ATOM      3  N   LIG    1        3.254   3.959  -0.007  0.00  0.00    -0.230 NA
ATOM      4  C   LIG    1        1.985   4.197   0.006  0.00  0.00    +0.180 C 
ATOM      5  C   LIG    1        1.753   5.691   0.009  0.00  0.00    +0.100 C 
ATOM      6  C   LIG    1        3.174   6.289   0.006  0.00  0.00    +0.330 C 
ATOM      7  O   LIG    1        5.986   6.185  -0.019  0.00  0.00    -0.480 OA
ENDROOT
BRANCH   4   8
ATOM      8  C   LIG    1        0.932   3.177   0.010  0.00  0.00    -0.160 A 
ATOM      9  C   LIG    1        1.140   1.829   0.001  0.00  0.00    +0.070 A 
ATOM     10  C   LIG    1       -0.013   1.076   0.008  0.00  0.00    +0.010 A 
ATOM     11  C   LIG    1       -1.151   1.777   0.017  0.00  0.00    -0.030 A 
ATOM     12  S   LIG    1       -0.797   3.499   0.028  0.00  0.00    +0.160 S 
ENDBRANCH   4   8
BRANCH   6  13
ATOM     13  C   LIG    1        3.393   7.124  -1.229  0.00  0.00    -0.030 A 
ATOM     14  C   LIG    1        3.402   8.469  -1.278  0.00  0.00    -0.030 A 
ATOM     15  C   LIG    1        3.641   8.828  -2.624  0.00  0.00    -0.060 A 
ATOM     16  C   LIG    1        3.763   7.681  -3.317  0.00  0.00    +0.180 A 
ATOM     17  O   LIG    1        3.617   6.653  -2.466  0.00  0.00    -0.170 OA
ENDBRANCH   6  13
BRANCH   1  18
ATOM     18  C   LIG    1        6.168   3.832  -0.034  0.00  0.00    +0.280 C 
BRANCH  18  19
ATOM     19  O   LIG    1        7.569   4.114  -0.044  0.00  0.00    -0.330 OA
BRANCH  19  21
ATOM     20  O   LIG    1        7.959   1.926  -0.060  0.00  0.00    -0.500 OA
ATOM     21  C   LIG    1        8.407   3.057  -0.058  0.00  0.00    +0.510 C 
BRANCH  21  22
ATOM     22  C   LIG    1        9.810   3.264  -0.069  0.00  0.00    -0.040 C 
ATOM     23  C   LIG    1       10.649   2.206  -0.082  0.00  0.00    +0.150 C 
BRANCH  23  24
ATOM     24  C   LIG    1       12.102   2.420  -0.093  0.00  0.00    -0.110 A 
ATOM     25  C   LIG    1       12.679   3.294  -1.025  0.00  0.00    +0.130 A 
ATOM     26  C   LIG    1       14.046   3.494  -1.024  0.00  0.00    +0.000 A 
ATOM     27  C   LIG    1       14.846   2.825  -0.114  0.00  0.00    +0.090 A 
ATOM     28  C   LIG    1       14.285   1.956   0.805  0.00  0.00    +0.030 A 
ATOM     29  F   LIG    1       11.899   3.943  -1.917  0.00  0.00    -0.120 F 
ATOM     30  C   LIG    1       12.921   1.748   0.823  0.00  0.00    +0.010 A 
ATOM     31 CL   LIG    1       12.222   0.657   1.978  0.00  0.00    -0.040 Cl
ENDBRANCH  23  24
ENDBRANCH  21  22
ENDBRANCH  19  21
ENDBRANCH  18  19
ENDBRANCH   1  18
TORSDOF 7
