REMARK  Name = ZINCvU0000000Igc.0
REMARK                            x       y       z     vdW  Elec       q    Type
REMARK                         _______ _______ _______ _____ _____    ______ ____
ROOT
ATOM      1  C   LIG    1       -2.355  -2.983   0.321  0.00  0.00    +0.120 A 
ATOM      2  C   LIG    1       -2.287  -4.320   0.579  0.00  0.00    -0.030 A 
ATOM      3  S   LIG    1       -3.866  -4.976   0.541  0.00  0.00    +0.200 S 
ATOM      4  C   LIG    1       -4.533  -3.391   0.165  0.00  0.00    +0.170 A 
ATOM      5  N   LIG    1       -3.567  -2.518   0.101  0.00  0.00    -0.400 NA
ENDROOT
BRANCH   1  16
ATOM      6  O   LIG    1        0.349  -3.648   1.231  0.00  0.00    -0.430 OA
ATOM      7  C   LIG    1        0.194  -2.663   0.533  0.00  0.00    +0.530 A 
ATOM      8  O   LIG    1        1.251  -2.042  -0.034  0.00  0.00    -0.270 OA
ATOM      9  C   LIG    1        1.232  -0.688  -0.017  0.00  0.00    +0.130 A 
ATOM     10  C   LIG    1        2.415   0.037  -0.022  0.00  0.00    +0.020 A 
ATOM     11  C   LIG    1        2.374   1.417  -0.012  0.00  0.00    +0.070 A 
ATOM     12  C   LIG    1        1.161   2.089   0.002  0.00  0.00    +0.000 A 
ATOM     13  C   LIG    1       -0.017   1.395   0.010  0.00  0.00    +0.090 A 
ATOM     14  C   LIG    1        0.002  -0.004   0.002  0.00  0.00    -0.150 A 
ATOM     15  C   LIG    1       -1.245  -0.773   0.015  0.00  0.00    +0.200 A 
ATOM     16  C   LIG    1       -1.152  -2.118   0.283  0.00  0.00    -0.150 A 
ENDBRANCH   1  16
BRANCH   4  17
ATOM     17  N   LIG    1       -5.854  -3.120  -0.029  0.00  0.00    -0.120 NA
ATOM     18  N   LIG    1       -6.693  -4.029   0.056  0.00  0.00    -0.200 NA
BRANCH  18  19
ATOM     19  C   LIG    1       -8.113  -3.737  -0.153  0.00  0.00    +0.260 C 
BRANCH  19  20
ATOM     20  C   LIG    1       -8.927  -4.975   0.124  0.00  0.00    -0.070 A 
ATOM     21  C   LIG    1       -8.469  -6.210  -0.293  0.00  0.00    +0.030 A 
ATOM     22  C   LIG    1       -9.213  -7.346  -0.034  0.00  0.00    +0.000 A 
ATOM     23  C   LIG    1      -10.419  -7.245   0.633  0.00  0.00    +0.010 A 
ATOM     24  C   LIG    1      -10.880  -6.009   1.045  0.00  0.00    +0.010 A 
ATOM     25  C   LIG    1      -10.133  -4.874   0.791  0.00  0.00    +0.020 A 
ENDBRANCH  19  20
BRANCH  19  26
ATOM     26  C   LIG    1       -8.332  -3.301  -1.579  0.00  0.00    -0.090 A 
ATOM     27  C   LIG    1       -7.653  -3.930  -2.606  0.00  0.00    +0.020 A 
ATOM     28  C   LIG    1       -7.857  -3.533  -3.914  0.00  0.00    +0.000 A 
ATOM     29  C   LIG    1       -8.733  -2.501  -4.195  0.00  0.00    +0.010 A 
ATOM     30  C   LIG    1       -9.409  -1.869  -3.168  0.00  0.00    +0.010 A 
ATOM     31  C   LIG    1       -9.208  -2.269  -1.860  0.00  0.00    +0.030 A 
ENDBRANCH  19  26
ENDBRANCH  18  19
ENDBRANCH   4  17
TORSDOF 5
