REMARK  Name = ZINCrH00000No4Ka.0
REMARK                            x       y       z     vdW  Elec       q    Type
REMARK                         _______ _______ _______ _____ _____    ______ ____
ROOT
ATOM      1  C   LIG    1       -3.464   6.092   6.149  0.00  0.00    -0.670 A 
ATOM      2  C   LIG    1       -3.404   4.739   5.866  0.00  0.00    +0.200 A 
ATOM      3  C   LIG    1       -2.753   4.296   4.733  0.00  0.00    +0.040 A 
ATOM      4  C   LIG    1       -2.155   5.217   3.870  0.00  0.00    +0.170 A 
ATOM      5  C   LIG    1       -2.216   6.581   4.164  0.00  0.00    -0.020 A 
ATOM      6  C   LIG    1       -2.873   7.010   5.298  0.00  0.00    +0.230 A 
ENDROOT
BRANCH   1   7
ATOM      7  S   LIG    1       -4.296   6.649   7.598  0.00  0.00    +2.710 S 
ATOM      8  O   LIG    1       -5.226   5.631   7.942  0.00  0.00    -0.940 OA
ATOM      9  O   LIG    1       -4.674   7.996   7.351  0.00  0.00    -0.950 OA
BRANCH   7  10
ATOM     10  N   LIG    1       -3.178   6.693   8.819  0.00  0.00    -1.240 NA
ATOM     11  H   LIG    1       -2.432   6.074   8.816  0.00  0.00    +0.420 HD
ATOM     12  H   LIG    1       -3.270   7.338   9.538  0.00  0.00    +0.430 HD
ENDBRANCH   7  10
ENDBRANCH   1   7
BRANCH   5  13
ATOM     13  N   LIG    1       -1.579   7.564   3.259  0.00  0.00    +0.020 N 
ATOM     14  O   LIG    1       -1.003   7.183   2.256  0.00  0.00    -0.100 OA
ATOM     15  O   LIG    1       -1.633   8.753   3.517  0.00  0.00    -0.170 OA
ENDBRANCH   5  13
BRANCH   4  16
ATOM     16  N   LIG    1       -1.508   4.784   2.743  0.00  0.00    -0.200 NA
ATOM     17  N   LIG    1       -1.452   3.572   2.487  0.00  0.00    -0.180 NA
BRANCH  17  18
ATOM     18  C   LIG    1       -0.760   3.109   1.281  0.00  0.00    +0.160 C 
ATOM     19  C   LIG    1       -1.500   3.616   0.042  0.00  0.00    +0.030 C 
ATOM     20  C   LIG    1       -0.777   3.132  -1.217  0.00  0.00    +0.020 C 
ATOM     21  C   LIG    1       -0.746   1.603  -1.232  0.00  0.00    +0.010 C 
ATOM     22  C   LIG    1       -0.006   1.096   0.008  0.00  0.00    +0.020 C 
ATOM     23  C   LIG    1       -0.729   1.579   1.267  0.00  0.00    +0.020 C 
BRANCH  23  24
ATOM     24  C   LIG    1        0.011   1.072   2.506  0.00  0.00    -0.010 C 
ATOM     25  C   LIG    1        1.479   1.498   2.433  0.00  0.00    +0.010 C 
ATOM     26  C   LIG    1        2.219   0.991   3.673  0.00  0.00    +0.000 C 
ATOM     27  C   LIG    1        2.132  -0.536   3.730  0.00  0.00    +0.000 C 
ATOM     28  C   LIG    1        0.664  -0.961   3.803  0.00  0.00    +0.000 C 
ATOM     29  C   LIG    1       -0.075  -0.454   2.563  0.00  0.00    +0.020 C 
ENDBRANCH  23  24
ENDBRANCH  17  18
ENDBRANCH   4  16
TORSDOF 6
