REMARK  Name = ZINCrD000000AT6r.0
REMARK                            x       y       z     vdW  Elec       q    Type
REMARK                         _______ _______ _______ _____ _____    ______ ____
ROOT
ATOM      1  C   LIG    1       -0.732  -0.703  -0.886  0.00  0.00    +0.520 C 
ATOM      2  N   LIG    1        0.002  -0.004   0.002  0.00  0.00    -0.620 N 
ATOM      3  C   LIG    1       -0.018   1.467   0.010  0.00  0.00    +0.250 C 
ATOM      4  C   LIG    1        1.430   1.970  -0.001  0.00  0.00    +0.220 C 
ATOM      5  O   LIG    1        2.156   1.340   1.057  0.00  0.00    -0.370 OA
ATOM      6  C   LIG    1        2.252  -0.082   0.934  0.00  0.00    +0.200 C 
ATOM      7  C   LIG    1        0.847  -0.690   0.993  0.00  0.00    +0.280 C 
ATOM      8  O   LIG    1       -0.702  -1.915  -0.877  0.00  0.00    -0.530 OA
ENDROOT
BRANCH   6   9
ATOM      9  C   LIG    1        3.086  -0.630   2.063  0.00  0.00    -0.100 A 
ATOM     10  C   LIG    1        2.956  -0.105   3.336  0.00  0.00    +0.080 A 
ATOM     11  C   LIG    1        3.716  -0.611   4.373  0.00  0.00    -0.020 A 
ATOM     12  C   LIG    1        4.616  -1.636   4.136  0.00  0.00    +0.110 A 
ATOM     13  C   LIG    1        4.749  -2.157   2.860  0.00  0.00    -0.010 A 
ATOM     14  F   LIG    1        5.364  -2.127   5.148  0.00  0.00    -0.140 F 
ATOM     15  C   LIG    1        3.984  -1.653   1.825  0.00  0.00    +0.070 A 
ENDBRANCH   6   9
BRANCH   1  16
ATOM     16  C   LIG    1       -1.589   0.022  -1.892  0.00  0.00    +0.050 C 
BRANCH  16  17
ATOM     17  C   LIG    1       -2.312  -0.997  -2.774  0.00  0.00    +0.290 C 
BRANCH  17  20
ATOM     18  O   LIG    1       -3.850  -2.206  -4.631  0.00  0.00    -0.520 OA
ATOM     19  C   LIG    1       -3.880  -0.991  -4.640  0.00  0.00    +0.560 C 
ATOM     20  N   LIG    1       -3.146  -0.292  -3.752  0.00  0.00    -0.730 N 
ATOM     21  H   LIG    1       -3.170   0.677  -3.759  0.00  0.00    +0.400 HD
BRANCH  19  22
ATOM     22  C   LIG    1       -4.721  -0.280  -5.626  0.00  0.00    -0.120 A 
ATOM     23  C   LIG    1       -4.762   1.115  -5.635  0.00  0.00    +0.060 A 
ATOM     24  C   LIG    1       -5.545   1.773  -6.560  0.00  0.00    +0.040 A 
ATOM     25  C   LIG    1       -6.297   1.052  -7.472  0.00  0.00    -0.070 A 
ATOM     26  C   LIG    1       -6.265  -0.332  -7.464  0.00  0.00    +0.040 A 
ATOM     27 BR   LIG    1       -7.374   1.962  -8.733  0.00  0.00    -0.040 Br
ATOM     28  C   LIG    1       -5.482  -1.001  -6.547  0.00  0.00    +0.100 A 
ENDBRANCH  19  22
ENDBRANCH  17  20
ENDBRANCH  16  17
ENDBRANCH   1  16
TORSDOF 5
