REMARK  Name = ZINCrH000004nN3f.0
REMARK                            x       y       z     vdW  Elec       q    Type
REMARK                         _______ _______ _______ _____ _____    ______ ____
ROOT
ATOM      1  N   LIG    1       -1.278   2.119   0.190  0.00  0.00    -0.670 N 
ATOM      2  H   LIG    1       -2.115   1.645   0.305  0.00  0.00    +0.410 HD
ATOM      3  C   LIG    1       -0.134   1.432   0.003  0.00  0.00    +0.570 C 
ATOM      4  O   LIG    1        0.899   2.025  -0.242  0.00  0.00    -0.510 OA
ENDROOT
BRANCH   3   5
ATOM      5  C   LIG    1       -0.136  -0.040   0.090  0.00  0.00    -0.140 A 
ATOM      6  C   LIG    1       -1.305  -0.743   0.370  0.00  0.00    +0.080 A 
ATOM      7  C   LIG    1       -1.325  -2.131   0.456  0.00  0.00    +0.000 A 
ATOM      8  C   LIG    1       -0.194  -2.869   0.270  0.00  0.00    -0.030 A 
ATOM      9  C   LIG    1        0.108  -4.350   0.297  0.00  0.00    +0.100 C 
ATOM     10  C   LIG    1        1.618  -4.463  -0.005  0.00  0.00    +0.100 C 
ATOM     11  C   LIG    1        2.096  -3.044  -0.187  0.00  0.00    -0.080 A 
ATOM     12  C   LIG    1        3.299  -2.468  -0.468  0.00  0.00    +0.020 A 
ATOM     13  C   LIG    1        3.409  -1.080  -0.572  0.00  0.00    +0.030 A 
ATOM     14  C   LIG    1        2.337  -0.249  -0.402  0.00  0.00    +0.050 A 
ATOM     15  C   LIG    1        0.998  -2.209  -0.012  0.00  0.00    -0.090 A 
ATOM     16  C   LIG    1        1.087  -0.810  -0.120  0.00  0.00    +0.000 A 
ENDBRANCH   3   5
BRANCH   1  19
ATOM     17  C   LIG    1       -2.312   5.625  -0.246  0.00  0.00    +0.140 A 
ATOM     18  C   LIG    1       -2.336   4.239  -0.274  0.00  0.00    +0.000 A 
ATOM     19  C   LIG    1       -1.256   3.518   0.218  0.00  0.00    +0.170 A 
ATOM     20  C   LIG    1       -0.158   4.186   0.742  0.00  0.00    +0.040 A 
ATOM     21  C   LIG    1       -0.133   5.568   0.765  0.00  0.00    +0.040 A 
ATOM     22  C   LIG    1       -1.206   6.290   0.276  0.00  0.00    +0.060 A 
ATOM     23  F   LIG    1       -1.181   7.640   0.305  0.00  0.00    -0.130 F 
BRANCH  17  24
ATOM     24  N   LIG    1       -3.397   6.355  -0.741  0.00  0.00    -1.050 N 
ATOM     25  H   LIG    1       -3.248   7.197  -1.198  0.00  0.00    +0.430 HD
BRANCH  24  27
ATOM     26  C   LIG    1       -5.152   5.658   1.251  0.00  0.00    -0.270 C 
ATOM     27  S   LIG    1       -4.939   5.781  -0.546  0.00  0.00    +2.610 S 
ATOM     28  O   LIG    1       -4.908   4.488  -1.134  0.00  0.00    -0.950 OA
ATOM     29  O   LIG    1       -5.765   6.808  -1.077  0.00  0.00    -0.940 OA
ENDBRANCH  24  27
ENDBRANCH  17  24
ENDBRANCH   1  19
TORSDOF 4
