REMARK  Name = ZINCqH0000000k1p.0
REMARK                            x       y       z     vdW  Elec       q    Type
REMARK                         _______ _______ _______ _____ _____    ______ ____
ROOT
ATOM      1  S   LIG    1       -0.862   1.671   1.500  0.00  0.00    +0.060 S 
ENDROOT
BRANCH   1   2
ATOM      2  C   LIG    1        0.117   1.000   2.802  0.00  0.00    +0.200 A 
ATOM      3  N   LIG    1        1.188   0.257   2.657  0.00  0.00    -0.280 NA
ATOM      4  N   LIG    1        1.669  -0.065   3.933  0.00  0.00    -0.320 NA
ATOM      5  C   LIG    1        0.870   0.485   4.819  0.00  0.00    +0.440 A 
ATOM      6  N   LIG    1        0.653   0.636   6.178  0.00  0.00    -0.600 N 
ATOM      7  H   LIG    1        1.199   0.261   6.887  0.00  0.00    +0.450 HD
ATOM      8  C   LIG    1       -0.485   1.417   6.349  0.00  0.00    +0.140 A 
ATOM      9  C   LIG    1       -1.152   1.875   7.478  0.00  0.00    +0.020 A 
ATOM     10  C   LIG    1       -2.285   2.652   7.340  0.00  0.00    +0.060 A 
ATOM     11  C   LIG    1       -2.759   2.976   6.081  0.00  0.00    +0.020 A 
ATOM     12  C   LIG    1       -2.103   2.526   4.952  0.00  0.00    +0.070 A 
ATOM     13  C   LIG    1       -0.963   1.745   5.080  0.00  0.00    +0.060 A 
ATOM     14  N   LIG    1       -0.110   1.157   4.143  0.00  0.00    -0.440 N 
ENDBRANCH   1   2
BRANCH   1  15
ATOM     15  C   LIG    1       -0.013   1.086   0.008  0.00  0.00    +0.100 C 
BRANCH  15  16
ATOM     16  C   LIG    1       -0.742   1.585  -1.213  0.00  0.00    +0.450 C 
ATOM     17  O   LIG    1       -1.736   2.269  -1.088  0.00  0.00    -0.460 OA
BRANCH  16  21
ATOM     18  N   LIG    1       -0.043   1.102  -4.744  0.00  0.00    -0.430 N 
ATOM     19  C   LIG    1        0.996   0.388  -4.220  0.00  0.00    +0.010 A 
ATOM     20  C   LIG    1        0.930   0.434  -2.879  0.00  0.00    +0.000 A 
ATOM     21  C   LIG    1       -0.249   1.245  -2.550  0.00  0.00    -0.270 A 
ATOM     22  C   LIG    1        2.048  -0.337  -5.019  0.00  0.00    +0.120 C 
ATOM     23  C   LIG    1       -0.802   1.617  -3.760  0.00  0.00    +0.120 A 
ATOM     24  C   LIG    1       -2.040   2.457  -3.947  0.00  0.00    +0.150 C 
BRANCH  18  25
ATOM     25  C   LIG    1       -0.299   1.276  -6.176  0.00  0.00    +0.320 C 
BRANCH  25  27
ATOM     26  C   LIG    1       -2.313   0.450  -7.282  0.00  0.00    +0.050 C 
ATOM     27  C   LIG    1       -1.192   0.166  -6.665  0.00  0.00    -0.060 C 
ENDBRANCH  25  27
ENDBRANCH  18  25
ENDBRANCH  16  21
ENDBRANCH  15  16
ENDBRANCH   1  15
TORSDOF 6
