REMARK  Name = ZINCqH000000818L.0
REMARK                            x       y       z     vdW  Elec       q    Type
REMARK                         _______ _______ _______ _____ _____    ______ ____
ROOT
ATOM      1  C   LIG    1        3.377   4.129  -0.008  0.00  0.00    +0.260 C 
ENDROOT
BRANCH   1   2
ATOM      2  C   LIG    1        3.526   5.624  -0.125  0.00  0.00    +0.520 C 
ATOM      3  N   LIG    1        3.024   6.269  -1.196  0.00  0.00    -0.720 N 
ATOM      4  H   LIG    1        2.566   5.772  -1.892  0.00  0.00    +0.410 HD
ATOM      5  O   LIG    1        4.099   6.246   0.744  0.00  0.00    -0.530 OA
BRANCH   3   6
ATOM      6  C   LIG    1        3.170   7.723  -1.310  0.00  0.00    +0.320 C 
BRANCH   6   7
ATOM      7  C   LIG    1        2.526   8.193  -2.589  0.00  0.00    -0.130 A 
ATOM      8  C   LIG    1        3.272   8.265  -3.752  0.00  0.00    +0.070 A 
ATOM      9  C   LIG    1        2.682   8.691  -4.926  0.00  0.00    -0.020 A 
ATOM     10  C   LIG    1        1.346   9.057  -4.937  0.00  0.00    +0.110 A 
ATOM     11  C   LIG    1        0.602   8.990  -3.771  0.00  0.00    -0.010 A 
ATOM     12  F   LIG    1        0.770   9.479  -6.083  0.00  0.00    -0.140 F 
ATOM     13  C   LIG    1        1.193   8.558  -2.599  0.00  0.00    +0.070 A 
ENDBRANCH   6   7
ENDBRANCH   3   6
ENDBRANCH   1   2
BRANCH   1  14
ATOM     14  N   LIG    1        4.002   3.671   1.235  0.00  0.00    -0.710 N 
ATOM     15  H   LIG    1        4.096   4.281   1.984  0.00  0.00    +0.410 HD
ATOM     16  C   LIG    1        4.447   2.403   1.339  0.00  0.00    +0.550 C 
ATOM     17  O   LIG    1        4.329   1.639   0.402  0.00  0.00    -0.500 OA
BRANCH  16  18
ATOM     18  C   LIG    1        5.077   1.942   2.594  0.00  0.00    -0.120 A 
ATOM     19  C   LIG    1        5.214   2.817   3.673  0.00  0.00    +0.060 A 
ATOM     20  C   LIG    1        5.804   2.380   4.841  0.00  0.00    +0.030 A 
ATOM     21  C   LIG    1        6.260   1.077   4.945  0.00  0.00    +0.060 A 
ATOM     22  C   LIG    1        6.128   0.204   3.880  0.00  0.00    +0.040 A 
ATOM     23  C   LIG    1        5.534   0.626   2.707  0.00  0.00    -0.040 A 
ATOM     24 BR   LIG    1        5.347  -0.570   1.255  0.00  0.00    -0.010 Br
ENDBRANCH  16  18
ENDBRANCH   1  14
BRANCH   1  25
ATOM     25  C   LIG    1        1.891   3.764   0.004  0.00  0.00    +0.060 C 
BRANCH  25  26
ATOM     26  C   LIG    1        1.739   2.242  -0.003  0.00  0.00    +0.110 C 
BRANCH  26  28
ATOM     27  C   LIG    1        0.002  -0.004   0.002  0.00  0.00    +0.140 C 
ATOM     28  S   LIG    1       -0.022   1.810   0.012  0.00  0.00    -0.280 S 
ENDBRANCH  26  28
ENDBRANCH  25  26
ENDBRANCH   1  25
TORSDOF 8
