REMARK  Name = ZINCrD00000hQ4qo.0
REMARK                            x       y       z     vdW  Elec       q    Type
REMARK                         _______ _______ _______ _____ _____    ______ ____
ROOT
ATOM      1  C   LIG    1       -3.912   5.247  -9.347  0.00  0.00    +0.050 C 
ATOM      2  C   LIG    1       -4.462   5.668  -7.983  0.00  0.00    -0.010 C 
ATOM      3  C   LIG    1       -3.578   6.775  -7.348  0.00  0.00    +0.040 C 
ATOM      4  C   LIG    1       -3.853   6.561  -5.837  0.00  0.00    +0.240 C 
ATOM      5  N   LIG    1       -3.957   5.098  -5.678  0.00  0.00    -0.610 N 
ATOM      6  C   LIG    1       -3.736   4.414  -4.538  0.00  0.00    +0.540 C 
ATOM      7  O   LIG    1       -3.857   3.208  -4.522  0.00  0.00    -0.520 OA
ATOM      8  C   LIG    1       -4.348   4.511  -6.968  0.00  0.00    +0.270 C 
ENDROOT
BRANCH   8   9
ATOM      9  C   LIG    1       -5.677   3.813  -6.831  0.00  0.00    -0.060 A 
ATOM     10  C   LIG    1       -5.902   2.620  -7.491  0.00  0.00    +0.020 A 
ATOM     11  C   LIG    1       -7.120   1.978  -7.366  0.00  0.00    +0.040 A 
ATOM     12  C   LIG    1       -8.115   2.529  -6.582  0.00  0.00    -0.010 A 
ATOM     13  C   LIG    1       -7.891   3.725  -5.920  0.00  0.00    +0.100 A 
ATOM     14  F   LIG    1       -8.863   4.265  -5.152  0.00  0.00    -0.140 F 
ATOM     15  C   LIG    1       -6.669   4.364  -6.042  0.00  0.00    -0.010 A 
ENDBRANCH   8   9
BRANCH   6  16
ATOM     16  C   LIG    1       -3.338   5.149  -3.284  0.00  0.00    +0.000 C 
ATOM     17  C   LIG    1       -1.926   5.762  -3.426  0.00  0.00    +0.080 C 
ATOM     18  C   LIG    1       -1.315   5.603  -2.051  0.00  0.00    +0.520 C 
ATOM     19  N   LIG    1       -2.013   4.705  -1.336  0.00  0.00    -0.620 N 
ATOM     20  O   LIG    1       -0.335   6.198  -1.654  0.00  0.00    -0.520 OA
ATOM     21  C   LIG    1       -3.139   4.167  -2.108  0.00  0.00    +0.300 C 
BRANCH  19  22
ATOM     22  C   LIG    1       -1.694   4.317   0.041  0.00  0.00    +0.430 C 
BRANCH  22  23
ATOM     23  C   LIG    1       -0.753   3.140   0.026  0.00  0.00    -0.050 A 
ATOM     24  C   LIG    1        0.591   3.208   0.014  0.00  0.00    -0.030 A 
ATOM     25  C   LIG    1        1.068   1.877   0.002  0.00  0.00    -0.070 A 
ATOM     26  C   LIG    1       -0.013   1.076   0.008  0.00  0.00    +0.170 A 
ATOM     27  O   LIG    1       -1.113   1.846   0.017  0.00  0.00    -0.170 OA
ENDBRANCH  22  23
ENDBRANCH  19  22
ENDBRANCH   6  16
TORSDOF 4
