REMARK  Name = ZINC9l0000002lhO.0
REMARK                            x       y       z     vdW  Elec       q    Type
REMARK                         _______ _______ _______ _____ _____    ______ ____
ROOT
ATOM      1  C   LIG    1       -1.433  -0.534   0.013  0.00  0.00    -0.110 C 
ATOM      2  C   LIG    1       -1.914  -1.246   1.279  0.00  0.00    +0.010 C 
ATOM      3  C   LIG    1       -2.454   0.310  -0.753  0.00  0.00    +0.050 C 
ATOM      4  C   LIG    1       -1.626  -2.051   0.009  0.00  0.00    -0.120 C 
ENDROOT
BRANCH   4   5
ATOM      5  C   LIG    1       -2.808  -2.600  -0.749  0.00  0.00    +0.520 C 
ATOM      6  O   LIG    1       -3.881  -2.025  -0.705  0.00  0.00    -0.690 OA
ATOM      7  O   LIG    1       -2.689  -3.621  -1.406  0.00  0.00    -0.700 OA
ENDBRANCH   4   5
BRANCH   1   9
ATOM      8  C   LIG    1       -0.019   1.526   0.010  0.00  0.00    +0.010 C 
ATOM      9  C   LIG    1        0.002  -0.004   0.002  0.00  0.00    +0.040 C 
ENDBRANCH   1   9
TORSDOF 2
