REMARK  Name = ZINCpk00000ebNEB.0
REMARK                            x       y       z     vdW  Elec       q    Type
REMARK                         _______ _______ _______ _____ _____    ______ ____
ROOT
ATOM      1  O   LIG    1        3.787   1.422   0.407  0.00  0.00    -0.950 OA
ATOM      2  S   LIG    1        2.596   0.668   0.587  0.00  0.00    +2.700 S 
ATOM      3  O   LIG    1        2.166   0.184   1.852  0.00  0.00    -0.910 OA
ENDROOT
BRANCH   2   4
ATOM      4  C   LIG    1        2.735  -0.740  -0.463  0.00  0.00    -0.770 A 
ATOM      5  C   LIG    1        2.018  -1.896  -0.186  0.00  0.00    +0.210 A 
ATOM      6  C   LIG    1        2.152  -2.977  -1.040  0.00  0.00    -0.040 A 
ATOM      7  C   LIG    1        3.003  -2.873  -2.132  0.00  0.00    +0.370 A 
ATOM      8  N   LIG    1        3.674  -1.756  -2.361  0.00  0.00    -0.550 NA
ATOM      9  C   LIG    1        3.563  -0.708  -1.568  0.00  0.00    +0.430 A 
BRANCH   7  10
ATOM     10  O   LIG    1        3.149  -3.928  -2.973  0.00  0.00    -0.280 OA
BRANCH  10  11
ATOM     11  C   LIG    1        4.039  -3.759  -4.078  0.00  0.00    +0.260 C 
BRANCH  11  12
ATOM     12  C   LIG    1        4.072  -5.045  -4.907  0.00  0.00    +0.460 C 
ATOM     13  F   LIG    1        4.516  -6.104  -4.108  0.00  0.00    -0.170 F 
ATOM     14  F   LIG    1        4.944  -4.879  -5.989  0.00  0.00    -0.170 F 
ATOM     15  F   LIG    1        2.787  -5.326  -5.383  0.00  0.00    -0.170 F 
ENDBRANCH  11  12
ENDBRANCH  10  11
ENDBRANCH   7  10
ENDBRANCH   2   4
BRANCH   2  16
ATOM     16  N   LIG    1        1.359   1.599  -0.002  0.00  0.00    -1.100 NA
ATOM     17  H   LIG    1        1.544   2.484  -0.354  0.00  0.00    +0.420 HD
BRANCH  16  18
ATOM     18  C   LIG    1       -0.013   1.086   0.008  0.00  0.00    +0.350 C 
ATOM     19  C   LIG    1       -0.767   1.600  -1.225  0.00  0.00    +0.060 C 
ATOM     20  C   LIG    1       -2.261   1.305  -1.063  0.00  0.00    +0.050 C 
ATOM     21  C   LIG    1       -2.838   2.186   0.051  0.00  0.00    +0.310 C 
ATOM     22  N   LIG    1       -1.988   2.064   1.236  0.00  0.00    -0.370 N 
ATOM     23  N   LIG    1       -2.288   2.411   2.556  0.00  0.00    -0.310 NA
ATOM     24  C   LIG    1       -1.224   2.123   3.269  0.00  0.00    +0.410 A 
ATOM     25  N   LIG    1       -0.286   1.619   2.465  0.00  0.00    -0.500 NA
ATOM     26  C   LIG    1       -0.731   1.579   1.240  0.00  0.00    +0.240 A 
ENDBRANCH  16  18
ENDBRANCH   2  16
TORSDOF 6
