REMARK  Name = ZINCrH000004n8jK.2
REMARK                            x       y       z     vdW  Elec       q    Type
REMARK                         _______ _______ _______ _____ _____    ______ ____
ROOT
ATOM      1  C   LIG    1       -5.616   3.586  -0.468  0.00  0.00    +0.240 C 
ENDROOT
BRANCH   1   6
ATOM      2  C   LIG    1       -9.838   4.998  -3.116  0.00  0.00    +0.190 A 
ATOM      3  C   LIG    1       -9.498   4.986  -1.765  0.00  0.00    -0.090 A 
ATOM      4  C   LIG    1       -8.270   4.542  -1.365  0.00  0.00    +0.150 A 
ATOM      5  C   LIG    1       -7.348   4.096  -2.318  0.00  0.00    -0.190 A 
ATOM      6  C   LIG    1       -6.024   3.614  -1.919  0.00  0.00    +0.050 A 
ATOM      7  C   LIG    1       -5.176   3.189  -2.890  0.00  0.00    -0.100 A 
ATOM      8  C   LIG    1       -5.580   3.225  -4.240  0.00  0.00    +0.510 A 
ATOM      9  O   LIG    1       -6.793   3.673  -4.601  0.00  0.00    -0.270 OA
ATOM     10  O   LIG    1       -4.810   2.841  -5.102  0.00  0.00    -0.460 OA
ATOM     11  C   LIG    1       -7.684   4.110  -3.685  0.00  0.00    +0.190 A 
ATOM     12  C   LIG    1       -8.933   4.569  -4.074  0.00  0.00    -0.030 A 
BRANCH   2  14
ATOM     13  C   LIG    1      -11.945   5.880  -2.463  0.00  0.00    +0.250 C 
ATOM     14  O   LIG    1      -11.062   5.442  -3.498  0.00  0.00    -0.310 OA
ENDBRANCH   2  14
ENDBRANCH   1   6
BRANCH   1  15
ATOM     15  N   LIG    1       -5.084   4.900  -0.083  0.00  0.00    -0.520 NA
ATOM     16  C   LIG    1       -4.122   5.390  -1.077  0.00  0.00    +0.260 C 
ATOM     17  C   LIG    1       -2.841   4.612  -0.990  0.00  0.00    -0.060 C 
ATOM     18  C   LIG    1       -2.522   3.868   0.046  0.00  0.00    -0.080 C 
ATOM     19  C   LIG    1       -3.412   3.729   1.250  0.00  0.00    +0.040 C 
ATOM     20  C   LIG    1       -4.459   4.846   1.249  0.00  0.00    +0.230 C 
BRANCH  18  21
ATOM     21  C   LIG    1       -1.234   3.143   0.030  0.00  0.00    -0.060 A 
ATOM     22  C   LIG    1       -1.216   1.748   0.017  0.00  0.00    +0.040 A 
ATOM     23  C   LIG    1       -0.013   1.076   0.008  0.00  0.00    -0.010 A 
ATOM     24  C   LIG    1        1.181   1.786   0.000  0.00  0.00    +0.110 A 
ATOM     25  C   LIG    1        1.167   3.174   0.007  0.00  0.00    -0.010 A 
ATOM     26  C   LIG    1       -0.032   3.853   0.022  0.00  0.00    +0.040 A 
BRANCH  24  27
ATOM     27  O   LIG    1        2.365   1.120  -0.015  0.00  0.00    -0.500 OA
ATOM     28  H   LIG    1        2.700   0.932  -0.902  0.00  0.00    +0.390 HD
ENDBRANCH  24  27
ENDBRANCH  18  21
ENDBRANCH   1  15
TORSDOF 5
