REMARK  Name = ZINCqH0000005inn.0
REMARK                            x       y       z     vdW  Elec       q    Type
REMARK                         _______ _______ _______ _____ _____    ______ ____
ROOT
ATOM      1  C   LIG    1        0.195  -2.320   1.482  0.00  0.00    +0.300 C 
ATOM      2  N   LIG    1        1.083  -1.384   2.174  0.00  0.00    -0.980 NA
ENDROOT
BRANCH   2   3
ATOM      3  S   LIG    1        0.758  -0.933   3.734  0.00  0.00    +2.690 S 
ATOM      4  O   LIG    1        0.112  -2.042   4.346  0.00  0.00    -0.950 OA
ATOM      5  O   LIG    1        1.952  -0.353   4.242  0.00  0.00    -0.900 OA
BRANCH   3   6
ATOM      6  C   LIG    1       -0.434   0.362   3.665  0.00  0.00    -0.670 A 
ATOM      7  C   LIG    1       -1.709   0.155   4.158  0.00  0.00    +0.150 A 
ATOM      8  C   LIG    1       -2.645   1.171   4.104  0.00  0.00    +0.040 A 
ATOM      9  C   LIG    1       -2.306   2.395   3.557  0.00  0.00    -0.030 A 
ATOM     10  C   LIG    1       -1.030   2.604   3.067  0.00  0.00    +0.050 A 
ATOM     11 BR   LIG    1       -3.587   3.784   3.483  0.00  0.00    -0.020 Br
ATOM     12  C   LIG    1       -0.095   1.586   3.117  0.00  0.00    +0.060 A 
ATOM     13 CL   LIG    1        1.506   1.847   2.498  0.00  0.00    -0.030 Cl
ENDBRANCH   3   6
ENDBRANCH   2   3
BRANCH   2  14
ATOM     14  C   LIG    1        2.260  -0.846   1.487  0.00  0.00    +0.350 C 
BRANCH  14  15
ATOM     15  C   LIG    1        3.213  -1.970   1.168  0.00  0.00    -0.080 A 
ATOM     16  C   LIG    1        3.277  -2.478  -0.115  0.00  0.00    +0.030 A 
ATOM     17  C   LIG    1        4.151  -3.509  -0.408  0.00  0.00    +0.000 A 
ATOM     18  C   LIG    1        4.963  -4.034   0.580  0.00  0.00    +0.020 A 
ATOM     19  C   LIG    1        4.903  -3.530   1.865  0.00  0.00    -0.030 A 
ATOM     20  C   LIG    1        4.031  -2.491   2.162  0.00  0.00    +0.100 A 
BRANCH  20  21
ATOM     21  N   LIG    1        3.972  -1.976   3.459  0.00  0.00    -0.490 N 
ATOM     22  C   LIG    1        5.205  -1.249   3.794  0.00  0.00    +0.160 C 
ATOM     23  C   LIG    1        5.074  -0.652   5.197  0.00  0.00    +0.230 C 
ATOM     24  O   LIG    1        4.792  -1.698   6.131  0.00  0.00    -0.380 OA
ATOM     25  C   LIG    1        3.598  -2.427   5.835  0.00  0.00    +0.230 C 
ATOM     26  C   LIG    1        3.714  -3.042   4.438  0.00  0.00    +0.150 C 
ENDBRANCH  20  21
ENDBRANCH  14  15
ENDBRANCH   2  14
TORSDOF 5
