REMARK  Name = ZINCqH0000037r0K.0
REMARK                            x       y       z     vdW  Elec       q    Type
REMARK                         _______ _______ _______ _____ _____    ______ ____
ROOT
ATOM      1  C   LIG    1       -1.229   3.153   0.051  0.00  0.00    +0.040 A 
ATOM      2  C   LIG    1       -0.034   3.858   0.046  0.00  0.00    +0.030 A 
ATOM      3  C   LIG    1        1.169   3.179   0.024  0.00  0.00    +0.030 A 
ATOM      4  C   LIG    1        1.183   1.791   0.007  0.00  0.00    +0.180 A 
ATOM      5  C   LIG    1       -0.013   1.084   0.012  0.00  0.00    -0.040 A 
ATOM      6  C   LIG    1       -1.216   1.762   0.028  0.00  0.00    +0.150 A 
ATOM      7  F   LIG    1       -2.380   1.076   0.026  0.00  0.00    -0.120 F 
ENDROOT
BRANCH   1  11
ATOM      8  C   LIG    1       -5.025   4.313   1.385  0.00  0.00    +0.020 C 
ATOM      9  C   LIG    1       -3.924   5.370   1.290  0.00  0.00    +0.200 C 
ATOM     10  C   LIG    1       -2.555   4.684   1.275  0.00  0.00    +0.170 C 
ATOM     11  N   LIG    1       -2.448   3.842   0.074  0.00  0.00    -0.490 N 
ATOM     12  C   LIG    1       -2.621   4.648  -1.143  0.00  0.00    +0.170 C 
ATOM     13  C   LIG    1       -3.989   5.335  -1.104  0.00  0.00    +0.160 C 
ATOM     14  C   LIG    1       -4.142   6.237  -2.330  0.00  0.00    +0.050 C 
ATOM     15  O   LIG    1       -4.087   6.123   0.085  0.00  0.00    -0.370 OA
ENDBRANCH   1  11
BRANCH   4  16
ATOM     16  N   LIG    1        2.404   1.103  -0.015  0.00  0.00    -0.670 N 
ATOM     17  H   LIG    1        2.494   0.260   0.457  0.00  0.00    +0.410 HD
ATOM     18  C   LIG    1        3.452   1.612  -0.692  0.00  0.00    +0.520 C 
ATOM     19  O   LIG    1        3.366   2.704  -1.212  0.00  0.00    -0.490 OA
BRANCH  18  20
ATOM     20  C   LIG    1        4.732   0.824  -0.803  0.00  0.00    +0.220 C 
BRANCH  20  21
ATOM     21  O   LIG    1        5.686   1.569  -1.562  0.00  0.00    -0.360 OA
BRANCH  21  22
ATOM     22  C   LIG    1        6.941   0.907  -1.728  0.00  0.00    +0.150 C 
ATOM     23  C   LIG    1        7.873   1.286  -0.575  0.00  0.00    -0.010 C 
ATOM     24  C   LIG    1        9.218   0.577  -0.752  0.00  0.00    +0.010 C 
ATOM     25  C   LIG    1        9.848   1.004  -2.079  0.00  0.00    +0.020 C 
ATOM     26  C   LIG    1        8.916   0.626  -3.232  0.00  0.00    +0.010 C 
ATOM     27  C   LIG    1        7.572   1.334  -3.054  0.00  0.00    +0.020 C 
ENDBRANCH  21  22
ENDBRANCH  20  21
ENDBRANCH  18  20
ENDBRANCH   4  16
TORSDOF 5
