REMARK  Name = ZINCrH000004jNjx.0
REMARK                            x       y       z     vdW  Elec       q    Type
REMARK                         _______ _______ _______ _____ _____    ______ ____
ROOT
ATOM      1  C   LIG    1       -0.123   0.428   0.317  0.00  0.00    +0.300 C 
ATOM      2  N   LIG    1       -0.791   1.230   1.345  0.00  0.00    -0.600 N 
ATOM      3  C   LIG    1       -2.047   1.676   1.141  0.00  0.00    +0.530 C 
ATOM      4  O   LIG    1       -2.579   2.388   1.967  0.00  0.00    -0.530 OA
ENDROOT
BRANCH   3   5
ATOM      5  C   LIG    1       -2.790   1.290  -0.112  0.00  0.00    -0.060 C 
ATOM      6  C   LIG    1       -2.715  -0.227  -0.302  0.00  0.00    +0.030 C 
ATOM      7  C   LIG    1       -3.469  -0.619  -1.574  0.00  0.00    -0.010 C 
ATOM      8  C   LIG    1       -2.834   0.079  -2.779  0.00  0.00    +0.020 C 
ATOM      9  C   LIG    1       -2.909   1.595  -2.588  0.00  0.00    +0.000 C 
ATOM     10  C   LIG    1       -4.373   2.022  -2.465  0.00  0.00    +0.010 C 
ATOM     11  C   LIG    1       -5.008   1.325  -1.261  0.00  0.00    -0.020 C 
ATOM     12  C   LIG    1       -4.933  -0.192  -1.451  0.00  0.00    +0.010 C 
ATOM     13  C   LIG    1       -2.155   1.987  -1.316  0.00  0.00    +0.040 C 
ATOM     14  C   LIG    1       -4.254   1.717   0.012  0.00  0.00    +0.050 C 
ENDBRANCH   3   5
BRANCH   2  15
ATOM     15  C   LIG    1       -0.095   1.546   2.595  0.00  0.00    +0.340 C 
BRANCH  15  16
ATOM     16  C   LIG    1        0.660   2.841   2.435  0.00  0.00    +0.500 C 
ATOM     17  N   LIG    1        1.379   3.332   3.463  0.00  0.00    -0.670 N 
ATOM     18  H   LIG    1        1.475   2.816   4.279  0.00  0.00    +0.420 HD
ATOM     19  O   LIG    1        0.621   3.440   1.381  0.00  0.00    -0.500 OA
BRANCH  17  20
ATOM     20  C   LIG    1        1.989   4.590   3.354  0.00  0.00    +0.140 A 
ATOM     21  C   LIG    1        1.482   5.533   2.472  0.00  0.00    +0.080 A 
ATOM     22  C   LIG    1        2.083   6.773   2.365  0.00  0.00    +0.050 A 
ATOM     23  C   LIG    1        3.191   7.076   3.136  0.00  0.00    +0.080 A 
ATOM     24  C   LIG    1        3.701   6.136   4.019  0.00  0.00    +0.060 A 
ATOM     25  F   LIG    1        4.784   6.433   4.771  0.00  0.00    -0.110 F 
ATOM     26  F   LIG    1        3.776   8.289   3.029  0.00  0.00    -0.120 F 
ATOM     27  C   LIG    1        3.099   4.895   4.133  0.00  0.00    +0.060 A 
ATOM     28  F   LIG    1        3.591   3.981   4.998  0.00  0.00    -0.120 F 
ENDBRANCH  17  20
ENDBRANCH  15  16
ENDBRANCH   2  15
TORSDOF 4
