REMARK  Name = ZINCBI0000000elk.0
REMARK                            x       y       z     vdW  Elec       q    Type
REMARK                         _______ _______ _______ _____ _____    ______ ____
ROOT
ATOM      1  N   LIG    1        4.024  -4.187  -1.512  0.00  0.00    -0.460 N 
ATOM      2  C   LIG    1        2.731  -3.821  -1.391  0.00  0.00    +0.570 A 
ATOM      3  C   LIG    1        2.412  -2.412  -1.100  0.00  0.00    -0.150 A 
ATOM      4  C   LIG    1        1.093  -1.982  -0.966  0.00  0.00    +0.140 A 
ATOM      5  C   LIG    1        0.833  -0.655  -0.694  0.00  0.00    +0.030 A 
ATOM      6  C   LIG    1        1.874   0.248  -0.554  0.00  0.00    +0.100 A 
ATOM      7  C   LIG    1        3.186  -0.166  -0.685  0.00  0.00    +0.010 A 
ATOM      8  C   LIG    1        3.467  -1.495  -0.958  0.00  0.00    +0.160 A 
ATOM      9  N   LIG    1        4.775  -1.942  -1.096  0.00  0.00    -0.420 N 
ATOM     10  C   LIG    1        5.990  -1.318  -1.018  0.00  0.00    +0.140 A 
ATOM     11  N   LIG    1        6.904  -2.233  -1.234  0.00  0.00    -0.250 NA
ATOM     12  N   LIG    1        6.348  -3.374  -1.438  0.00  0.00    -0.270 NA
ATOM     13  O   LIG    1        1.842  -4.642  -1.520  0.00  0.00    -0.470 OA
ATOM     14  C   LIG    1        5.043  -3.259  -1.367  0.00  0.00    +0.430 A 
ENDROOT
BRANCH   1  21
ATOM     15  C   LIG    1        4.236  -4.984  -4.237  0.00  0.00    +0.100 C 
ATOM     16  C   LIG    1        4.454  -5.953  -3.104  0.00  0.00    -0.050 A 
ATOM     17  C   LIG    1        4.767  -7.271  -3.373  0.00  0.00    +0.020 A 
ATOM     18  C   LIG    1        4.968  -8.162  -2.333  0.00  0.00    +0.040 A 
ATOM     19  C   LIG    1        4.856  -7.736  -1.023  0.00  0.00    +0.020 A 
ATOM     20  C   LIG    1        4.548  -6.418  -0.747  0.00  0.00    +0.030 A 
ATOM     21  C   LIG    1        4.341  -5.522  -1.788  0.00  0.00    +0.110 A 
ENDBRANCH   1  21
BRANCH  10  22
ATOM     22  S   LIG    1        6.273   0.390  -0.691  0.00  0.00    +0.100 S 
BRANCH  22  23
ATOM     23  C   LIG    1        8.082   0.520  -0.733  0.00  0.00    +0.100 C 
BRANCH  23  24
ATOM     24  C   LIG    1        8.489   1.946  -0.466  0.00  0.00    +0.550 C 
ATOM     25  N   LIG    1        9.794   2.281  -0.449  0.00  0.00    -0.720 N 
ATOM     26  H   LIG    1       10.471   1.605  -0.608  0.00  0.00    +0.410 HD
ATOM     27  O   LIG    1        7.643   2.791  -0.267  0.00  0.00    -0.510 OA
BRANCH  25  28
ATOM     28  C   LIG    1       10.191   3.668  -0.189  0.00  0.00    +0.310 C 
BRANCH  28  29
ATOM     29  C   LIG    1       11.716   3.753  -0.097  0.00  0.00    +0.220 C 
BRANCH  29  30
ATOM     30  C   LIG    1       12.191   2.975   1.103  0.00  0.00    -0.140 A 
ATOM     31  C   LIG    1       12.123   3.538   2.363  0.00  0.00    +0.000 A 
ATOM     32  C   LIG    1       12.555   2.823   3.464  0.00  0.00    +0.040 A 
ATOM     33  C   LIG    1       13.063   1.548   3.304  0.00  0.00    +0.050 A 
ATOM     34  C   LIG    1       13.136   0.986   2.043  0.00  0.00    +0.040 A 
ATOM     35  C   LIG    1       12.700   1.700   0.942  0.00  0.00    +0.040 A 
ENDBRANCH  29  30
BRANCH  29  36
ATOM     36  N   LIG    1       12.120   5.159   0.040  0.00  0.00    -0.380 N 
ATOM     37  C   LIG    1       11.698   5.908  -1.152  0.00  0.00    +0.330 C 
ATOM     38  C   LIG    1       13.580   5.238   0.176  0.00  0.00    +0.330 C 
ATOM     39  H   LIG    1       11.684   5.556   0.858  0.00  0.00    +0.430 HD
ENDBRANCH  29  36
ENDBRANCH  28  29
ENDBRANCH  25  28
ENDBRANCH  23  24
ENDBRANCH  22  23
ENDBRANCH  10  22
TORSDOF 8
