REMARK  Name = ZINCfA000001ogT8.0
REMARK                            x       y       z     vdW  Elec       q    Type
REMARK                         _______ _______ _______ _____ _____    ______ ____
ROOT
ATOM      1  N   LIG    1        0.031  -0.392   2.498  0.00  0.00    -0.630 NA
ATOM      2  H   LIG    1       -0.655  -0.884   2.020  0.00  0.00    +0.430 HD
ENDROOT
BRANCH   1   3
ATOM      3  C   LIG    1        1.023  -1.071   3.169  0.00  0.00    +0.470 C 
ATOM      4  N   LIG    1        1.133  -2.349   3.225  0.00  0.00    -0.620 NA
ATOM      5  C   LIG    1        2.223  -2.946   3.964  0.00  0.00    +0.140 C 
ATOM      6  C   LIG    1        3.121  -1.871   4.596  0.00  0.00    +0.170 C 
ATOM      7  C   LIG    1        3.062  -3.803   3.015  0.00  0.00    +0.090 C 
ATOM      8  C   LIG    1        1.651  -3.836   5.070  0.00  0.00    +0.090 C 
ATOM      9  H   LIG    1        0.485  -2.913   2.773  0.00  0.00    +0.430 HD
ATOM     10  S   LIG    1        2.338  -0.311   4.073  0.00  0.00    +0.070 S 
ENDBRANCH   1   3
BRANCH   1  17
ATOM     11  C   LIG    1       -0.013   1.086   0.008  0.00  0.00    +0.020 C 
ATOM     12  C   LIG    1       -0.729   1.579   1.267  0.00  0.00    +0.010 C 
ATOM     13  C   LIG    1       -2.164   1.050   1.278  0.00  0.00    +0.010 C 
ATOM     14  C   LIG    1       -2.880   1.543   2.537  0.00  0.00    +0.010 C 
ATOM     15  C   LIG    1       -2.140   1.036   3.776  0.00  0.00    +0.020 C 
ATOM     16  C   LIG    1       -0.705   1.566   3.765  0.00  0.00    +0.040 C 
ATOM     17  C   LIG    1        0.011   1.072   2.506  0.00  0.00    +0.240 C 
ENDBRANCH   1  17
TORSDOF 2
