REMARK  Name = ZINCqH00000023U4.0
REMARK                            x       y       z     vdW  Elec       q    Type
REMARK                         _______ _______ _______ _____ _____    ______ ____
ROOT
ATOM      1  N   LIG    1        3.071   3.469  -0.009  0.00  0.00    -0.690 N 
ATOM      2  H   LIG    1        3.714   2.743  -0.019  0.00  0.00    +0.410 HD
ATOM      3  C   LIG    1        1.751   3.200   0.002  0.00  0.00    +0.600 C 
ATOM      4  O   LIG    1        0.944   4.112   0.014  0.00  0.00    -0.520 OA
ENDROOT
BRANCH   1  14
ATOM      5  C   LIG    1        5.227   6.452   1.089  0.00  0.00    +0.070 C 
ATOM      6  C   LIG    1        4.949   5.037   0.576  0.00  0.00    -0.090 C 
ATOM      7  C   LIG    1        5.478   4.781  -0.850  0.00  0.00    +0.150 C 
ATOM      8  O   LIG    1        5.707   3.390  -1.080  0.00  0.00    -0.360 OA
ATOM      9  C   LIG    1        5.427   2.972  -2.417  0.00  0.00    +0.210 C 
ATOM     10  C   LIG    1        3.936   3.153  -2.690  0.00  0.00    -0.020 C 
ATOM     11  C   LIG    1        3.538   4.613  -2.560  0.00  0.00    +0.030 C 
ATOM     12  C   LIG    1        4.134   5.311  -1.345  0.00  0.00    -0.030 C 
ATOM     13  C   LIG    1        5.341   3.951   1.581  0.00  0.00    +0.060 C 
ATOM     14  C   LIG    1        3.536   4.859  -0.007  0.00  0.00    +0.240 C 
ENDBRANCH   1  14
BRANCH   3  15
ATOM     15  C   LIG    1        1.285   1.810  -0.001  0.00  0.00    -0.080 A 
ATOM     16  C   LIG    1       -0.017   1.399   0.010  0.00  0.00    -0.090 A 
ATOM     17  C   LIG    1        0.002  -0.004   0.002  0.00  0.00    -0.040 A 
ATOM     18  C   LIG    1        1.299  -0.384  -0.012  0.00  0.00    +0.220 A 
ATOM     19  O   LIG    1        2.069   0.712  -0.014  0.00  0.00    -0.160 OA
BRANCH  16  20
ATOM     20  C   LIG    1       -1.238   2.282   0.021  0.00  0.00    +0.300 C 
BRANCH  20  21
ATOM     21  O   LIG    1       -2.414   1.470   0.023  0.00  0.00    -0.310 OA
BRANCH  21  22
ATOM     22  C   LIG    1       -3.610   2.115   0.032  0.00  0.00    +0.130 A 
ATOM     23  C   LIG    1       -3.651   3.501   0.045  0.00  0.00    -0.080 A 
ATOM     24  C   LIG    1       -4.868   4.155   0.049  0.00  0.00    +0.050 A 
ATOM     25  C   LIG    1       -6.045   3.428   0.051  0.00  0.00    -0.040 A 
ATOM     26  C   LIG    1       -6.006   2.046   0.044  0.00  0.00    +0.050 A 
ATOM     27  C   LIG    1       -4.791   1.388   0.035  0.00  0.00    -0.020 A 
ENDBRANCH  21  22
ENDBRANCH  20  21
ENDBRANCH  16  20
ENDBRANCH   3  15
TORSDOF 5
