REMARK  Name = ZINCrH00000tj1eK.0
REMARK                            x       y       z     vdW  Elec       q    Type
REMARK                         _______ _______ _______ _____ _____    ______ ____
ROOT
ATOM      1  N   LIG    1       -0.870   2.826   3.761  0.00  0.00    -0.490 N 
ATOM      2  C   LIG    1       -0.959   1.364   3.643  0.00  0.00    +0.220 C 
ATOM      3  C   LIG    1       -0.165   0.904   2.418  0.00  0.00    +0.220 C 
ATOM      4  N   LIG    1       -0.700   1.560   1.217  0.00  0.00    -0.540 NA
ATOM      5  C   LIG    1       -0.612   3.022   1.334  0.00  0.00    +0.200 C 
ATOM      6  C   LIG    1       -1.405   3.482   2.559  0.00  0.00    +0.220 C 
ENDROOT
BRANCH   1  10
ATOM      7  C   LIG    1       -2.819   4.169   7.186  0.00  0.00    -0.070 A 
ATOM      8  C   LIG    1       -2.203   5.075   6.343  0.00  0.00    +0.130 A 
ATOM      9  C   LIG    1       -1.556   4.633   5.206  0.00  0.00    +0.010 A 
ATOM     10  C   LIG    1       -1.524   3.277   4.910  0.00  0.00    +0.170 A 
ATOM     11  C   LIG    1       -2.148   2.369   5.756  0.00  0.00    -0.020 A 
ATOM     12  C   LIG    1       -2.789   2.818   6.895  0.00  0.00    +0.130 A 
BRANCH   7  14
ATOM     13  O   LIG    1       -3.540   5.836   8.662  0.00  0.00    -0.160 OA
ATOM     14  N   LIG    1       -3.512   4.646   8.404  0.00  0.00    +0.030 N 
ATOM     15  O   LIG    1       -4.055   3.849   9.148  0.00  0.00    -0.160 OA
ENDBRANCH   7  14
ENDBRANCH   1  10
BRANCH   4  16
ATOM     16  C   LIG    1       -0.013   1.086   0.008  0.00  0.00    +0.360 C 
BRANCH  16  17
ATOM     17  C   LIG    1       -0.742   1.585  -1.213  0.00  0.00    +0.180 A 
ATOM     18  N   LIG    1       -0.517   2.707  -1.837  0.00  0.00    -0.270 NA
ATOM     19  N   LIG    1       -1.322   2.813  -2.836  0.00  0.00    -0.260 NA
ATOM     20  C   LIG    1       -2.096   1.750  -2.884  0.00  0.00    +0.240 A 
ATOM     21  O   LIG    1       -1.737   0.950  -1.858  0.00  0.00    -0.210 OA
BRANCH  20  22
ATOM     22  C   LIG    1       -3.150   1.482  -3.873  0.00  0.00    -0.140 A 
ATOM     23  C   LIG    1       -3.489   2.304  -4.904  0.00  0.00    +0.110 A 
ATOM     24  C   LIG    1       -4.511   1.831  -5.697  0.00  0.00    +0.060 A 
ATOM     25  C   LIG    1       -5.011   0.644  -5.334  0.00  0.00    -0.190 A 
ATOM     26 BR   LIG    1       -6.414  -0.260  -6.222  0.00  0.00    +0.030 Br
ATOM     27  S   LIG    1       -4.164   0.046  -3.914  0.00  0.00    +0.240 S 
ENDBRANCH  20  22
ENDBRANCH  16  17
ENDBRANCH   4  16
TORSDOF 5
