REMARK  Name = ZINCrD0000071Vxt.0
REMARK                            x       y       z     vdW  Elec       q    Type
REMARK                         _______ _______ _______ _____ _____    ______ ____
ROOT
ATOM      1  C   LIG    1       -3.632   2.612   3.155  0.00  0.00    +0.540 C 
ATOM      2  O   LIG    1       -3.754   2.979   4.308  0.00  0.00    -0.490 OA
ENDROOT
BRANCH   1   7
ATOM      3  C   LIG    1       -0.120   1.843   2.465  0.00  0.00    -0.220 A 
ATOM      4  C   LIG    1       -0.718   1.572   1.248  0.00  0.00    +0.130 A 
ATOM      5  N   LIG    1       -2.032   1.821   1.357  0.00  0.00    -0.510 N 
ATOM      6  H   LIG    1       -2.684   1.716   0.646  0.00  0.00    +0.430 HD
ATOM      7  C   LIG    1       -2.309   2.245   2.639  0.00  0.00    -0.050 A 
ATOM      8  C   LIG    1       -0.013   1.086   0.008  0.00  0.00    +0.160 C 
ATOM      9  C   LIG    1       -1.141   2.271   3.343  0.00  0.00    -0.010 A 
ATOM     10  C   LIG    1       -0.973   2.678   4.784  0.00  0.00    +0.140 C 
BRANCH   3  11
ATOM     11  C   LIG    1        1.311   1.710   2.786  0.00  0.00    +0.550 C 
ATOM     12  O   LIG    1        2.061   2.651   2.619  0.00  0.00    -0.500 OA
BRANCH  11  13
ATOM     13  O   LIG    1        1.788   0.544   3.266  0.00  0.00    -0.350 OA
BRANCH  13  15
ATOM     14  C   LIG    1        3.563  -0.905   4.091  0.00  0.00    +0.070 C 
ATOM     15  C   LIG    1        3.209   0.485   3.560  0.00  0.00    +0.200 C 
ENDBRANCH  13  15
ENDBRANCH  11  13
ENDBRANCH   3  11
ENDBRANCH   1   7
BRANCH   1  16
ATOM     16  O   LIG    1       -4.713   2.543   2.351  0.00  0.00    -0.340 OA
BRANCH  16  17
ATOM     17  C   LIG    1       -5.990   2.921   2.929  0.00  0.00    +0.240 C 
BRANCH  17  18
ATOM     18  C   LIG    1       -7.072   2.781   1.890  0.00  0.00    +0.430 C 
ATOM     19  O   LIG    1       -6.795   2.400   0.772  0.00  0.00    -0.450 OA
BRANCH  18  20
ATOM     20  C   LIG    1       -8.415   3.095   2.220  0.00  0.00    -0.280 A 
ATOM     21  C   LIG    1       -8.888   3.531   3.439  0.00  0.00    +0.330 A 
ATOM     22  N   LIG    1      -10.218   3.728   3.363  0.00  0.00    -0.560 N 
ATOM     23  H   LIG    1      -10.772   4.037   4.097  0.00  0.00    +0.420 HD
ATOM     24  C   LIG    1      -10.686   3.422   2.101  0.00  0.00    +0.070 A 
ATOM     25  C   LIG    1      -11.952   3.451   1.525  0.00  0.00    +0.000 A 
ATOM     26  C   LIG    1      -12.117   3.080   0.208  0.00  0.00    +0.030 A 
ATOM     27  C   LIG    1      -11.031   2.678  -0.554  0.00  0.00    +0.000 A 
ATOM     28  C   LIG    1       -9.769   2.643  -0.001  0.00  0.00    +0.060 A 
ATOM     29  C   LIG    1       -9.588   3.014   1.328  0.00  0.00    -0.060 A 
ENDBRANCH  18  20
ENDBRANCH  17  18
ENDBRANCH  16  17
ENDBRANCH   1  16
TORSDOF 8
