REMARK  Name = ZINCpk00000KfLFT.0
REMARK                            x       y       z     vdW  Elec       q    Type
REMARK                         _______ _______ _______ _____ _____    ______ ____
ROOT
ATOM      1  O   LIG    1       -0.732  -7.460   0.436  0.00  0.00    -0.570 OA
ATOM      2  C   LIG    1       -1.869  -7.269   0.050  0.00  0.00    +0.710 C 
ATOM      3  N   LIG    1       -2.848  -8.133   0.385  0.00  0.00    -0.600 N 
ATOM      4  N   LIG    1       -2.151  -6.194  -0.712  0.00  0.00    -0.740 N 
ATOM      5  H   LIG    1       -3.039  -6.085  -1.087  0.00  0.00    +0.390 HD
ENDROOT
BRANCH   4   6
ATOM      6  C   LIG    1       -1.116  -5.191  -0.974  0.00  0.00    +0.340 C 
ATOM      7  C   LIG    1       -1.443  -4.438  -2.270  0.00  0.00    +0.020 C 
ATOM      8  C   LIG    1       -0.514  -3.229  -2.407  0.00  0.00    +0.040 C 
ATOM      9  C   LIG    1       -0.888  -2.174  -1.359  0.00  0.00    +0.110 C 
ATOM     10  C   LIG    1       -0.983  -2.851  -0.014  0.00  0.00    +0.100 A 
ATOM     11  N   LIG    1       -0.973  -2.280   1.202  0.00  0.00    -0.360 N 
ATOM     12  N   LIG    1       -1.071  -3.304   2.157  0.00  0.00    -0.300 NA
ATOM     13  C   LIG    1       -1.133  -4.450   1.526  0.00  0.00    +0.260 A 
ATOM     14  C   LIG    1       -1.077  -4.194   0.158  0.00  0.00    -0.250 A 
BRANCH  11  15
ATOM     15  C   LIG    1       -0.883  -0.845   1.481  0.00  0.00    +0.330 C 
BRANCH  15  16
ATOM     16  C   LIG    1        0.587  -0.444   1.620  0.00  0.00    +0.170 C 
BRANCH  16  17
ATOM     17  O   LIG    1        0.675   0.956   1.892  0.00  0.00    -0.570 OA
ATOM     18  H   LIG    1        1.580   1.281   1.992  0.00  0.00    +0.390 HD
ENDBRANCH  16  17
ENDBRANCH  15  16
ENDBRANCH  11  15
ENDBRANCH   4   6
BRANCH   3  19
ATOM     19  C   LIG    1       -2.570  -9.231   1.315  0.00  0.00    +0.210 C 
ATOM     20  C   LIG    1       -1.300  -9.134   2.163  0.00  0.00    +0.040 C 
ATOM     21  C   LIG    1       -1.373 -10.133   1.005  0.00  0.00    +0.000 C 
ENDBRANCH   3  19
BRANCH   3  22
ATOM     22  C   LIG    1       -4.190  -7.975  -0.181  0.00  0.00    +0.290 C 
BRANCH  22  23
ATOM     23  C   LIG    1       -4.307  -8.813  -1.456  0.00  0.00    -0.050 C 
ATOM     24  C   LIG    1       -5.708  -8.639  -2.104  0.00  0.00    +0.020 C 
ATOM     25  C   LIG    1       -5.378  -8.909  -3.594  0.00  0.00    +0.200 C 
ATOM     26  O   LIG    1       -4.076  -8.337  -3.800  0.00  0.00    -0.380 OA
ATOM     27  C   LIG    1       -3.368  -8.274  -2.556  0.00  0.00    +0.190 C 
ENDBRANCH  22  23
ENDBRANCH   3  22
TORSDOF 7
