REMARK  Name = ZINCrH000004tGlk.0
REMARK                            x       y       z     vdW  Elec       q    Type
REMARK                         _______ _______ _______ _____ _____    ______ ____
ROOT
ATOM      1  O   LIG    1        1.026   1.964   0.003  0.00  0.00    -0.530 OA
ATOM      2  C   LIG    1       -0.016   1.344   0.009  0.00  0.00    +0.520 C 
ATOM      3  N   LIG    1        0.002  -0.004   0.002  0.00  0.00    -0.620 N 
ATOM      4  C   LIG    1       -1.249  -0.779   0.016  0.00  0.00    +0.250 C 
ATOM      5  C   LIG    1       -1.163  -1.825   1.127  0.00  0.00    +0.220 C 
ATOM      6  O   LIG    1        0.046  -2.573   0.979  0.00  0.00    -0.370 OA
ATOM      7  C   LIG    1        1.237  -1.792   1.104  0.00  0.00    +0.190 C 
ATOM      8  C   LIG    1        1.274  -0.744  -0.014  0.00  0.00    +0.270 C 
ENDROOT
BRANCH   7   9
ATOM      9  C   LIG    1        2.442  -2.690   0.992  0.00  0.00    -0.090 A 
ATOM     10  C   LIG    1        2.450  -3.726   0.076  0.00  0.00    +0.040 A 
ATOM     11  C   LIG    1        3.557  -4.547  -0.030  0.00  0.00    +0.000 A 
ATOM     12  C   LIG    1        4.653  -4.338   0.786  0.00  0.00    +0.010 A 
ATOM     13  C   LIG    1        4.644  -3.306   1.705  0.00  0.00    +0.010 A 
ATOM     14  C   LIG    1        3.538  -2.482   1.808  0.00  0.00    +0.020 A 
ENDBRANCH   7   9
BRANCH   2  15
ATOM     15  C   LIG    1       -1.331   2.079   0.020  0.00  0.00    +0.060 C 
BRANCH  15  16
ATOM     16  C   LIG    1       -1.072   3.587   0.027  0.00  0.00    +0.060 C 
BRANCH  16  17
ATOM     17  C   LIG    1       -2.408   4.334   0.037  0.00  0.00    +0.190 C 
BRANCH  17  18
ATOM     18  C   LIG    1       -2.152   5.819   0.044  0.00  0.00    +0.190 A 
ATOM     19  N   LIG    1       -2.020   6.590  -1.006  0.00  0.00    -0.470 NA
ATOM     20  C   LIG    1       -1.808   7.835  -0.519  0.00  0.00    +0.240 A 
ATOM     21  N   LIG    1       -1.817   7.744   0.788  0.00  0.00    -0.370 NA
ATOM     22  O   LIG    1       -2.012   6.595   1.123  0.00  0.00    +0.090 OA
BRANCH  20  23
ATOM     23  C   LIG    1       -1.602   9.064  -1.312  0.00  0.00    -0.140 A 
ATOM     24  C   LIG    1       -1.392  10.295  -0.801  0.00  0.00    +0.060 A 
ATOM     25  C   LIG    1       -1.221  11.288  -1.741  0.00  0.00    +0.010 A 
ATOM     26  C   LIG    1       -1.299  10.883  -3.014  0.00  0.00    -0.030 A 
ATOM     27  S   LIG    1       -1.598   9.151  -3.069  0.00  0.00    +0.190 S 
ENDBRANCH  20  23
ENDBRANCH  17  18
ENDBRANCH  16  17
ENDBRANCH  15  16
ENDBRANCH   2  15
TORSDOF 6
