REMARK  Name = ZINCrH000004qVEG.0
REMARK                            x       y       z     vdW  Elec       q    Type
REMARK                         _______ _______ _______ _____ _____    ______ ____
ROOT
ATOM      1  C   LIG    1       -0.117   1.121   0.734  0.00  0.00    +0.490 C 
ATOM      2  N   LIG    1        0.002  -0.004   0.002  0.00  0.00    -0.670 N 
ATOM      3  H   LIG    1       -0.773  -0.373  -0.450  0.00  0.00    +0.410 HD
ATOM      4  O   LIG    1        0.827   1.530   1.377  0.00  0.00    -0.490 OA
ENDROOT
BRANCH   2   5
ATOM      5  C   LIG    1        1.244  -0.640  -0.106  0.00  0.00    +0.140 A 
ATOM      6  C   LIG    1        2.412   0.110  -0.111  0.00  0.00    +0.020 A 
ATOM      7  C   LIG    1        3.636  -0.521  -0.212  0.00  0.00    +0.030 A 
ATOM      8  C   LIG    1        3.699  -1.899  -0.319  0.00  0.00    +0.000 A 
ATOM      9  C   LIG    1        2.537  -2.648  -0.320  0.00  0.00    -0.090 A 
ATOM     10  C   LIG    1        1.310  -2.023  -0.214  0.00  0.00    +0.010 A 
BRANCH   9  11
ATOM     11  C   LIG    1        2.609  -4.149  -0.437  0.00  0.00    +0.350 C 
BRANCH  11  12
ATOM     12  N   LIG    1        2.567  -4.532  -1.850  0.00  0.00    -0.620 N 
ATOM     13  C   LIG    1        3.751  -4.685  -2.703  0.00  0.00    +0.250 C 
ATOM     14  C   LIG    1        3.221  -4.657  -4.154  0.00  0.00    +0.040 C 
ATOM     15  C   LIG    1        1.765  -5.141  -3.967  0.00  0.00    +0.050 C 
ATOM     16  C   LIG    1        1.438  -4.793  -2.531  0.00  0.00    +0.520 C 
ATOM     17  O   LIG    1        0.319  -4.753  -2.064  0.00  0.00    -0.530 OA
ENDBRANCH  11  12
ENDBRANCH   9  11
ENDBRANCH   2   5
BRANCH   1  18
ATOM     18  C   LIG    1       -1.422   1.875   0.750  0.00  0.00    +0.330 C 
BRANCH  18  28
ATOM     19  C   LIG    1       -2.056   1.900   3.759  0.00  0.00    +0.130 C 
ATOM     20  C   LIG    1       -1.573   3.078   2.953  0.00  0.00    +0.090 A 
ATOM     21  C   LIG    1       -1.349   4.307   3.443  0.00  0.00    -0.050 A 
ATOM     22  C   LIG    1       -0.900   5.139   2.324  0.00  0.00    -0.100 A 
ATOM     23  C   LIG    1       -0.525   6.478   2.200  0.00  0.00    +0.050 A 
ATOM     24  C   LIG    1       -0.146   6.966   0.981  0.00  0.00    -0.030 A 
ATOM     25  C   LIG    1       -0.129   6.141  -0.135  0.00  0.00    +0.020 A 
ATOM     26  C   LIG    1       -0.494   4.816  -0.034  0.00  0.00    -0.020 A 
ATOM     27  C   LIG    1       -0.884   4.298   1.196  0.00  0.00    +0.110 A 
ATOM     28  N   LIG    1       -1.295   3.052   1.613  0.00  0.00    -0.470 N 
ENDBRANCH  18  28
ENDBRANCH   1  18
TORSDOF 5
