REMARK  Name = ZINCpe00000MJJNA.0
REMARK                            x       y       z     vdW  Elec       q    Type
REMARK                         _______ _______ _______ _____ _____    ______ ____
ROOT
ATOM      1  C   LIG    1        6.768  -3.268   1.135  0.00  0.00    +0.280 C 
ATOM      2  C   LIG    1        6.519  -4.051  -0.157  0.00  0.00    +0.030 C 
ATOM      3  C   LIG    1        6.899  -3.178  -1.356  0.00  0.00    +0.050 C 
ATOM      4  C   LIG    1        6.085  -1.883  -1.316  0.00  0.00    +0.170 C 
ATOM      5  N   LIG    1        6.359  -1.170  -0.062  0.00  0.00    -0.500 NA
ATOM      6  C   LIG    1        5.958  -1.970   1.102  0.00  0.00    +0.190 C 
ENDROOT
BRANCH   1   9
ATOM      7  C   LIG    1        6.322  -4.908   4.248  0.00  0.00    -0.020 A 
ATOM      8  N   LIG    1        6.936  -4.077   3.429  0.00  0.00    -0.260 NA
ATOM      9  N   LIG    1        6.353  -4.075   2.284  0.00  0.00    -0.270 N 
ATOM     10  C   LIG    1        5.300  -4.920   2.295  0.00  0.00    +0.170 A 
ATOM     11  C   LIG    1        5.245  -5.477   3.528  0.00  0.00    -0.020 A 
BRANCH   7  15
ATOM     12  C   LIG    1        8.109  -4.851   7.601  0.00  0.00    +0.290 C 
ATOM     13  N   LIG    1        7.746  -4.570   6.210  0.00  0.00    -0.720 N 
ATOM     14  H   LIG    1        8.267  -3.938   5.690  0.00  0.00    +0.410 HD
ATOM     15  C   LIG    1        6.688  -5.191   5.651  0.00  0.00    +0.600 C 
ATOM     16  O   LIG    1        6.035  -5.984   6.301  0.00  0.00    -0.530 OA
ENDBRANCH   7  15
ENDBRANCH   1   9
BRANCH   5  17
ATOM     17  C   LIG    1        5.701   0.144  -0.049  0.00  0.00    +0.280 C 
BRANCH  17  18
ATOM     18  C   LIG    1        4.206  -0.043  -0.037  0.00  0.00    +0.490 C 
ATOM     19  N   LIG    1        3.393   1.032  -0.024  0.00  0.00    -0.630 N 
ATOM     20  H   LIG    1        3.770   1.926  -0.023  0.00  0.00    +0.420 HD
ATOM     21  O   LIG    1        3.734  -1.160  -0.038  0.00  0.00    -0.510 OA
BRANCH  19  22
ATOM     22  C   LIG    1        2.009   0.860  -0.013  0.00  0.00    +0.240 A 
ATOM     23  N   LIG    1        1.101   1.800   0.001  0.00  0.00    -0.390 NA
ATOM     24  O   LIG    1       -0.016   1.337   0.009  0.00  0.00    +0.100 OA
ATOM     25  C   LIG    1        0.002  -0.004   0.002  0.00  0.00    -0.020 A 
ATOM     26  C   LIG    1       -1.194  -0.921   0.009  0.00  0.00    +0.190 C 
ATOM     27  C   LIG    1        1.303  -0.373  -0.012  0.00  0.00    -0.040 A 
ENDBRANCH  19  22
ENDBRANCH  17  18
ENDBRANCH   5  17
TORSDOF 5
