REMARK  Name = ZINCpe000000ZBhQ.0
REMARK                            x       y       z     vdW  Elec       q    Type
REMARK                         _______ _______ _______ _____ _____    ______ ____
ROOT
ATOM      1  O   LIG    1        1.827  -5.747   1.086  0.00  0.00    -0.530 OA
ATOM      2  C   LIG    1        1.672  -4.614   1.491  0.00  0.00    +0.530 C 
ATOM      3  C   LIG    1        1.468  -3.477   0.526  0.00  0.00    +0.050 C 
ATOM      4  C   LIG    1        0.042  -2.930   0.667  0.00  0.00    +0.240 C 
ATOM      5  C   LIG    1       -0.849  -4.032   1.282  0.00  0.00    +0.040 C 
ATOM      6  C   LIG    1       -0.830  -3.761   2.796  0.00  0.00    +0.040 C 
ATOM      7  C   LIG    1        0.064  -2.515   2.970  0.00  0.00    +0.230 C 
ATOM      8  C   LIG    1        1.491  -2.972   3.275  0.00  0.00    +0.280 C 
ATOM      9  N   LIG    1        0.043  -1.840   1.659  0.00  0.00    -0.610 N 
ATOM     10  C   LIG    1        0.022  -0.514   1.420  0.00  0.00    +0.530 C 
ATOM     11  O   LIG    1        0.021   0.269   2.346  0.00  0.00    -0.510 OA
ATOM     12  N   LIG    1        1.680  -4.350   2.823  0.00  0.00    -0.730 N 
ATOM     13  H   LIG    1        1.810  -5.066   3.465  0.00  0.00    +0.410 HD
ENDROOT
BRANCH  10  14
ATOM     14  C   LIG    1        0.002  -0.004   0.002  0.00  0.00    +0.410 C 
BRANCH  14  15
ATOM     15  N   LIG    1       -0.018   1.461   0.010  0.00  0.00    -0.130 N 
ATOM     16  N   LIG    1       -1.078   2.191   0.018  0.00  0.00    -0.040 NA
ATOM     17  N   LIG    1       -0.731   3.433   0.027  0.00  0.00    -0.260 NA
ATOM     18  C   LIG    1        0.609   3.472   0.014  0.00  0.00    +0.210 A 
ATOM     19  N   LIG    1        1.023   2.220   0.004  0.00  0.00    -0.290 NA
BRANCH  18  20
ATOM     20  C   LIG    1        1.461   4.688   0.013  0.00  0.00    -0.010 A 
ATOM     21  C   LIG    1        2.849   4.568   0.006  0.00  0.00    +0.070 A 
ATOM     22  C   LIG    1        3.637   5.701   0.000  0.00  0.00    +0.030 A 
ATOM     23  C   LIG    1        3.050   6.955   0.012  0.00  0.00    -0.020 A 
ATOM     24  C   LIG    1        1.672   7.079   0.024  0.00  0.00    +0.030 A 
ATOM     25 CL   LIG    1        4.047   8.377   0.012  0.00  0.00    -0.060 Cl
ATOM     26  C   LIG    1        0.875   5.952   0.025  0.00  0.00    +0.090 A 
ENDBRANCH  18  20
ENDBRANCH  14  15
ENDBRANCH  10  14
TORSDOF 3
