REMARK  Name = ZINCpe000000UwJz.0
REMARK                            x       y       z     vdW  Elec       q    Type
REMARK                         _______ _______ _______ _____ _____    ______ ____
ROOT
ATOM      1  C   LIG    1        1.958  -0.460   6.165  0.00  0.00    +0.560 C 
ATOM      2  N   LIG    1        3.254  -0.094   6.199  0.00  0.00    -0.610 N 
ATOM      3  C   LIG    1        3.780   0.913   5.264  0.00  0.00    +0.280 C 
ATOM      4  C   LIG    1        4.528   1.982   6.077  0.00  0.00    +0.180 C 
ATOM      5  N   LIG    1        5.540   1.329   6.919  0.00  0.00    -0.520 NA
ATOM      6  C   LIG    1        4.917   0.433   7.903  0.00  0.00    +0.180 C 
ATOM      7  C   LIG    1        4.183  -0.694   7.169  0.00  0.00    +0.300 C 
ATOM      8  O   LIG    1        1.516  -1.214   7.010  0.00  0.00    -0.530 OA
ENDROOT
BRANCH   1  12
ATOM      9  C   LIG    1       -0.584   1.018   3.099  0.00  0.00    +0.080 A 
ATOM     10  C   LIG    1        0.758   0.774   2.831  0.00  0.00    +0.010 A 
ATOM     11  C   LIG    1        1.586   0.300   3.824  0.00  0.00    +0.040 A 
ATOM     12  C   LIG    1        1.074   0.053   5.101  0.00  0.00    -0.110 A 
ATOM     13  C   LIG    1       -0.277   0.294   5.368  0.00  0.00    +0.060 A 
ATOM     14  C   LIG    1       -1.099   0.773   4.372  0.00  0.00    +0.120 A 
ATOM     15  F   LIG    1       -2.405   1.006   4.628  0.00  0.00    -0.120 F 
BRANCH   9  17
ATOM     16  C   LIG    1       -1.464   0.573   0.957  0.00  0.00    +0.220 C 
ATOM     17  N   LIG    1       -1.417   1.502   2.094  0.00  0.00    -0.510 N 
ATOM     18  C   LIG    1       -0.997   2.841   1.663  0.00  0.00    +0.220 C 
ENDBRANCH   9  17
ENDBRANCH   1  12
BRANCH   5  19
ATOM     19  C   LIG    1        6.395   2.324   7.581  0.00  0.00    +0.150 C 
ATOM     20  C   LIG    1        7.561   1.622   8.298  0.00  0.00    +0.080 C 
ATOM     21  C   LIG    1        8.613   2.681   8.684  0.00  0.00    -0.310 C 
ATOM     22  S   LIG    1        8.428   4.011   7.442  0.00  0.00    +2.390 S 
ATOM     23  O   LIG    1        9.577   4.037   6.606  0.00  0.00    -0.930 OA
ATOM     24  O   LIG    1        7.992   5.199   8.086  0.00  0.00    -0.930 OA
ATOM     25  C   LIG    1        7.026   3.268   6.525  0.00  0.00    -0.300 C 
ENDBRANCH   5  19
TORSDOF 3
