REMARK  Name = ZINCrm000000HwiT.1
REMARK                            x       y       z     vdW  Elec       q    Type
REMARK                         _______ _______ _______ _____ _____    ______ ____
ROOT
ATOM      1  N   LIG    1       -5.970   4.854   2.364  0.00  0.00    -0.750 N 
ATOM      2  H   LIG    1       -5.438   5.305   3.038  0.00  0.00    +0.400 HD
ATOM      3  C   LIG    1       -5.712   3.568   2.053  0.00  0.00    +0.530 C 
ATOM      4  O   LIG    1       -6.377   3.003   1.210  0.00  0.00    -0.510 OA
ENDROOT
BRANCH   3   5
ATOM      5  C   LIG    1       -4.598   2.832   2.751  0.00  0.00    -0.010 C 
ATOM      6  C   LIG    1       -4.433   1.376   2.282  0.00  0.00    +0.160 C 
ATOM      7  C   LIG    1       -2.920   1.611   2.353  0.00  0.00    -0.580 C 
ATOM      8  C   LIG    1       -2.140   0.972   1.206  0.00  0.00    +0.110 C 
ATOM      9  C   LIG    1       -0.699   1.479   1.216  0.00  0.00    +0.160 C 
ATOM     10  C   LIG    1        0.043   0.970   2.448  0.00  0.00    +0.100 C 
ATOM     11  C   LIG    1       -0.464   1.685   3.703  0.00  0.00    -0.300 C 
ATOM     12  S   LIG    1       -2.203   1.228   3.975  0.00  0.00    +2.430 S 
ATOM     13  O   LIG    1       -2.761   2.110   4.939  0.00  0.00    -0.910 OA
ATOM     14  O   LIG    1       -2.278  -0.175   4.186  0.00  0.00    -0.900 OA
ATOM     15  C   LIG    1       -3.207   3.103   2.150  0.00  0.00    +0.120 C 
BRANCH   9  16
ATOM     16  N   LIG    1       -0.012   1.005   0.008  0.00  0.00    -0.630 N 
ATOM     17  H   LIG    1       -0.500   1.339  -0.810  0.00  0.00    +0.440 HD
ATOM     18  H   LIG    1        0.935   1.354   0.000  0.00  0.00    +0.440 HD
ATOM     19  H   LIG    1        0.002  -0.004   0.002  0.00  0.00    +0.440 HD
ENDBRANCH   9  16
ENDBRANCH   3   5
BRANCH   1  20
ATOM     20  C   LIG    1       -7.054   5.569   1.686  0.00  0.00    +0.320 C 
BRANCH  20  21
ATOM     21  C   LIG    1       -7.134   7.000   2.221  0.00  0.00    +0.050 C 
ATOM     22  C   LIG    1       -7.408   6.967   3.726  0.00  0.00    +0.100 C 
ATOM     23  C   LIG    1       -8.265   7.747   1.512  0.00  0.00    +0.110 C 
BRANCH  21  28
ATOM     24  C   LIG    1       -4.588   9.757   2.299  0.00  0.00    +0.010 C 
ATOM     25  C   LIG    1       -4.236   9.787   0.808  0.00  0.00    +0.050 C 
ATOM     26  C   LIG    1       -4.231   8.355   0.266  0.00  0.00    +0.050 C 
ATOM     27  C   LIG    1       -5.594   7.711   0.527  0.00  0.00    +0.250 C 
ATOM     28  N   LIG    1       -5.860   7.688   1.970  0.00  0.00    -0.380 N 
ATOM     29  H   LIG    1       -5.115   7.196   2.440  0.00  0.00    +0.410 HD
ATOM     30  C   LIG    1       -5.939   9.061   2.484  0.00  0.00    +0.270 C 
BRANCH  24  32
ATOM     31  C   LIG    1       -2.185   9.752   2.982  0.00  0.00    +0.030 C 
ATOM     32  C   LIG    1       -3.509   8.989   3.064  0.00  0.00    -0.010 C 
ENDBRANCH  24  32
ENDBRANCH  21  28
ENDBRANCH  20  21
ENDBRANCH   1  20
TORSDOF 6
