REMARK  Name = ZINCrm000000HwiT.0
REMARK                            x       y       z     vdW  Elec       q    Type
REMARK                         _______ _______ _______ _____ _____    ______ ____
ROOT
ATOM      1  N   LIG    1       -5.077   5.995   0.458  0.00  0.00    -0.750 N 
ATOM      2  H   LIG    1       -5.443   5.452  -0.257  0.00  0.00    +0.400 HD
ATOM      3  C   LIG    1       -3.787   5.850   0.822  0.00  0.00    +0.530 C 
ATOM      4  O   LIG    1       -3.329   6.529   1.716  0.00  0.00    -0.500 OA
ENDROOT
BRANCH   3   5
ATOM      5  C   LIG    1       -2.914   4.845   0.116  0.00  0.00    -0.020 C 
ATOM      6  C   LIG    1       -1.470   4.803   0.647  0.00  0.00    +0.160 C 
ATOM      7  C   LIG    1       -1.551   3.279   0.507  0.00  0.00    -0.580 C 
ATOM      8  C   LIG    1       -0.888   2.517   1.653  0.00  0.00    +0.110 C 
ATOM      9  C   LIG    1       -1.252   1.035   1.561  0.00  0.00    +0.160 C 
ATOM     10  C   LIG    1       -0.616   0.399   0.329  0.00  0.00    +0.090 C 
ATOM     11  C   LIG    1       -1.321   0.888  -0.939  0.00  0.00    -0.300 C 
ATOM     12  S   LIG    1       -1.027   2.673  -1.121  0.00  0.00    +2.440 S 
ATOM     13  O   LIG    1       -1.916   3.184  -2.104  0.00  0.00    -0.910 OA
ATOM     14  O   LIG    1        0.370   2.893  -1.260  0.00  0.00    -0.900 OA
ATOM     15  C   LIG    1       -3.071   3.410   0.649  0.00  0.00    +0.120 C 
BRANCH   9  16
ATOM     16  N   LIG    1       -0.769   0.346   2.765  0.00  0.00    -0.630 N 
ATOM     17  H   LIG    1       -1.022  -0.630   2.719  0.00  0.00    +0.440 HD
ATOM     18  H   LIG    1       -1.188   0.763   3.583  0.00  0.00    +0.440 HD
ATOM     19  H   LIG    1        0.235   0.430   2.821  0.00  0.00    +0.440 HD
ENDBRANCH   9  16
ENDBRANCH   3   5
BRANCH   1  20
ATOM     20  C   LIG    1       -5.926   6.972   1.144  0.00  0.00    +0.310 C 
BRANCH  20  21
ATOM     21  C   LIG    1       -7.294   7.028   0.461  0.00  0.00    +0.050 C 
ATOM     22  C   LIG    1       -8.133   8.141   1.090  0.00  0.00    +0.110 C 
ATOM     23  C   LIG    1       -8.008   5.687   0.639  0.00  0.00    +0.100 C 
BRANCH  21  28
ATOM     24  C   LIG    1       -8.246   7.591  -3.126  0.00  0.00    -0.020 C 
ATOM     25  C   LIG    1       -7.467   8.886  -3.370  0.00  0.00    +0.040 C 
ATOM     26  C   LIG    1       -6.129   8.813  -2.628  0.00  0.00    +0.060 C 
ATOM     27  C   LIG    1       -6.390   8.565  -1.141  0.00  0.00    +0.240 C 
ATOM     28  N   LIG    1       -7.114   7.300  -0.972  0.00  0.00    -0.380 N 
ATOM     29  H   LIG    1       -6.583   6.552  -1.391  0.00  0.00    +0.410 HD
ATOM     30  C   LIG    1       -8.428   7.388  -1.620  0.00  0.00    +0.250 C 
BRANCH  24  32
ATOM     31  C   LIG    1       -9.437   7.763  -5.315  0.00  0.00    +0.030 C 
ATOM     32  C   LIG    1       -9.617   7.685  -3.798  0.00  0.00    +0.030 C 
ENDBRANCH  24  32
ENDBRANCH  21  28
ENDBRANCH  20  21
ENDBRANCH   1  20
TORSDOF 6
