REMARK  Name = ZINCrD000000D9ms.0
REMARK                            x       y       z     vdW  Elec       q    Type
REMARK                         _______ _______ _______ _____ _____    ______ ____
ROOT
ATOM      1  C   LIG    1        2.413   0.022  -0.176  0.00  0.00    -0.080 A 
ATOM      2  C   LIG    1        2.403   1.403  -0.170  0.00  0.00    +0.240 A 
ATOM      3  C   LIG    1        1.212   2.087  -0.006  0.00  0.00    -0.680 A 
ATOM      4  C   LIG    1        0.029   1.389   0.154  0.00  0.00    +0.210 A 
ATOM      5  C   LIG    1        0.033   0.008   0.149  0.00  0.00    +0.030 A 
ATOM      6  C   LIG    1        1.227  -0.680  -0.016  0.00  0.00    +0.200 A 
ENDROOT
BRANCH   1   8
ATOM      7  O   LIG    1        4.729  -0.091  -0.492  0.00  0.00    -0.140 OA
ATOM      8  N   LIG    1        3.689  -0.708  -0.352  0.00  0.00    +0.030 N 
ATOM      9  O   LIG    1        3.697  -1.926  -0.356  0.00  0.00    -0.130 OA
ENDBRANCH   1   8
BRANCH   3  10
ATOM     10  S   LIG    1        1.202   3.849   0.001  0.00  0.00    +2.690 S 
ATOM     11  O   LIG    1       -0.113   4.244  -0.368  0.00  0.00    -0.930 OA
ATOM     12  O   LIG    1        2.364   4.259  -0.707  0.00  0.00    -0.930 OA
BRANCH  10  13
ATOM     13  N   LIG    1        1.413   4.334   1.570  0.00  0.00    -1.000 NA
ATOM     14  C   LIG    1        0.260   4.555   2.456  0.00  0.00    +0.270 C 
ATOM     15  C   LIG    1        0.505   3.782   3.762  0.00  0.00    +0.210 C 
ATOM     16  O   LIG    1        1.785   4.141   4.286  0.00  0.00    -0.370 OA
ATOM     17  C   LIG    1        2.883   3.796   3.438  0.00  0.00    +0.210 C 
ATOM     18  C   LIG    1        2.760   4.564   2.116  0.00  0.00    +0.270 C 
ENDBRANCH  10  13
ENDBRANCH   3  10
BRANCH   6  19
ATOM     19  O   LIG    1        1.235  -2.039  -0.020  0.00  0.00    -0.230 OA
BRANCH  19  20
ATOM     20  C   LIG    1        1.465  -2.680   1.157  0.00  0.00    +0.110 A 
ATOM     21  C   LIG    1        1.571  -1.954   2.333  0.00  0.00    -0.030 A 
ATOM     22  C   LIG    1        1.800  -2.608   3.529  0.00  0.00    +0.090 A 
ATOM     23  C   LIG    1        1.933  -3.984   3.553  0.00  0.00    -0.090 A 
ATOM     24  C   LIG    1        1.833  -4.711   2.380  0.00  0.00    +0.070 A 
ATOM     25 BR   LIG    1        2.253  -4.873   5.191  0.00  0.00    -0.020 Br
ATOM     26  C   LIG    1        1.599  -4.063   1.181  0.00  0.00    +0.110 A 
ATOM     27  F   LIG    1        1.501  -4.772   0.036  0.00  0.00    -0.110 F 
ENDBRANCH  19  20
ENDBRANCH   6  19
TORSDOF 5
