REMARK  Name = ZINCvU000000071W.0
REMARK                            x       y       z     vdW  Elec       q    Type
REMARK                         _______ _______ _______ _____ _____    ______ ____
ROOT
ATOM      1  C   LIG    1       -0.653   2.603  -2.838  0.00  0.00    +0.500 C 
ATOM      2  N   LIG    1       -0.690   3.453  -3.883  0.00  0.00    -0.610 N 
ATOM      3  C   LIG    1       -1.971   3.972  -4.382  0.00  0.00    +0.270 C 
ATOM      4  C   LIG    1       -1.897   5.506  -4.417  0.00  0.00    +0.010 C 
ATOM      5  C   LIG    1       -0.682   5.933  -5.243  0.00  0.00    +0.020 C 
ATOM      6  C   LIG    1        0.595   5.405  -4.586  0.00  0.00    +0.020 C 
ATOM      7  C   LIG    1        0.550   3.874  -4.550  0.00  0.00    +0.320 C 
ATOM      8  O   LIG    1        0.397   2.097  -2.505  0.00  0.00    -0.480 OA
ENDROOT
BRANCH   7   9
ATOM      9  C   LIG    1        1.738   3.351  -3.784  0.00  0.00    +0.130 A 
ATOM     10  N   LIG    1        2.504   2.414  -4.197  0.00  0.00    -0.470 NA
ATOM     11  C   LIG    1        3.531   2.048  -3.406  0.00  0.00    +0.100 A 
ATOM     12  C   LIG    1        4.516   1.061  -3.610  0.00  0.00    +0.060 A 
ATOM     13  C   LIG    1        5.481   0.845  -2.673  0.00  0.00    +0.020 A 
ATOM     14  C   LIG    1        5.514   1.590  -1.503  0.00  0.00    +0.020 A 
ATOM     15  C   LIG    1        4.564   2.561  -1.277  0.00  0.00    +0.050 A 
ATOM     16  C   LIG    1        3.570   2.796  -2.224  0.00  0.00    -0.160 A 
ATOM     17  S   LIG    1        2.232   3.940  -2.261  0.00  0.00    +0.110 S 
ENDBRANCH   7   9
BRANCH   1  18
ATOM     18  C   LIG    1       -1.918   2.283  -2.083  0.00  0.00    +0.070 C 
BRANCH  18  30
ATOM     19  C   LIG    1        0.607  -1.614  -2.093  0.00  0.00    +0.090 C 
ATOM     20  C   LIG    1        0.153  -0.299  -1.514  0.00  0.00    +0.510 C 
ATOM     21  N   LIG    1       -1.156   0.025  -1.521  0.00  0.00    -0.560 N 
ATOM     22  C   LIG    1       -2.087  -0.853  -2.063  0.00  0.00    +0.240 C 
ATOM     23  C   LIG    1       -3.323  -0.903  -1.552  0.00  0.00    -0.040 C 
ATOM     24  C   LIG    1       -3.680  -0.000  -0.441  0.00  0.00    -0.030 A 
ATOM     25  C   LIG    1       -4.843  -0.208   0.301  0.00  0.00    +0.020 A 
ATOM     26  C   LIG    1       -5.148   0.643   1.344  0.00  0.00    +0.010 A 
ATOM     27  C   LIG    1       -4.305   1.696   1.654  0.00  0.00    +0.000 A 
ATOM     28  C   LIG    1       -3.152   1.910   0.918  0.00  0.00    +0.020 A 
ATOM     29  C   LIG    1       -2.840   1.072  -0.130  0.00  0.00    -0.100 A 
ATOM     30  C   LIG    1       -1.601   1.301  -0.952  0.00  0.00    +0.320 C 
ATOM     31  O   LIG    1        0.965   0.471  -1.045  0.00  0.00    -0.470 OA
ENDBRANCH  18  30
ENDBRANCH   1  18
TORSDOF 3
