REMARK  Name = ZINCrH000004rlNA.0
REMARK                            x       y       z     vdW  Elec       q    Type
REMARK                         _______ _______ _______ _____ _____    ______ ____
ROOT
ATOM      1  N   LIG    1       -0.817  -7.002  -4.460  0.00  0.00    -0.550 N 
ATOM      2  C   LIG    1       -2.120  -7.665  -4.328  0.00  0.00    +0.270 C 
ATOM      3  C   LIG    1       -2.788  -7.019  -3.094  0.00  0.00    +0.100 C 
ATOM      4  C   LIG    1       -2.097  -5.636  -3.049  0.00  0.00    -0.010 C 
ATOM      5  C   LIG    1       -0.778  -5.857  -3.757  0.00  0.00    +0.530 C 
ATOM      6  O   LIG    1        0.175  -5.110  -3.698  0.00  0.00    -0.500 OA
ENDROOT
BRANCH   1  11
ATOM      7  C   LIG    1        3.499  -9.012  -7.545  0.00  0.00    +0.090 C 
ATOM      8  C   LIG    1        2.352  -8.478  -6.726  0.00  0.00    -0.110 A 
ATOM      9  C   LIG    1        1.206  -9.235  -6.568  0.00  0.00    +0.040 A 
ATOM     10  C   LIG    1        0.153  -8.748  -5.818  0.00  0.00    -0.030 A 
ATOM     11  C   LIG    1        0.247  -7.498  -5.221  0.00  0.00    +0.160 A 
ATOM     12  C   LIG    1        1.398  -6.738  -5.386  0.00  0.00    +0.000 A 
ATOM     13  C   LIG    1        2.449  -7.233  -6.133  0.00  0.00    -0.060 A 
ATOM     14  C   LIG    1        3.701  -6.411  -6.308  0.00  0.00    +0.090 C 
ENDBRANCH   1  11
BRANCH   4  15
ATOM     15  C   LIG    1       -1.865  -5.208  -1.623  0.00  0.00    +0.540 C 
ATOM     16  N   LIG    1       -1.272  -4.027  -1.362  0.00  0.00    -0.720 N 
ATOM     17  H   LIG    1       -0.994  -3.452  -2.092  0.00  0.00    +0.410 HD
ATOM     18  O   LIG    1       -2.212  -5.928  -0.710  0.00  0.00    -0.520 OA
BRANCH  16  19
ATOM     19  C   LIG    1       -1.046  -3.611   0.025  0.00  0.00    +0.400 C 
BRANCH  19  20
ATOM     20  C   LIG    1       -0.373  -2.263   0.042  0.00  0.00    +0.010 A 
ATOM     21  C   LIG    1       -1.013  -1.086   0.063  0.00  0.00    -0.010 A 
ATOM     22  C   LIG    1        0.030  -0.053   0.073  0.00  0.00    -0.140 A 
ATOM     23  C   LIG    1        0.021   1.341   0.094  0.00  0.00    +0.060 A 
ATOM     24  C   LIG    1        1.214   2.029   0.098  0.00  0.00    -0.010 A 
ATOM     25  C   LIG    1        2.418   1.341   0.082  0.00  0.00    +0.050 A 
ATOM     26  C   LIG    1        2.441  -0.037   0.061  0.00  0.00    +0.020 A 
ATOM     27  C   LIG    1        1.250  -0.751   0.056  0.00  0.00    +0.060 A 
ATOM     28  O   LIG    1        0.957  -2.067   0.038  0.00  0.00    -0.190 OA
ENDBRANCH  19  20
ENDBRANCH  16  19
ENDBRANCH   4  15
TORSDOF 4
