REMARK  Name = ZINCrD00000l1lFo.1
REMARK                            x       y       z     vdW  Elec       q    Type
REMARK                         _______ _______ _______ _____ _____    ______ ____
ROOT
ATOM      1  C   LIG    1       -1.016   2.208  -3.352  0.00  0.00    +0.080 A 
ATOM      2  C   LIG    1       -2.192   2.921  -3.215  0.00  0.00    +0.090 A 
ATOM      3  C   LIG    1       -2.685   3.171  -1.921  0.00  0.00    -0.040 A 
ATOM      4  C   LIG    1       -3.871   3.885  -1.701  0.00  0.00    +0.040 A 
ATOM      5  C   LIG    1       -4.301   4.097  -0.424  0.00  0.00    +0.040 A 
ATOM      6  C   LIG    1       -3.579   3.613   0.663  0.00  0.00    +0.020 A 
ATOM      7  C   LIG    1       -2.421   2.914   0.483  0.00  0.00    +0.070 A 
ATOM      8  C   LIG    1       -1.953   2.672  -0.813  0.00  0.00    -0.060 A 
ATOM      9  C   LIG    1       -0.755   1.957  -1.053  0.00  0.00    +0.340 A 
ATOM     10  N   LIG    1       -0.344   1.756  -2.287  0.00  0.00    -0.470 NA
ENDROOT
BRANCH   9  11
ATOM     11  N   LIG    1       -0.018   1.465   0.010  0.00  0.00    -0.490 N 
ATOM     12  C   LIG    1        1.324   2.064   0.043  0.00  0.00    +0.200 C 
ATOM     13  C   LIG    1        2.076   1.556   1.275  0.00  0.00    +0.190 C 
ATOM     14  N   LIG    1        2.159   0.090   1.225  0.00  0.00    -0.530 NA
ATOM     15  C   LIG    1        0.817  -0.509   1.192  0.00  0.00    +0.200 C 
ATOM     16  C   LIG    1        0.065  -0.001  -0.040  0.00  0.00    +0.200 C 
BRANCH  14  17
ATOM     17  C   LIG    1        2.941  -0.432   2.353  0.00  0.00    +0.230 C 
BRANCH  17  18
ATOM     18  C   LIG    1        4.375   0.009   2.217  0.00  0.00    -0.080 A 
ATOM     19  C   LIG    1        5.279  -0.781   1.532  0.00  0.00    +0.020 A 
ATOM     20  C   LIG    1        6.594  -0.374   1.403  0.00  0.00    +0.000 A 
ATOM     21  C   LIG    1        7.007   0.819   1.968  0.00  0.00    +0.000 A 
ATOM     22  C   LIG    1        6.104   1.606   2.658  0.00  0.00    +0.000 A 
ATOM     23  C   LIG    1        4.788   1.201   2.782  0.00  0.00    +0.000 A 
ENDBRANCH  17  18
ENDBRANCH  14  17
ENDBRANCH   9  11
BRANCH   1  24
ATOM     24  C   LIG    1       -0.487   1.939  -4.705  0.00  0.00    +0.520 C 
ATOM     25  O   LIG    1       -1.086   2.343  -5.682  0.00  0.00    -0.500 OA
BRANCH  24  27
ATOM     26  C   LIG    1        1.117   1.019  -6.215  0.00  0.00    +0.260 C 
ATOM     27  O   LIG    1        0.658   1.246  -4.856  0.00  0.00    -0.330 OA
ENDBRANCH  24  27
ENDBRANCH   1  24
TORSDOF 5
