REMARK  Name = ZINCrD00000fI6BC.0
REMARK                            x       y       z     vdW  Elec       q    Type
REMARK                         _______ _______ _______ _____ _____    ______ ____
ROOT
ATOM      1  O   LIG    1        2.919  -0.080  -8.339  0.00  0.00    -0.530 OA
ATOM      2  C   LIG    1        3.121   0.900  -7.654  0.00  0.00    +0.520 C 
ATOM      3  N   LIG    1        2.443   1.067  -6.501  0.00  0.00    -0.730 N 
ATOM      4  H   LIG    1        2.605   1.851  -5.953  0.00  0.00    +0.400 HD
ENDROOT
BRANCH   2   5
ATOM      5  C   LIG    1        4.130   1.931  -8.092  0.00  0.00    +0.000 C 
ATOM      6  C   LIG    1        5.207   2.060  -7.024  0.00  0.00    +0.000 C 
ATOM      7  C   LIG    1        6.139   3.228  -7.244  0.00  0.00    +0.280 C 
ATOM      8  N   LIG    1        6.910   3.045  -8.483  0.00  0.00    -0.790 N 
ATOM      9  H   LIG    1        7.803   2.667  -8.466  0.00  0.00    +0.400 HD
ATOM     10  C   LIG    1        6.316   3.432  -9.688  0.00  0.00    +0.170 A 
ATOM     11  C   LIG    1        6.819   4.512 -10.402  0.00  0.00    -0.020 A 
ATOM     12  C   LIG    1        6.203   4.902 -11.576  0.00  0.00    +0.010 A 
ATOM     13  C   LIG    1        5.090   4.223 -12.037  0.00  0.00    -0.010 A 
ATOM     14  C   LIG    1        4.596   3.139 -11.332  0.00  0.00    +0.020 A 
ATOM     15  C   LIG    1        5.218   2.739 -10.169  0.00  0.00    -0.110 A 
ATOM     16  C   LIG    1        4.730   1.506  -9.429  0.00  0.00    +0.110 C 
ENDBRANCH   2   5
BRANCH   3  17
ATOM     17  C   LIG    1        1.463   0.066  -6.076  0.00  0.00    +0.330 C 
BRANCH  17  18
ATOM     18  C   LIG    1        0.851   0.487  -4.765  0.00  0.00    -0.200 A 
ATOM     19  C   LIG    1       -0.293   1.273  -4.745  0.00  0.00    +0.130 A 
ATOM     20  C   LIG    1       -0.822   1.638  -3.519  0.00  0.00    -0.030 A 
ATOM     21  C   LIG    1       -0.195   1.208  -2.357  0.00  0.00    +0.330 A 
ATOM     22  N   LIG    1        0.897   0.464  -2.417  0.00  0.00    -0.540 NA
ATOM     23  C   LIG    1        1.422   0.096  -3.570  0.00  0.00    +0.330 A 
BRANCH  21  24
ATOM     24  O   LIG    1       -0.704   1.559  -1.150  0.00  0.00    -0.290 OA
BRANCH  24  25
ATOM     25  C   LIG    1       -0.013   1.086   0.008  0.00  0.00    +0.270 C 
BRANCH  25  26
ATOM     26  C   LIG    1       -0.729   1.579   1.267  0.00  0.00    +0.460 C 
ATOM     27  F   LIG    1       -0.748   2.978   1.274  0.00  0.00    -0.170 F 
ATOM     28  F   LIG    1       -0.052   1.116   2.400  0.00  0.00    -0.170 F 
ATOM     29  F   LIG    1       -2.041   1.095   1.277  0.00  0.00    -0.170 F 
ENDBRANCH  25  26
ENDBRANCH  24  25
ENDBRANCH  21  24
ENDBRANCH  17  18
ENDBRANCH   3  17
TORSDOF 6
