REMARK  Name = ZINCqH0000008So3.0
REMARK                            x       y       z     vdW  Elec       q    Type
REMARK                         _______ _______ _______ _____ _____    ______ ____
ROOT
ATOM      1  C   LIG    1       -4.150  -0.903  -3.801  0.00  0.00    +0.090 C 
ATOM      2  C   LIG    1       -2.917  -0.109  -3.366  0.00  0.00    +0.120 C 
ATOM      3  N   LIG    1       -3.314   1.102  -2.627  0.00  0.00    -0.720 N 
ATOM      4  H   LIG    1       -3.846   1.839  -2.966  0.00  0.00    +0.440 HD
ATOM      5  C   LIG    1       -2.798   0.985  -1.391  0.00  0.00    +0.700 C 
ATOM      6  N   LIG    1       -2.105  -0.148  -1.230  0.00  0.00    -0.580 N 
ATOM      7  O   LIG    1       -2.942   1.818  -0.517  0.00  0.00    -0.530 OA
ATOM      8  C   LIG    1       -2.107  -0.895  -2.353  0.00  0.00    +0.530 C 
ATOM      9  O   LIG    1       -1.573  -1.970  -2.518  0.00  0.00    -0.460 OA
ENDROOT
BRANCH   6  10
ATOM     10  C   LIG    1       -1.433  -0.534   0.013  0.00  0.00    +0.350 C 
BRANCH  10  11
ATOM     11  C   LIG    1        0.002  -0.004   0.002  0.00  0.00    +0.200 C 
BRANCH  11  12
ATOM     12  O   LIG    1       -0.017   1.425   0.010  0.00  0.00    -0.300 OA
BRANCH  12  13
ATOM     13  C   LIG    1        1.185   2.058   0.002  0.00  0.00    +0.150 A 
ATOM     14  C   LIG    1        2.359   1.319  -0.008  0.00  0.00    -0.070 A 
ATOM     15  C   LIG    1        3.580   1.965  -0.022  0.00  0.00    +0.090 A 
ATOM     16  C   LIG    1        3.633   3.348  -0.015  0.00  0.00    -0.130 A 
ATOM     17  C   LIG    1        2.463   4.086   0.000  0.00  0.00    +0.090 A 
ATOM     18 BR   LIG    1        5.306   4.229  -0.028  0.00  0.00    -0.050 Br
ATOM     19  C   LIG    1        1.240   3.444   0.009  0.00  0.00    +0.000 A 
ENDBRANCH  12  13
ENDBRANCH  11  12
ENDBRANCH  10  11
ENDBRANCH   6  10
BRANCH   2  20
ATOM     20  C   LIG    1       -2.055   0.256  -4.576  0.00  0.00    +0.060 C 
BRANCH  20  21
ATOM     21  C   LIG    1       -2.858   1.152  -5.522  0.00  0.00    +0.070 C 
BRANCH  21  22
ATOM     22  C   LIG    1       -2.009   1.512  -6.714  0.00  0.00    -0.090 A 
ATOM     23  C   LIG    1       -1.224   2.649  -6.685  0.00  0.00    +0.000 A 
ATOM     24  C   LIG    1       -0.442   2.977  -7.777  0.00  0.00    +0.000 A 
ATOM     25  C   LIG    1       -0.453   2.173  -8.901  0.00  0.00    +0.000 A 
ATOM     26  C   LIG    1       -1.242   1.038  -8.932  0.00  0.00    +0.000 A 
ATOM     27  C   LIG    1       -2.020   0.708  -7.838  0.00  0.00    +0.000 A 
ENDBRANCH  21  22
ENDBRANCH  20  21
ENDBRANCH   2  20
TORSDOF 7
