REMARK  Name = ZINCrH000004ukrz.0
REMARK                            x       y       z     vdW  Elec       q    Type
REMARK                         _______ _______ _______ _____ _____    ______ ____
ROOT
ATOM      1  O   LIG    1        0.491  -2.593  -0.573  0.00  0.00    -0.530 OA
ATOM      2  C   LIG    1        0.827  -1.798  -1.426  0.00  0.00    +0.530 C 
ATOM      3  N   LIG    1        0.658  -0.477  -1.218  0.00  0.00    -0.730 N 
ATOM      4  H   LIG    1        0.994   0.163  -1.866  0.00  0.00    +0.400 HD
ENDROOT
BRANCH   2   5
ATOM      5  C   LIG    1        1.431  -2.287  -2.717  0.00  0.00    -0.040 C 
ATOM      6  C   LIG    1        0.651  -1.705  -3.900  0.00  0.00    +0.020 C 
ATOM      7  C   LIG    1       -0.791  -2.220  -3.851  0.00  0.00    +0.210 C 
ATOM      8  O   LIG    1       -0.787  -3.649  -3.873  0.00  0.00    -0.380 OA
ATOM      9  C   LIG    1       -0.112  -4.248  -2.765  0.00  0.00    +0.220 C 
ATOM     10  C   LIG    1        1.356  -3.816  -2.770  0.00  0.00    +0.030 C 
BRANCH   5  11
ATOM     11  C   LIG    1        2.870  -1.849  -2.797  0.00  0.00    -0.080 A 
ATOM     12  C   LIG    1        3.793  -2.336  -1.890  0.00  0.00    +0.010 A 
ATOM     13  C   LIG    1        5.114  -1.938  -1.967  0.00  0.00    +0.010 A 
ATOM     14  C   LIG    1        5.512  -1.045  -2.944  0.00  0.00    +0.000 A 
ATOM     15  C   LIG    1        4.588  -0.554  -3.848  0.00  0.00    +0.000 A 
ATOM     16  C   LIG    1        3.268  -0.956  -3.775  0.00  0.00    +0.010 A 
ENDBRANCH   5  11
ENDBRANCH   2   5
BRANCH   3  17
ATOM     17  C   LIG    1       -0.030  -0.006  -0.013  0.00  0.00    +0.260 C 
BRANCH  17  18
ATOM     18  C   LIG    1       -0.086   1.523  -0.022  0.00  0.00    +0.110 C 
BRANCH  18  19
ATOM     19  C   LIG    1       -0.795   2.007   1.217  0.00  0.00    -0.170 A 
ATOM     20  C   LIG    1       -2.097   2.314   1.323  0.00  0.00    +0.230 A 
ATOM     21  N   LIG    1       -2.378   2.717   2.601  0.00  0.00    -0.590 N 
ATOM     22  H   LIG    1       -3.253   2.990   2.919  0.00  0.00    +0.420 HD
ATOM     23  C   LIG    1       -1.235   2.677   3.367  0.00  0.00    +0.120 A 
ATOM     24  C   LIG    1       -0.964   2.975   4.698  0.00  0.00    -0.040 A 
ATOM     25  C   LIG    1        0.316   2.816   5.188  0.00  0.00    +0.120 A 
ATOM     26  C   LIG    1        1.341   2.371   4.361  0.00  0.00    -0.040 A 
ATOM     27  C   LIG    1        1.096   2.078   3.049  0.00  0.00    +0.090 A 
ATOM     28  F   LIG    1        0.577   3.102   6.483  0.00  0.00    -0.140 F 
ATOM     29  C   LIG    1       -0.194   2.225   2.535  0.00  0.00    -0.110 A 
ENDBRANCH  18  19
ENDBRANCH  17  18
ENDBRANCH   3  17
TORSDOF 5
