REMARK  Name = ZINCkj000005lcq1.0
REMARK                            x       y       z     vdW  Elec       q    Type
REMARK                         _______ _______ _______ _____ _____    ______ ____
ROOT
ATOM      1  N   LIG    1       -2.924   3.021   0.046  0.00  0.00    -1.120 NA
ATOM      2  H   LIG    1       -2.166   3.515   0.397  0.00  0.00    +0.420 HD
ENDROOT
BRANCH   1   3
ATOM      3  C   LIG    1       -2.904   1.556   0.038  0.00  0.00    +0.270 C 
ATOM      4  C   LIG    1       -2.188   1.063  -1.221  0.00  0.00    +0.030 C 
ATOM      5  C   LIG    1       -0.753   1.593  -1.232  0.00  0.00    +0.020 C 
ATOM      6  C   LIG    1       -0.013   1.086   0.008  0.00  0.00    +0.030 C 
ATOM      7  C   LIG    1       -0.729   1.579   1.267  0.00  0.00    +0.010 C 
ATOM      8  C   LIG    1       -2.164   1.050   1.278  0.00  0.00    -0.010 C 
BRANCH   8   9
ATOM      9  C   LIG    1       -2.880   1.543   2.537  0.00  0.00    +0.260 C 
BRANCH   9  10
ATOM     10  N   LIG    1       -2.242   0.959   3.724  0.00  0.00    -0.640 N 
ATOM     11  H   LIG    1       -2.300  -0.047   3.676  0.00  0.00    +0.440 HD
ATOM     12  H   LIG    1       -2.714   1.285   4.554  0.00  0.00    +0.440 HD
ATOM     13  H   LIG    1       -1.273   1.239   3.756  0.00  0.00    +0.430 HD
ENDBRANCH   9  10
ENDBRANCH   8   9
ENDBRANCH   1   3
BRANCH   1  14
ATOM     14  S   LIG    1       -4.241   3.835  -0.543  0.00  0.00    +2.690 S 
ATOM     15  O   LIG    1       -4.537   3.257  -1.807  0.00  0.00    -0.930 OA
ATOM     16  O   LIG    1       -3.970   5.218  -0.366  0.00  0.00    -0.940 OA
BRANCH  14  20
ATOM     17  C   LIG    1       -7.743   2.860   2.162  0.00  0.00    +0.040 A 
ATOM     18  C   LIG    1       -6.926   3.958   2.440  0.00  0.00    +0.060 A 
ATOM     19  C   LIG    1       -5.862   4.249   1.613  0.00  0.00    +0.130 A 
ATOM     20  C   LIG    1       -5.602   3.455   0.509  0.00  0.00    -0.670 A 
ATOM     21  C   LIG    1       -6.410   2.368   0.225  0.00  0.00    +0.130 A 
ATOM     22  C   LIG    1       -7.474   2.063   1.048  0.00  0.00    +0.060 A 
BRANCH  17  24
ATOM     23  N   LIG    1       -9.728   2.308   3.695  0.00  0.00    -0.370 NA
ATOM     24  C   LIG    1       -8.850   2.552   3.017  0.00  0.00    +0.230 C 
ENDBRANCH  17  24
ENDBRANCH  14  20
ENDBRANCH   1  14
TORSDOF 6
