REMARK  Name = ZINCrH000004pzRa.0
REMARK                            x       y       z     vdW  Elec       q    Type
REMARK                         _______ _______ _______ _____ _____    ______ ____
ROOT
ATOM      1  N   LIG    1       -0.860   1.132   0.868  0.00  0.00    -0.610 N 
ATOM      2  C   LIG    1        0.178   1.354   1.699  0.00  0.00    +0.520 C 
ATOM      3  O   LIG    1        0.056   2.122   2.630  0.00  0.00    -0.500 OA
ATOM      4  C   LIG    1       -0.712   0.204  -0.256  0.00  0.00    +0.280 C 
ENDROOT
BRANCH   1   6
ATOM      5  C   LIG    1       -3.270   0.793   1.107  0.00  0.00    +0.050 C 
ATOM      6  C   LIG    1       -2.135   1.819   1.088  0.00  0.00    +0.300 C 
BRANCH   6   7
ATOM      7  C   LIG    1       -2.370   2.809  -0.023  0.00  0.00    -0.100 A 
ATOM      8  C   LIG    1       -1.707   2.665  -1.228  0.00  0.00    +0.040 A 
ATOM      9  C   LIG    1       -1.925   3.569  -2.250  0.00  0.00    +0.000 A 
ATOM     10  C   LIG    1       -2.803   4.628  -2.063  0.00  0.00    +0.150 A 
ATOM     11  C   LIG    1       -3.463   4.773  -0.851  0.00  0.00    +0.040 A 
ATOM     12  C   LIG    1       -3.245   3.863   0.166  0.00  0.00    +0.060 A 
BRANCH  10  13
ATOM     13  N   LIG    1       -3.022   5.549  -3.097  0.00  0.00    -0.330 N 
ATOM     14  C   LIG    1       -2.454   5.543  -4.319  0.00  0.00    +0.480 A 
ATOM     15  N   LIG    1       -2.922   6.565  -4.988  0.00  0.00    -0.540 NA
ATOM     16  C   LIG    1       -3.779   7.248  -4.230  0.00  0.00    +0.440 A 
ATOM     17  N   LIG    1       -3.874   6.665  -3.063  0.00  0.00    -0.310 NA
ENDBRANCH  10  13
ENDBRANCH   6   7
ENDBRANCH   1   6
BRANCH   2  18
ATOM     18  C   LIG    1        1.490   0.647   1.472  0.00  0.00    +0.240 C 
BRANCH  18  19
ATOM     19  O   LIG    1        2.425   1.045   2.477  0.00  0.00    -0.280 OA
BRANCH  19  20
ATOM     20  C   LIG    1        3.667   0.495   2.417  0.00  0.00    +0.110 A 
ATOM     21  C   LIG    1        3.976  -0.412   1.415  0.00  0.00    -0.030 A 
ATOM     22  C   LIG    1        5.241  -0.966   1.352  0.00  0.00    +0.090 A 
ATOM     23  C   LIG    1        6.195  -0.626   2.294  0.00  0.00    -0.100 A 
ATOM     24  C   LIG    1        5.888   0.275   3.298  0.00  0.00    +0.070 A 
ATOM     25 BR   LIG    1        7.921  -1.392   2.208  0.00  0.00    -0.030 Br
ATOM     26  C   LIG    1        4.626   0.836   3.362  0.00  0.00    +0.080 A 
ATOM     27  F   LIG    1        4.325   1.716   4.343  0.00  0.00    -0.120 F 
ENDBRANCH  19  20
ENDBRANCH  18  19
ENDBRANCH   2  18
TORSDOF 6
