REMARK  Name = ZINCrD00000rOCC7.0
REMARK                            x       y       z     vdW  Elec       q    Type
REMARK                         _______ _______ _______ _____ _____    ______ ____
ROOT
ATOM      1  C   LIG    1       -1.622   5.638  -2.083  0.00  0.00    -0.130 A 
ATOM      2  C   LIG    1       -1.105   6.333  -0.988  0.00  0.00    +0.040 A 
ATOM      3  C   LIG    1       -1.217   7.708  -0.925  0.00  0.00    +0.010 A 
ATOM      4  C   LIG    1       -1.849   8.402  -1.938  0.00  0.00    +0.040 A 
ATOM      5  C   LIG    1       -2.375   7.718  -3.034  0.00  0.00    -0.050 A 
ATOM      6  C   LIG    1       -2.261   6.334  -3.108  0.00  0.00    +0.090 A 
ENDROOT
BRANCH   5   7
ATOM      7  C   LIG    1       -3.054   8.467  -4.120  0.00  0.00    -0.070 A 
ATOM      8  C   LIG    1       -3.579   7.775  -5.218  0.00  0.00    +0.060 A 
ATOM      9  C   LIG    1       -4.208   8.443  -6.228  0.00  0.00    +0.020 A 
ATOM     10  C   LIG    1       -4.331   9.833  -6.170  0.00  0.00    +0.010 A 
ATOM     11  C   LIG    1       -4.997  10.593  -7.229  0.00  0.00    -0.050 A 
ATOM     12  C   LIG    1       -5.089  11.929  -7.125  0.00  0.00    +0.270 A 
ATOM     13  N   LIG    1       -4.582  12.618  -6.060  0.00  0.00    -0.630 N 
ATOM     14  H   LIG    1       -4.678  13.583  -6.037  0.00  0.00    +0.420 HD
ATOM     15  C   LIG    1       -3.953  12.002  -5.039  0.00  0.00    +0.550 A 
ATOM     16  O   LIG    1       -3.514  12.650  -4.106  0.00  0.00    -0.530 OA
ATOM     17  C   LIG    1       -3.804  10.542  -5.065  0.00  0.00    -0.150 A 
ATOM     18  C   LIG    1       -3.169   9.849  -4.038  0.00  0.00    +0.100 A 
ENDBRANCH   5   7
BRANCH   1  20
ATOM     19  O   LIG    1       -1.952   3.562  -3.104  0.00  0.00    -0.530 OA
ATOM     20  C   LIG    1       -1.497   4.166  -2.153  0.00  0.00    +0.560 C 
ATOM     21  N   LIG    1       -0.879   3.494  -1.161  0.00  0.00    -0.730 N 
ATOM     22  H   LIG    1       -0.516   3.977  -0.402  0.00  0.00    +0.400 HD
BRANCH  21  23
ATOM     23  C   LIG    1       -0.755   2.036  -1.230  0.00  0.00    +0.270 C 
BRANCH  23  24
ATOM     24  C   LIG    1       -0.019   1.528   0.010  0.00  0.00    -0.020 C 
ATOM     25  C   LIG    1        1.422   2.047  -0.001  0.00  0.00    +0.000 C 
ATOM     26  C   LIG    1        2.174   1.469   1.202  0.00  0.00    +0.210 C 
ATOM     27  O   LIG    1        2.128   0.042   1.149  0.00  0.00    -0.380 OA
ATOM     28  C   LIG    1        0.808  -0.502   1.204  0.00  0.00    +0.210 C 
ATOM     29  C   LIG    1        0.002  -0.004   0.002  0.00  0.00    +0.010 C 
ENDBRANCH  23  24
ENDBRANCH  21  23
ENDBRANCH   1  20
TORSDOF 4
