REMARK  Name = ZINCvU0000000JAW.0
REMARK                            x       y       z     vdW  Elec       q    Type
REMARK                         _______ _______ _______ _____ _____    ______ ____
ROOT
ATOM      1  C   LIG    1        2.633  -0.314  -0.077  0.00  0.00    +0.570 C 
ATOM      2  N   LIG    1        3.821  -0.932  -0.228  0.00  0.00    -0.610 N 
ATOM      3  C   LIG    1        5.065  -0.154  -0.304  0.00  0.00    +0.270 C 
ATOM      4  C   LIG    1        5.821  -0.556  -1.575  0.00  0.00    +0.030 C 
ATOM      5  C   LIG    1        6.026  -2.072  -1.584  0.00  0.00    +0.060 C 
ATOM      6  C   LIG    1        4.665  -2.773  -1.589  0.00  0.00    -0.010 C 
ATOM      7  C   LIG    1        3.898  -2.397  -0.313  0.00  0.00    +0.300 C 
ATOM      8  O   LIG    1        1.617  -0.972   0.049  0.00  0.00    -0.530 OA
ENDROOT
BRANCH   1  12
ATOM      9  C   LIG    1        2.452   3.970  -0.021  0.00  0.00    +0.180 A 
ATOM     10  C   LIG    1        3.295   3.276   0.820  0.00  0.00    -0.100 A 
ATOM     11  C   LIG    1        3.358   1.893   0.806  0.00  0.00    +0.100 A 
ATOM     12  C   LIG    1        2.564   1.155  -0.065  0.00  0.00    -0.170 A 
ATOM     13  C   LIG    1        1.660   1.865  -0.969  0.00  0.00    +0.020 A 
ATOM     14  C   LIG    1        0.838   1.176  -1.868  0.00  0.00    +0.020 A 
ATOM     15  C   LIG    1        0.012   1.875  -2.699  0.00  0.00    +0.040 A 
ATOM     16  C   LIG    1       -0.032   3.265  -2.657  0.00  0.00    +0.000 A 
ATOM     17  C   LIG    1        0.755   3.966  -1.794  0.00  0.00    +0.060 A 
ATOM     18  C   LIG    1        1.621   3.279  -0.929  0.00  0.00    -0.080 A 
BRANCH   9  20
ATOM     19  C   LIG    1        3.286   5.963   0.964  0.00  0.00    +0.250 C 
ATOM     20  O   LIG    1        2.420   5.324   0.024  0.00  0.00    -0.310 OA
ENDBRANCH   9  20
ENDBRANCH   1  12
BRANCH   6  21
ATOM     21  C   LIG    1        4.869  -4.266  -1.631  0.00  0.00    +0.520 C 
ATOM     22  N   LIG    1        3.803  -5.091  -1.643  0.00  0.00    -0.670 N 
ATOM     23  H   LIG    1        2.906  -4.724  -1.682  0.00  0.00    +0.410 HD
ATOM     24  O   LIG    1        5.991  -4.724  -1.655  0.00  0.00    -0.510 OA
BRANCH  22  25
ATOM     25  C   LIG    1        3.991  -6.477  -1.598  0.00  0.00    +0.150 A 
ATOM     26  C   LIG    1        5.113  -7.045  -2.185  0.00  0.00    +0.040 A 
ATOM     27  C   LIG    1        5.296  -8.415  -2.139  0.00  0.00    -0.020 A 
ATOM     28  C   LIG    1        4.361  -9.218  -1.510  0.00  0.00    +0.020 A 
ATOM     29  C   LIG    1        3.243  -8.653  -0.925  0.00  0.00    +0.050 A 
ATOM     30 CL   LIG    1        6.699  -9.128  -2.872  0.00  0.00    -0.060 Cl
ATOM     31  C   LIG    1        3.058  -7.285  -0.963  0.00  0.00    -0.110 A 
ATOM     32  C   LIG    1        1.841  -6.671  -0.319  0.00  0.00    +0.110 C 
ENDBRANCH  22  25
ENDBRANCH   6  21
TORSDOF 4
