REMARK  Name = ZINCkj00000dDqUk.0
REMARK                            x       y       z     vdW  Elec       q    Type
REMARK                         _______ _______ _______ _____ _____    ______ ____
ROOT
ATOM      1  C   LIG    1        0.002  -0.004   0.002  0.00  0.00    +0.180 C 
ATOM      2  C   LIG    1        0.761  -0.506   1.233  0.00  0.00    +0.040 C 
ATOM      3  C   LIG    1        2.177   0.078   1.224  0.00  0.00    +0.070 C 
ATOM      4  C   LIG    1        2.093   1.605   1.197  0.00  0.00    +0.180 C 
ATOM      5  N   LIG    1        1.359   2.036   0.000  0.00  0.00    -0.520 NA
ATOM      6  C   LIG    1       -0.019   1.526   0.010  0.00  0.00    +0.200 C 
ENDROOT
BRANCH   1   7
ATOM      7  N   LIG    1       -1.375  -0.513   0.033  0.00  0.00    -0.380 N 
ATOM      8  C   LIG    1       -2.104  -0.028  -1.147  0.00  0.00    +0.330 C 
ATOM      9  H   LIG    1       -1.836  -0.188   0.870  0.00  0.00    +0.420 HD
BRANCH   7  10
ATOM     10  C   LIG    1       -1.355  -1.982   0.025  0.00  0.00    +0.250 C 
BRANCH  10  11
ATOM     11  C   LIG    1       -2.781  -2.513   0.182  0.00  0.00    +0.050 C 
BRANCH  11  12
ATOM     12  C   LIG    1       -2.759  -4.043   0.174  0.00  0.00    +0.180 C 
BRANCH  12  14
ATOM     13  C   LIG    1       -4.183  -5.965   0.326  0.00  0.00    +0.230 C 
ATOM     14  O   LIG    1       -4.091  -4.539   0.321  0.00  0.00    -0.390 OA
ENDBRANCH  12  14
ENDBRANCH  11  12
ENDBRANCH  10  11
ENDBRANCH   7  10
ENDBRANCH   1   7
BRANCH   5  15
ATOM     15  C   LIG    1        1.378   3.499  -0.132  0.00  0.00    +0.340 C 
BRANCH  15  16
ATOM     16  C   LIG    1        2.776   4.006   0.106  0.00  0.00    +0.160 A 
ATOM     17  N   LIG    1        3.280   4.365   1.249  0.00  0.00    -0.380 NA
ATOM     18  O   LIG    1        4.430   4.723   1.107  0.00  0.00    +0.080 OA
ATOM     19  C   LIG    1        4.777   4.632  -0.180  0.00  0.00    +0.190 A 
ATOM     20  C   LIG    1        6.116   4.985  -0.776  0.00  0.00    +0.250 C 
ATOM     21  N   LIG    1        3.731   4.176  -0.826  0.00  0.00    -0.470 NA
ENDBRANCH  15  16
ENDBRANCH   5  15
TORSDOF 7
