REMARK  Name = ZINCrD0000074QSD.0
REMARK                            x       y       z     vdW  Elec       q    Type
REMARK                         _______ _______ _______ _____ _____    ______ ____
ROOT
ATOM      1  N   LIG    1       -9.819  -2.206   0.562  0.00  0.00    -0.670 N 
ATOM      2  H   LIG    1       -9.868  -2.913   1.224  0.00  0.00    +0.430 HD
ATOM      3  C   LIG    1       -8.742  -2.111  -0.243  0.00  0.00    +0.520 C 
ATOM      4  O   LIG    1       -8.710  -1.269  -1.115  0.00  0.00    -0.490 OA
ENDROOT
BRANCH   1  11
ATOM      5  C   LIG    1       -9.194   0.565   0.729  0.00  0.00    +0.120 C 
ATOM      6  C   LIG    1      -10.604   0.078   0.519  0.00  0.00    -0.080 A 
ATOM      7  C   LIG    1      -11.638   0.985   0.396  0.00  0.00    +0.100 A 
ATOM      8  C   LIG    1      -12.933   0.538   0.208  0.00  0.00    +0.030 A 
ATOM      9  C   LIG    1      -13.197  -0.817   0.139  0.00  0.00    +0.110 A 
ATOM     10  C   LIG    1      -12.166  -1.730   0.255  0.00  0.00    -0.060 A 
ATOM     11  C   LIG    1      -10.865  -1.284   0.443  0.00  0.00    +0.210 A 
BRANCH  10  12
ATOM     12  N   LIG    1      -12.450  -3.181   0.179  0.00  0.00    +0.030 N 
ATOM     13  O   LIG    1      -11.558  -3.986   0.380  0.00  0.00    -0.170 OA
ATOM     14  O   LIG    1      -13.573  -3.569  -0.085  0.00  0.00    -0.150 OA
ENDBRANCH  10  12
ENDBRANCH   1  11
BRANCH   3  15
ATOM     15  C   LIG    1       -7.579  -3.052  -0.060  0.00  0.00    +0.270 C 
BRANCH  15  16
ATOM     16  O   LIG    1       -6.553  -2.749  -1.042  0.00  0.00    -0.330 OA
BRANCH  16  17
ATOM     17  C   LIG    1       -5.438  -3.505  -1.014  0.00  0.00    +0.520 C 
ATOM     18  O   LIG    1       -5.326  -4.393  -0.192  0.00  0.00    -0.500 OA
BRANCH  17  19
ATOM     19  C   LIG    1       -4.353  -3.255  -1.981  0.00  0.00    -0.160 A 
ATOM     20  C   LIG    1       -3.195  -4.038  -1.954  0.00  0.00    +0.140 A 
ATOM     21  C   LIG    1       -2.185  -3.801  -2.858  0.00  0.00    +0.000 A 
ATOM     22  C   LIG    1       -2.315  -2.785  -3.798  0.00  0.00    +0.150 A 
ATOM     23  C   LIG    1       -3.462  -2.000  -3.825  0.00  0.00    -0.070 A 
ATOM     24  C   LIG    1       -4.480  -2.234  -2.928  0.00  0.00    +0.130 A 
BRANCH  22  25
ATOM     25  O   LIG    1       -1.316  -2.554  -4.688  0.00  0.00    -0.320 OA
BRANCH  25  26
ATOM     26  C   LIG    1       -1.515  -1.495  -5.626  0.00  0.00    +0.600 C 
ATOM     27  F   LIG    1       -1.691  -0.290  -4.938  0.00  0.00    -0.200 F 
ATOM     28  F   LIG    1       -2.652  -1.762  -6.397  0.00  0.00    -0.190 F 
ENDBRANCH  25  26
ENDBRANCH  22  25
ENDBRANCH  17  19
ENDBRANCH  16  17
ENDBRANCH  15  16
ENDBRANCH   3  15
TORSDOF 8
