REMARK  Name = ZINCpk00000y6xhG.0
REMARK                            x       y       z     vdW  Elec       q    Type
REMARK                         _______ _______ _______ _____ _____    ______ ____
ROOT
ATOM      1  C   LIG    1        5.211  -2.563  -2.973  0.00  0.00    +0.220 A 
ATOM      2  N   LIG    1        6.098  -3.198  -2.233  0.00  0.00    -0.490 NA
ATOM      3  C   LIG    1        6.060  -2.738  -0.985  0.00  0.00    +0.250 A 
ATOM      4  C   LIG    1        5.097  -1.768  -0.916  0.00  0.00    -0.070 A 
ATOM      5  N   LIG    1        4.558  -1.658  -2.194  0.00  0.00    -0.370 N 
ENDROOT
BRANCH   4   6
ATOM      6  C   LIG    1        4.714  -0.997   0.266  0.00  0.00    +0.620 C 
ATOM      7  N   LIG    1        5.255  -1.288   1.465  0.00  0.00    -0.630 N 
ATOM      8  C   LIG    1        5.179  -0.683   2.809  0.00  0.00    +0.300 C 
ATOM      9  C   LIG    1        5.538  -2.080   3.345  0.00  0.00    +0.280 C 
ATOM     10  C   LIG    1        6.163  -2.340   1.962  0.00  0.00    +0.290 C 
ATOM     11  O   LIG    1        3.905  -0.092   0.166  0.00  0.00    -0.530 OA
BRANCH   9  12
ATOM     12  N   LIG    1        6.512  -2.061   4.438  0.00  0.00    -0.630 N 
ATOM     13  C   LIG    1        6.282  -2.582   5.794  0.00  0.00    +0.270 C 
ATOM     14  C   LIG    1        7.611  -2.311   6.525  0.00  0.00    +0.270 C 
ATOM     15  N   LIG    1        8.451  -1.671   5.501  0.00  0.00    -0.740 N 
ATOM     16  H   LIG    1        9.365  -1.371   5.631  0.00  0.00    +0.430 HD
ATOM     17  C   LIG    1        7.754  -1.565   4.362  0.00  0.00    +0.700 C 
ATOM     18  O   LIG    1        8.209  -1.069   3.350  0.00  0.00    -0.580 OA
ENDBRANCH   9  12
ENDBRANCH   4   6
BRANCH   5  19
ATOM     19  C   LIG    1        3.541  -0.784  -2.600  0.00  0.00    +0.110 A 
ATOM     20  C   LIG    1        2.247  -0.955  -2.126  0.00  0.00    +0.040 A 
ATOM     21  C   LIG    1        1.248  -0.089  -2.525  0.00  0.00    +0.020 A 
ATOM     22  C   LIG    1        1.532   0.941  -3.403  0.00  0.00    +0.030 A 
ATOM     23  C   LIG    1        2.818   1.110  -3.881  0.00  0.00    +0.020 A 
ATOM     24  C   LIG    1        3.823   0.250  -3.483  0.00  0.00    +0.030 A 
ENDBRANCH   5  19
BRANCH   1  26
ATOM     25  C   LIG    1        6.129  -4.147  -5.006  0.00  0.00    +0.150 C 
ATOM     26  S   LIG    1        4.917  -2.841  -4.688  0.00  0.00    -0.000 S 
ENDBRANCH   1  26
TORSDOF 4
