REMARK  Name = ZINCpk00000e9poM.0
REMARK                            x       y       z     vdW  Elec       q    Type
REMARK                         _______ _______ _______ _____ _____    ______ ____
ROOT
ATOM      1  C   LIG    1        0.731  -0.503   1.223  0.00  0.00    -0.030 A 
ATOM      2  C   LIG    1        0.258  -1.367   2.151  0.00  0.00    +0.160 A 
ATOM      3  N   LIG    1        1.251  -1.528   3.057  0.00  0.00    -0.290 N 
ATOM      4  N   LIG    1        2.249  -0.799   2.695  0.00  0.00    -0.080 NA
ATOM      5  N   LIG    1        1.970  -0.175   1.605  0.00  0.00    -0.240 NA
ENDROOT
BRANCH   1   6
ATOM      6  C   LIG    1        0.002  -0.004   0.002  0.00  0.00    +0.190 C 
BRANCH   6   7
ATOM      7  C   LIG    1       -0.019   1.526   0.010  0.00  0.00    +0.140 C 
ATOM      8  C   LIG    1       -0.760   2.033  -1.230  0.00  0.00    +0.050 C 
ATOM      9  C   LIG    1       -0.829   3.563  -1.183  0.00  0.00    +0.020 C 
ATOM     10  C   LIG    1       -1.512   3.993   0.119  0.00  0.00    +0.000 C 
ATOM     11  C   LIG    1       -0.741   3.410   1.307  0.00  0.00    +0.210 C 
ATOM     12  O   LIG    1       -0.688   1.987   1.186  0.00  0.00    -0.350 OA
BRANCH   7  13
ATOM     13  C   LIG    1        1.395   2.048  -0.000  0.00  0.00    +0.450 C 
ATOM     14  O   LIG    1        1.920   2.348  -1.046  0.00  0.00    -0.510 OA
BRANCH  13  15
ATOM     15  O   LIG    1        2.071   2.179   1.152  0.00  0.00    -0.320 OA
BRANCH  15  17
ATOM     16  C   LIG    1        4.033   2.767   2.469  0.00  0.00    +0.050 C 
ATOM     17  C   LIG    1        3.428   2.688   1.066  0.00  0.00    +0.200 C 
ENDBRANCH  15  17
ENDBRANCH  13  15
ENDBRANCH   7  13
ENDBRANCH   6   7
ENDBRANCH   1   6
BRANCH   3  18
ATOM     18  C   LIG    1        1.198  -2.381   4.246  0.00  0.00    +0.430 C 
BRANCH  18  19
ATOM     19  C   LIG    1        2.364  -3.336   4.232  0.00  0.00    +0.040 A 
ATOM     20  C   LIG    1        3.226  -3.391   5.313  0.00  0.00    +0.250 A 
ATOM     21  N   LIG    1        4.248  -4.229   5.301  0.00  0.00    -0.440 NA
ATOM     22  C   LIG    1        4.446  -5.014   4.256  0.00  0.00    +0.090 A 
ATOM     23  C   LIG    1        3.584  -4.959   3.176  0.00  0.00    +0.230 A 
ATOM     24  C   LIG    1        5.611  -5.970   4.243  0.00  0.00    +0.140 C 
ATOM     25  N   LIG    1        2.559  -4.125   3.190  0.00  0.00    -0.420 NA
ENDBRANCH  18  19
ENDBRANCH   3  18
TORSDOF 7
