REMARK  Name = ZINCrg00000SjSp5.0
REMARK                            x       y       z     vdW  Elec       q    Type
REMARK                         _______ _______ _______ _____ _____    ______ ____
ROOT
ATOM      1  C   LIG    1       -0.742   1.585  -1.213  0.00  0.00    +0.510 C 
ATOM      2  N   LIG    1       -0.288   1.272  -2.443  0.00  0.00    -0.730 N 
ATOM      3  H   LIG    1        0.507   0.726  -2.543  0.00  0.00    +0.400 HD
ATOM      4  O   LIG    1       -1.736   2.268  -1.088  0.00  0.00    -0.540 OA
ENDROOT
BRANCH   1   5
ATOM      5  C   LIG    1       -0.013   1.086   0.008  0.00  0.00    +0.050 C 
BRANCH   5   6
ATOM      6  C   LIG    1       -0.729   1.579   1.267  0.00  0.00    +0.150 C 
BRANCH   6   9
ATOM      7  C   LIG    1        1.235   3.227   2.560  0.00  0.00    +0.170 C 
ATOM      8  C   LIG    1        0.924   1.854   3.097  0.00  0.00    +0.180 A 
ATOM      9  C   LIG    1        0.000   1.080   2.488  0.00  0.00    -0.230 A 
ATOM     10  C   LIG    1       -0.271  -0.209   3.008  0.00  0.00    +0.540 A 
ATOM     11  N   LIG    1        0.395  -0.634   4.101  0.00  0.00    -0.610 N 
ATOM     12  H   LIG    1        0.215  -1.516   4.463  0.00  0.00    +0.450 HD
ATOM     13  C   LIG    1        1.307   0.160   4.691  0.00  0.00    +0.530 A 
ATOM     14  S   LIG    1        2.140  -0.398   6.079  0.00  0.00    -0.540 S 
ATOM     15  O   LIG    1       -1.096  -0.926   2.473  0.00  0.00    -0.490 OA
ATOM     16  N   LIG    1        1.573   1.387   4.207  0.00  0.00    -0.580 N 
ATOM     17  H   LIG    1        2.234   1.944   4.647  0.00  0.00    +0.450 HD
ENDBRANCH   6   9
ENDBRANCH   5   6
ENDBRANCH   1   5
BRANCH   2  18
ATOM     18  C   LIG    1       -0.997   1.758  -3.630  0.00  0.00    +0.260 C 
BRANCH  18  19
ATOM     19  C   LIG    1       -0.281   1.264  -4.889  0.00  0.00    +0.010 C 
BRANCH  19  20
ATOM     20  C   LIG    1       -1.021   1.771  -6.128  0.00  0.00    +0.020 C 
BRANCH  20  21
ATOM     21  C   LIG    1       -0.305   1.278  -7.387  0.00  0.00    +0.030 C 
BRANCH  21  22
ATOM     22  C   LIG    1       -1.045   1.784  -8.627  0.00  0.00    +0.120 C 
BRANCH  22  23
ATOM     23  C   LIG    1       -0.339   1.298  -9.867  0.00  0.00    +0.180 A 
ATOM     24  C   LIG    1       -0.516   0.073 -10.479  0.00  0.00    -0.230 A 
ATOM     25  C   LIG    1        0.343   0.043 -11.607  0.00  0.00    +0.390 A 
ATOM     26  N   LIG    1        0.991   1.181 -11.650  0.00  0.00    -0.350 NA
ATOM     27  N   LIG    1        0.580   1.976 -10.574  0.00  0.00    -0.450 N 
ATOM     28  H   LIG    1        0.904   2.868 -10.373  0.00  0.00    +0.450 HD
BRANCH  25  29
ATOM     29  N   LIG    1        0.477  -1.013 -12.510  0.00  0.00    -0.840 N 
ATOM     30  H   LIG    1       -0.049  -1.820 -12.394  0.00  0.00    +0.410 HD
ATOM     31  H   LIG    1        1.097  -0.941 -13.252  0.00  0.00    +0.410 HD
ENDBRANCH  25  29
BRANCH  24  32
ATOM     32  C   LIG    1       -1.400  -0.970 -10.055  0.00  0.00    +0.290 C 
ATOM     33  N   LIG    1       -2.102  -1.797  -9.718  0.00  0.00    -0.430 NA
ENDBRANCH  24  32
ENDBRANCH  22  23
ENDBRANCH  21  22
ENDBRANCH  20  21
ENDBRANCH  19  20
ENDBRANCH  18  19
ENDBRANCH   2  18
TORSDOF 11
