REMARK  Name = ZINCrg00000SjSLs.0
REMARK                            x       y       z     vdW  Elec       q    Type
REMARK                         _______ _______ _______ _____ _____    ______ ____
ROOT
ATOM      1  N   LIG    1        3.869   2.786  -3.305  0.00  0.00    -1.000 NA
ATOM      2  C   LIG    1        4.107   3.443  -2.011  0.00  0.00    +0.290 C 
ATOM      3  C   LIG    1        3.902   2.413  -0.894  0.00  0.00    +0.270 C 
ATOM      4  N   LIG    1        2.621   1.729  -1.115  0.00  0.00    -0.610 N 
ATOM      5  C   LIG    1        2.385   1.067  -2.406  0.00  0.00    +0.290 C 
ATOM      6  C   LIG    1        1.681   1.703  -0.150  0.00  0.00    +0.530 C 
ATOM      7  O   LIG    1        0.658   1.072  -0.315  0.00  0.00    -0.530 OA
ATOM      8  C   LIG    1        2.588   2.102  -3.526  0.00  0.00    +0.300 C 
ENDROOT
BRANCH   1   9
ATOM      9  S   LIG    1        5.025   2.817  -4.491  0.00  0.00    +2.690 S 
ATOM     10  O   LIG    1        5.843   3.948  -4.225  0.00  0.00    -0.950 OA
ATOM     11  O   LIG    1        4.341   2.623  -5.721  0.00  0.00    -0.950 OA
BRANCH   9  16
ATOM     12  C   LIG    1        8.522  -2.036  -3.703  0.00  0.00    +0.100 C 
ATOM     13  C   LIG    1        7.649  -0.824  -3.900  0.00  0.00    -0.030 A 
ATOM     14  C   LIG    1        6.529  -0.903  -4.706  0.00  0.00    -0.010 A 
ATOM     15  C   LIG    1        5.728   0.209  -4.887  0.00  0.00    +0.120 A 
ATOM     16  C   LIG    1        6.046   1.400  -4.261  0.00  0.00    -0.680 A 
ATOM     17  C   LIG    1        7.169   1.480  -3.458  0.00  0.00    +0.120 A 
ATOM     18  C   LIG    1        7.968   0.367  -3.274  0.00  0.00    -0.110 A 
ATOM     19  C   LIG    1        9.188   0.452  -2.395  0.00  0.00    +0.100 C 
ENDBRANCH   9  16
ENDBRANCH   1   9
BRANCH   6  20
ATOM     20  C   LIG    1        1.901   2.458   1.136  0.00  0.00    -0.020 C 
ATOM     21  C   LIG    1        2.752   1.612   2.085  0.00  0.00    +0.060 C 
BRANCH  20  22
ATOM     22  C   LIG    1        0.550   2.755   1.790  0.00  0.00    +0.360 C 
BRANCH  22  23
ATOM     23  N   LIG    1        0.755   3.591   2.976  0.00  0.00    -0.380 N 
ATOM     24  C   LIG    1        0.182   4.780   3.232  0.00  0.00    +0.480 A 
ATOM     25  N   LIG    1        0.622   5.201   4.391  0.00  0.00    -0.550 NA
ATOM     26  C   LIG    1        1.479   4.316   4.897  0.00  0.00    +0.420 A 
ATOM     27  N   LIG    1        1.593   3.312   4.067  0.00  0.00    -0.320 NA
ENDBRANCH  22  23
ENDBRANCH  20  22
ENDBRANCH   6  20
TORSDOF 5
