REMARK  Name = ZINCrH000004qzUI.0
REMARK                            x       y       z     vdW  Elec       q    Type
REMARK                         _______ _______ _______ _____ _____    ______ ____
ROOT
ATOM      1  C   LIG    1       -1.549   2.029   2.037  0.00  0.00    +0.540 C 
ATOM      2  N   LIG    1       -2.464   1.161   1.561  0.00  0.00    -0.720 N 
ATOM      3  H   LIG    1       -3.339   1.480   1.288  0.00  0.00    +0.400 HD
ATOM      4  O   LIG    1       -0.429   1.646   2.298  0.00  0.00    -0.520 OA
ENDROOT
BRANCH   1   5
ATOM      5  C   LIG    1       -1.918   3.476   2.243  0.00  0.00    +0.100 C 
BRANCH   5   6
ATOM      6  S   LIG    1       -0.483   4.379   2.887  0.00  0.00    +0.120 S 
BRANCH   6  14
ATOM      7  C   LIG    1        0.234   9.960   4.348  0.00  0.00    +0.160 C 
ATOM      8  C   LIG    1       -1.092   9.466   3.828  0.00  0.00    +0.210 A 
ATOM      9  C   LIG    1       -2.141  10.319   3.693  0.00  0.00    -0.050 A 
ATOM     10  C   LIG    1       -3.360   9.832   3.208  0.00  0.00    +0.240 A 
ATOM     11  N   LIG    1       -3.486   8.563   2.887  0.00  0.00    -0.470 NA
ATOM     12  C   LIG    1       -2.458   7.717   3.017  0.00  0.00    +0.460 A 
ATOM     13  N   LIG    1       -2.332   6.418   2.768  0.00  0.00    -0.530 NA
ATOM     14  C   LIG    1       -1.095   6.022   3.062  0.00  0.00    +0.230 A 
ATOM     15  N   LIG    1       -0.402   7.050   3.510  0.00  0.00    -0.310 NA
ATOM     16  C   LIG    1       -4.532  10.765   3.054  0.00  0.00    +0.180 C 
ATOM     17  N   LIG    1       -1.255   8.161   3.488  0.00  0.00    -0.330 N 
ENDBRANCH   6  14
ENDBRANCH   5   6
ENDBRANCH   1   5
BRANCH   2  18
ATOM     18  C   LIG    1       -2.139  -0.263   1.457  0.00  0.00    +0.290 C 
BRANCH  18  19
ATOM     19  C   LIG    1       -3.401  -1.077   1.581  0.00  0.00    -0.090 A 
ATOM     20  C   LIG    1       -4.565  -0.643   0.975  0.00  0.00    +0.000 A 
ATOM     21  C   LIG    1       -5.722  -1.392   1.085  0.00  0.00    +0.010 A 
ATOM     22  C   LIG    1       -5.716  -2.571   1.807  0.00  0.00    +0.000 A 
ATOM     23  C   LIG    1       -4.553  -3.002   2.417  0.00  0.00    +0.010 A 
ATOM     24  C   LIG    1       -3.395  -2.255   2.304  0.00  0.00    +0.010 A 
ENDBRANCH  18  19
BRANCH  18  25
ATOM     25  C   LIG    1       -1.484  -0.539   0.102  0.00  0.00    +0.020 C 
BRANCH  25  26
ATOM     26  C   LIG    1       -1.020  -1.995   0.047  0.00  0.00    -0.020 C 
ATOM     27  C   LIG    1       -0.488  -2.308  -1.353  0.00  0.00    +0.010 C 
ATOM     28  C   LIG    1        0.091  -2.216   1.076  0.00  0.00    +0.020 C 
ENDBRANCH  25  26
ENDBRANCH  18  25
ENDBRANCH   2  18
TORSDOF 7
