REMARK  Name = ZINCkj000005k9Qn.1
REMARK                            x       y       z     vdW  Elec       q    Type
REMARK                         _______ _______ _______ _____ _____    ______ ____
ROOT
ATOM      1  C   LIG    1       -0.525   2.918   5.819  0.00  0.00    +0.350 C 
ENDROOT
BRANCH   1   2
ATOM      2  C   LIG    1        0.498   3.085   6.914  0.00  0.00    -0.160 A 
ATOM      3  C   LIG    1        0.782   2.030   7.760  0.00  0.00    +0.110 A 
ATOM      4  C   LIG    1        1.723   2.182   8.762  0.00  0.00    +0.010 A 
ATOM      5  C   LIG    1        2.373   3.392   8.922  0.00  0.00    +0.160 A 
ATOM      6  C   LIG    1        2.085   4.448   8.078  0.00  0.00    -0.680 A 
ATOM      7  C   LIG    1        1.147   4.295   7.074  0.00  0.00    +0.160 A 
BRANCH   6   8
ATOM      8  S   LIG    1        2.913   5.990   8.282  0.00  0.00    +2.700 S 
ATOM      9  O   LIG    1        2.853   6.647   7.024  0.00  0.00    -0.960 OA
ATOM     10  O   LIG    1        4.133   5.704   8.952  0.00  0.00    -0.950 OA
BRANCH   8  11
ATOM     11  N   LIG    1        2.006   6.899   9.328  0.00  0.00    -1.250 NA
ATOM     12  H   LIG    1        2.297   7.791   9.572  0.00  0.00    +0.430 HD
ATOM     13  H   LIG    1        1.185   6.538   9.697  0.00  0.00    +0.420 HD
ENDBRANCH   8  11
ENDBRANCH   6   8
ENDBRANCH   1   2
BRANCH   1  14
ATOM     14  N   LIG    1        0.137   2.446   4.601  0.00  0.00    -0.650 NA
ATOM     15  H   LIG    1        1.095   2.292   4.597  0.00  0.00    +0.430 HD
BRANCH  14  19
ATOM     16  C   LIG    1       -4.169   2.414   2.216  0.00  0.00    +0.200 C 
ATOM     17  C   LIG    1       -2.679   2.195   2.277  0.00  0.00    +0.230 C 
ATOM     18  C   LIG    1       -1.984   2.436   3.445  0.00  0.00    -0.060 C 
ATOM     19  C   LIG    1       -0.605   2.218   3.453  0.00  0.00    +0.490 C 
ATOM     20  N   LIG    1       -0.015   1.789   2.341  0.00  0.00    -0.530 NA
ATOM     21  C   LIG    1       -0.718   1.572   1.248  0.00  0.00    +0.440 C 
ATOM     22  C   LIG    1       -0.013   1.086   0.008  0.00  0.00    +0.240 C 
ATOM     23  N   LIG    1       -2.020   1.773   1.207  0.00  0.00    -0.540 NA
ATOM     24  H   LIG    1       -2.503   1.606   0.383  0.00  0.00    +0.450 HD
ENDBRANCH  14  19
ENDBRANCH   1  14
TORSDOF 5
