REMARK  Name = ZINCpe000000UhwZ.0
REMARK                            x       y       z     vdW  Elec       q    Type
REMARK                         _______ _______ _______ _____ _____    ______ ____
ROOT
ATOM      1  C   LIG    1        0.487   4.995  -0.783  0.00  0.00    +0.560 C 
ATOM      2  N   LIG    1        0.663   3.685  -1.045  0.00  0.00    -0.610 N 
ATOM      3  C   LIG    1        1.919   3.007  -0.692  0.00  0.00    +0.270 C 
ATOM      4  C   LIG    1        2.435   2.262  -1.928  0.00  0.00    +0.170 C 
ATOM      5  N   LIG    1        1.377   1.382  -2.442  0.00  0.00    -0.690 NA
ATOM      6  H   LIG    1        1.725   0.793  -3.183  0.00  0.00    +0.350 HD
ATOM      7  C   LIG    1        0.211   2.156  -2.889  0.00  0.00    +0.180 C 
ATOM      8  C   LIG    1       -0.396   2.896  -1.692  0.00  0.00    +0.320 C 
ATOM      9  O   LIG    1       -0.517   5.563  -1.168  0.00  0.00    -0.500 OA
ENDROOT
BRANCH   1  16
ATOM     10  N   LIG    1        4.316   8.074   1.929  0.00  0.00    -0.540 N 
ATOM     11  C   LIG    1        4.110   9.248   1.304  0.00  0.00    +0.680 A 
ATOM     12  N   LIG    1        3.136   9.108   0.385  0.00  0.00    -0.640 N 
ATOM     13  H   LIG    1        2.801   9.806  -0.199  0.00  0.00    +0.440 HD
ATOM     14  C   LIG    1        2.693   7.787   0.415  0.00  0.00    +0.080 A 
ATOM     15  C   LIG    1        1.734   7.093  -0.298  0.00  0.00    +0.100 A 
ATOM     16  C   LIG    1        1.513   5.742  -0.028  0.00  0.00    -0.130 A 
ATOM     17  C   LIG    1        2.267   5.093   0.955  0.00  0.00    +0.060 A 
ATOM     18  C   LIG    1        3.225   5.786   1.661  0.00  0.00    +0.030 A 
ATOM     19  O   LIG    1        4.712  10.280   1.535  0.00  0.00    -0.550 OA
ATOM     20  C   LIG    1        3.445   7.133   1.398  0.00  0.00    +0.120 A 
BRANCH  10  22
ATOM     21  C   LIG    1        6.623   7.391   2.370  0.00  0.00    +0.030 C 
ATOM     22  C   LIG    1        5.295   7.830   2.991  0.00  0.00    +0.310 C 
ENDBRANCH  10  22
ENDBRANCH   1  16
BRANCH   8  23
ATOM     23  C   LIG    1       -1.495   3.813  -2.164  0.00  0.00    -0.210 A 
ATOM     24  C   LIG    1       -2.736   3.908  -1.632  0.00  0.00    +0.240 A 
ATOM     25  N   LIG    1       -3.413   4.841  -2.333  0.00  0.00    -0.480 N 
ATOM     26  H   LIG    1       -4.329   5.121  -2.175  0.00  0.00    +0.440 HD
ATOM     27  N   LIG    1       -2.564   5.330  -3.334  0.00  0.00    -0.290 NA
ATOM     28  C   LIG    1       -1.414   4.713  -3.231  0.00  0.00    +0.260 A 
ENDBRANCH   8  23
TORSDOF 3
