REMARK  Name = ZINCtV00000vw6IN.0
REMARK                            x       y       z     vdW  Elec       q    Type
REMARK                         _______ _______ _______ _____ _____    ______ ____
ROOT
ATOM      1  C   LIG    1       -3.422  -2.537  -0.311  0.00  0.00    +0.060 A 
ATOM      2  N   LIG    1       -3.320  -3.346   0.690  0.00  0.00    -0.450 NA
ATOM      3  C   LIG    1       -3.063  -4.609   0.417  0.00  0.00    +0.080 A 
ATOM      4  C   LIG    1       -2.941  -4.881  -0.886  0.00  0.00    -0.040 A 
ATOM      5  S   LIG    1       -3.188  -3.382  -1.778  0.00  0.00    +0.170 S 
ENDROOT
BRANCH   1   6
ATOM      6  C   LIG    1       -3.711  -1.062  -0.201  0.00  0.00    +0.180 C 
BRANCH   6   9
ATOM      7  N   LIG    1       -2.427   1.041   0.019  0.00  0.00    -0.670 N 
ATOM      8  H   LIG    1       -3.271   1.512   0.106  0.00  0.00    +0.410 HD
ATOM      9  C   LIG    1       -2.414  -0.303  -0.090  0.00  0.00    +0.520 C 
ATOM     10  O   LIG    1       -1.359  -0.900  -0.098  0.00  0.00    -0.500 OA
BRANCH   7  17
ATOM     11  C   LIG    1       -2.363   3.587   1.289  0.00  0.00    +0.080 C 
ATOM     12  C   LIG    1       -1.149   3.002   0.614  0.00  0.00    -0.120 A 
ATOM     13  C   LIG    1        0.038   3.707   0.596  0.00  0.00    +0.030 A 
ATOM     14  C   LIG    1        1.153   3.171  -0.024  0.00  0.00    -0.010 A 
ATOM     15  C   LIG    1        1.082   1.928  -0.626  0.00  0.00    +0.030 A 
ATOM     16  C   LIG    1       -0.102   1.218  -0.610  0.00  0.00    +0.010 A 
ATOM     17  C   LIG    1       -1.224   1.755   0.006  0.00  0.00    +0.150 A 
ENDBRANCH   7  17
ENDBRANCH   6   9
ENDBRANCH   1   6
BRANCH   3  18
ATOM     18  C   LIG    1       -2.919  -5.661   1.486  0.00  0.00    +0.170 C 
BRANCH  18  19
ATOM     19  S   LIG    1       -4.535  -6.403   1.825  0.00  0.00    +0.050 S 
BRANCH  19  20
ATOM     20  C   LIG    1       -4.085  -7.561   3.074  0.00  0.00    +0.050 A 
ATOM     21  N   LIG    1       -4.902  -8.368   3.678  0.00  0.00    -0.440 NA
ATOM     22  C   LIG    1       -4.378  -9.179   4.595  0.00  0.00    +0.120 A 
ATOM     23  C   LIG    1       -3.055  -9.050   4.788  0.00  0.00    -0.050 A 
ATOM     24  S   LIG    1       -2.457  -7.798   3.702  0.00  0.00    +0.090 S 
BRANCH  22  25
ATOM     25  C   LIG    1       -5.199 -10.153   5.355  0.00  0.00    -0.030 A 
ATOM     26  C   LIG    1       -4.603 -10.980   6.305  0.00  0.00    +0.020 A 
ATOM     27  C   LIG    1       -5.373 -11.881   7.013  0.00  0.00    +0.010 A 
ATOM     28  C   LIG    1       -6.732 -11.971   6.774  0.00  0.00    +0.020 A 
ATOM     29  C   LIG    1       -7.329 -11.157   5.827  0.00  0.00    +0.010 A 
ATOM     30  C   LIG    1       -6.570 -10.249   5.117  0.00  0.00    +0.050 A 
ENDBRANCH  22  25
ENDBRANCH  19  20
ENDBRANCH  18  19
ENDBRANCH   3  18
TORSDOF 7
