REMARK  Name = ZINCrH000004vBYI.0
REMARK                            x       y       z     vdW  Elec       q    Type
REMARK                         _______ _______ _______ _____ _____    ______ ____
ROOT
ATOM      1  O   LIG    1       -0.249   2.157  -6.815  0.00  0.00    -0.510 OA
ATOM      2  C   LIG    1       -0.753   1.545  -5.894  0.00  0.00    +0.560 C 
ATOM      3  N   LIG    1        0.011   1.122  -4.867  0.00  0.00    -0.610 N 
ATOM      4  C   LIG    1        1.440   1.465  -4.799  0.00  0.00    +0.300 C 
ATOM      5  C   LIG    1        2.239   0.178  -4.571  0.00  0.00    +0.170 C 
ATOM      6  N   LIG    1        1.711  -0.521  -3.392  0.00  0.00    -0.530 NA
ATOM      7  C   LIG    1        0.318  -0.938  -3.599  0.00  0.00    +0.170 C 
ATOM      8  C   LIG    1       -0.561   0.304  -3.787  0.00  0.00    +0.290 C 
ENDROOT
BRANCH   2   9
ATOM      9  C   LIG    1       -2.204   1.265  -5.898  0.00  0.00    -0.120 A 
ATOM     10  C   LIG    1       -2.927   1.289  -4.704  0.00  0.00    +0.070 A 
ATOM     11  C   LIG    1       -4.282   1.033  -4.716  0.00  0.00    +0.040 A 
ATOM     12  C   LIG    1       -4.926   0.741  -5.906  0.00  0.00    +0.070 A 
ATOM     13  C   LIG    1       -4.216   0.709  -7.093  0.00  0.00    -0.040 A 
ATOM     14 CL   LIG    1       -5.032   0.342  -8.581  0.00  0.00    -0.040 Cl
ATOM     15  C   LIG    1       -2.858   0.970  -7.097  0.00  0.00    +0.010 A 
ATOM     16 CL   LIG    1       -1.968   0.930  -8.587  0.00  0.00    -0.020 Cl
ENDBRANCH   2   9
BRANCH   6  17
ATOM     17  C   LIG    1        2.556  -1.669  -3.037  0.00  0.00    +0.160 C 
BRANCH  17  18
ATOM     18  C   LIG    1        3.831  -1.171  -2.353  0.00  0.00    +0.270 C 
BRANCH  18  19
ATOM     19  C   LIG    1        4.705  -2.347  -2.002  0.00  0.00    -0.100 A 
ATOM     20  C   LIG    1        5.778  -2.675  -2.809  0.00  0.00    +0.050 A 
ATOM     21  C   LIG    1        6.581  -3.754  -2.490  0.00  0.00    +0.030 A 
ATOM     22  C   LIG    1        6.311  -4.507  -1.361  0.00  0.00    +0.070 A 
ATOM     23  C   LIG    1        5.235  -4.178  -0.551  0.00  0.00    +0.070 A 
ATOM     24  F   LIG    1        4.970  -4.912   0.552  0.00  0.00    -0.130 F 
ATOM     25  F   LIG    1        7.096  -5.561  -1.047  0.00  0.00    -0.130 F 
ATOM     26  C   LIG    1        4.436  -3.094  -0.870  0.00  0.00    +0.030 A 
ENDBRANCH  18  19
BRANCH  18  27
ATOM     27  O   LIG    1        3.486  -0.462  -1.161  0.00  0.00    -0.530 OA
ATOM     28  H   LIG    1        3.003  -0.993  -0.513  0.00  0.00    +0.370 HD
ENDBRANCH  18  27
ENDBRANCH  17  18
ENDBRANCH   6  17
TORSDOF 5
