REMARK  Name = ZINCrD0000072kTg.0
REMARK                            x       y       z     vdW  Elec       q    Type
REMARK                         _______ _______ _______ _____ _____    ______ ____
ROOT
ATOM      1  N   LIG    1        5.288  -3.177   2.371  0.00  0.00    -0.660 N 
ATOM      2  H   LIG    1        5.775  -3.103   3.207  0.00  0.00    +0.420 HD
ATOM      3  C   LIG    1        3.941  -3.144   2.370  0.00  0.00    +0.530 C 
ATOM      4  O   LIG    1        3.334  -3.177   1.321  0.00  0.00    -0.480 OA
ENDROOT
BRANCH   1  11
ATOM      5  C   LIG    1        7.044  -2.470   0.870  0.00  0.00    -0.080 A 
ATOM      6  C   LIG    1        7.730  -2.612  -0.320  0.00  0.00    +0.040 A 
ATOM      7  C   LIG    1        7.365  -3.599  -1.217  0.00  0.00    +0.030 A 
ATOM      8  C   LIG    1        6.311  -4.447  -0.926  0.00  0.00    -0.030 A 
ATOM      9  C   LIG    1        5.623  -4.312   0.266  0.00  0.00    -0.050 A 
ATOM     10 CL   LIG    1        5.856  -5.684  -2.055  0.00  0.00    -0.060 Cl
ATOM     11  C   LIG    1        5.985  -3.319   1.166  0.00  0.00    +0.150 A 
BRANCH   5  13
ATOM     12  C   LIG    1        8.396  -1.980   2.890  0.00  0.00    +0.020 C 
ATOM     13  C   LIG    1        7.443  -1.393   1.847  0.00  0.00    +0.060 C 
ENDBRANCH   5  13
BRANCH   9  14
ATOM     14  C   LIG    1        4.479  -5.239   0.586  0.00  0.00    +0.060 C 
ATOM     15  C   LIG    1        3.752  -5.616  -0.706  0.00  0.00    +0.020 C 
ENDBRANCH   9  14
ENDBRANCH   1  11
BRANCH   3  16
ATOM     16  C   LIG    1        3.189  -3.064   3.674  0.00  0.00    +0.110 C 
BRANCH  16  17
ATOM     17  S   LIG    1        1.409  -3.036   3.343  0.00  0.00    +0.140 S 
BRANCH  17  18
ATOM     18  C   LIG    1        0.793  -2.944   4.991  0.00  0.00    +0.210 A 
ATOM     19  N   LIG    1        1.510  -2.910   6.093  0.00  0.00    -0.340 NA
ATOM     20  N   LIG    1        0.748  -2.843   7.124  0.00  0.00    -0.030 NA
ATOM     21  N   LIG    1       -0.490  -2.829   6.766  0.00  0.00    -0.080 NA
ATOM     22  N   LIG    1       -0.508  -2.894   5.361  0.00  0.00    -0.360 N 
BRANCH  22  23
ATOM     23  C   LIG    1       -1.683  -2.906   4.487  0.00  0.00    +0.340 C 
BRANCH  23  24
ATOM     24  C   LIG    1       -2.057  -1.470   4.114  0.00  0.00    +0.150 C 
ATOM     25  C   LIG    1       -3.364  -1.465   3.292  0.00  0.00    +0.020 C 
ATOM     26  C   LIG    1       -3.079  -0.368   2.229  0.00  0.00    +0.010 C 
ATOM     27  C   LIG    1       -1.558  -0.560   2.006  0.00  0.00    +0.210 C 
ATOM     28  O   LIG    1       -1.029  -0.896   3.299  0.00  0.00    -0.370 OA
ENDBRANCH  23  24
ENDBRANCH  22  23
ENDBRANCH  17  18
ENDBRANCH  16  17
ENDBRANCH   3  16
TORSDOF 8
