REMARK  Name = ZINCpk000000nPRa.0
REMARK                            x       y       z     vdW  Elec       q    Type
REMARK                         _______ _______ _______ _____ _____    ______ ____
ROOT
ATOM      1  N   LIG    1       -2.159  -1.210   2.206  0.00  0.00    -0.710 N 
ATOM      2  H   LIG    1       -1.344  -1.570   1.824  0.00  0.00    +0.410 HD
ATOM      3  C   LIG    1       -3.354  -1.720   1.847  0.00  0.00    +0.610 C 
ATOM      4  O   LIG    1       -4.376  -1.268   2.326  0.00  0.00    -0.540 OA
ENDROOT
BRANCH   3   5
ATOM      5  C   LIG    1       -3.421  -2.826   0.874  0.00  0.00    -0.100 A 
ATOM      6  C   LIG    1       -4.563  -3.433   0.432  0.00  0.00    +0.320 A 
ATOM      7  N   LIG    1       -4.185  -4.384  -0.445  0.00  0.00    -0.360 N 
ATOM      8  N   LIG    1       -2.786  -4.340  -0.514  0.00  0.00    -0.060 NA
ATOM      9  N   LIG    1       -2.370  -3.411   0.275  0.00  0.00    -0.200 NA
BRANCH   7  10
ATOM     10  C   LIG    1       -5.068  -5.293  -1.181  0.00  0.00    +0.370 C 
BRANCH  10  11
ATOM     11  C   LIG    1       -4.784  -5.177  -2.680  0.00  0.00    +0.190 C 
ATOM     12  C   LIG    1       -5.682  -6.144  -3.476  0.00  0.00    +0.280 C 
ATOM     13  N   LIG    1       -6.476  -5.254  -4.337  0.00  0.00    -0.740 N 
ATOM     14  H   LIG    1       -7.150  -5.540  -4.974  0.00  0.00    +0.440 HD
ATOM     15  C   LIG    1       -6.118  -3.986  -4.098  0.00  0.00    +0.640 C 
ATOM     16  O   LIG    1       -6.615  -3.037  -4.672  0.00  0.00    -0.510 OA
ATOM     17  O   LIG    1       -5.163  -3.859  -3.171  0.00  0.00    -0.320 OA
ENDBRANCH  10  11
ENDBRANCH   7  10
ENDBRANCH   3   5
BRANCH   1  18
ATOM     18  C   LIG    1       -2.092  -0.111   3.173  0.00  0.00    +0.320 C 
BRANCH  18  24
ATOM     19  C   LIG    1        0.000   1.080   2.488  0.00  0.00    -0.050 A 
ATOM     20  C   LIG    1        1.322   1.426   2.693  0.00  0.00    +0.000 A 
ATOM     21  C   LIG    1        1.990   0.972   3.816  0.00  0.00    +0.010 A 
ATOM     22  C   LIG    1        1.337   0.164   4.727  0.00  0.00    -0.010 A 
ATOM     23  C   LIG    1        0.016  -0.187   4.519  0.00  0.00    +0.020 A 
ATOM     24  C   LIG    1       -0.652   0.271   3.400  0.00  0.00    -0.110 A 
BRANCH  19  26
ATOM     25  C   LIG    1       -0.013   1.086   0.008  0.00  0.00    +0.040 C 
ATOM     26  C   LIG    1       -0.729   1.579   1.267  0.00  0.00    +0.010 C 
ATOM     27  C   LIG    1       -0.750   3.109   1.275  0.00  0.00    +0.040 C 
ENDBRANCH  19  26
ENDBRANCH  18  24
ENDBRANCH   1  18
TORSDOF 6
