REMARK  Name = ZINCvS0000000sEU.1
REMARK                            x       y       z     vdW  Elec       q    Type
REMARK                         _______ _______ _______ _____ _____    ______ ____
ROOT
ATOM      1  C   LIG    1        4.190   0.104  -1.422  0.00  0.00    +0.240 C 
ENDROOT
BRANCH   1   2
ATOM      2  C   LIG    1        4.011  -1.265  -0.818  0.00  0.00    -0.160 A 
ATOM      3  C   LIG    1        2.870  -1.997  -1.092  0.00  0.00    +0.000 A 
ATOM      4  C   LIG    1        2.708  -3.255  -0.541  0.00  0.00    +0.040 A 
ATOM      5  C   LIG    1        3.682  -3.776   0.289  0.00  0.00    +0.060 A 
ATOM      6  C   LIG    1        4.820  -3.042   0.567  0.00  0.00    +0.040 A 
ATOM      7  C   LIG    1        4.984  -1.786   0.013  0.00  0.00    +0.050 A 
ENDBRANCH   1   2
BRANCH   1   9
ATOM      8  O   LIG    1        4.009   0.421  -3.754  0.00  0.00    -0.510 OA
ATOM      9  C   LIG    1        4.671  -0.032  -2.843  0.00  0.00    +0.510 C 
ATOM     10  N   LIG    1        5.836  -0.657  -3.103  0.00  0.00    -0.630 N 
ATOM     11  H   LIG    1        6.398  -0.960  -2.373  0.00  0.00    +0.420 HD
BRANCH  10  12
ATOM     12  C   LIG    1        6.236  -0.870  -4.428  0.00  0.00    +0.100 A 
ATOM     13  C   LIG    1        6.933  -2.023  -4.768  0.00  0.00    +0.040 A 
ATOM     14  C   LIG    1        7.321  -2.233  -6.076  0.00  0.00    +0.020 A 
ATOM     15  C   LIG    1        7.027  -1.291  -7.047  0.00  0.00    +0.110 A 
ATOM     16  C   LIG    1        6.337  -0.139  -6.710  0.00  0.00    +0.010 A 
ATOM     17  F   LIG    1        7.413  -1.496  -8.325  0.00  0.00    -0.130 F 
ATOM     18  C   LIG    1        5.942   0.073  -5.404  0.00  0.00    +0.070 A 
ENDBRANCH  10  12
ENDBRANCH   1   9
BRANCH   1  19
ATOM     19  N   LIG    1        2.906   0.818  -1.406  0.00  0.00    -0.490 N 
ATOM     20  H   LIG    1        3.006   1.702  -1.883  0.00  0.00    +0.440 HD
ATOM     21  H   LIG    1        2.205   0.262  -1.872  0.00  0.00    +0.430 HD
BRANCH  19  22
ATOM     22  C   LIG    1        2.495   1.057  -0.016  0.00  0.00    +0.340 C 
BRANCH  22  23
ATOM     23  C   LIG    1        1.179   1.789   0.001  0.00  0.00    -0.130 A 
ATOM     24  C   LIG    1       -0.007   1.079   0.016  0.00  0.00    +0.070 A 
ATOM     25  C   LIG    1       -1.215   1.751   0.025  0.00  0.00    +0.060 A 
ATOM     26  C   LIG    1       -1.238   3.133   0.030  0.00  0.00    -0.120 A 
ATOM     27  C   LIG    1       -0.052   3.843   0.014  0.00  0.00    +0.050 A 
ATOM     28  C   LIG    1        1.156   3.171  -0.000  0.00  0.00    +0.060 A 
BRANCH  26  29
ATOM     29  C   LIG    1       -2.555   3.865   0.047  0.00  0.00    +0.320 C 
BRANCH  29  30
ATOM     30  N   LIG    1       -3.001   4.102  -1.333  0.00  0.00    -0.390 N 
ATOM     31  C   LIG    1       -4.344   4.736  -1.335  0.00  0.00    +0.270 C 
ATOM     32  C   LIG    1       -4.412   5.414  -2.728  0.00  0.00    +0.070 C 
ATOM     33  C   LIG    1       -2.968   5.925  -2.936  0.00  0.00    +0.070 C 
ATOM     34  C   LIG    1       -2.098   5.063  -2.003  0.00  0.00    +0.250 C 
ATOM     35  H   LIG    1       -3.025   3.233  -1.845  0.00  0.00    +0.430 HD
ENDBRANCH  29  30
ENDBRANCH  26  29
ENDBRANCH  22  23
ENDBRANCH  19  22
ENDBRANCH   1  19
TORSDOF 8
