REMARK  Name = ZINCqH0000036VFm.0
REMARK                            x       y       z     vdW  Elec       q    Type
REMARK                         _______ _______ _______ _____ _____    ______ ____
ROOT
ATOM      1  N   LIG    1       -2.983   8.973  -0.743  0.00  0.00    -0.520 NA
ATOM      2  C   LIG    1       -2.717   8.632   0.661  0.00  0.00    +0.180 C 
ATOM      3  C   LIG    1       -1.398   7.863   0.759  0.00  0.00    +0.060 C 
ATOM      4  C   LIG    1       -1.490   6.590  -0.086  0.00  0.00    -0.040 C 
ATOM      5  C   LIG    1       -1.816   6.970  -1.533  0.00  0.00    +0.060 C 
ATOM      6  C   LIG    1       -3.123   7.764  -1.565  0.00  0.00    +0.180 C 
ENDROOT
BRANCH   4   7
ATOM      7  C   LIG    1       -0.173   5.859  -0.041  0.00  0.00    +0.400 C 
ATOM      8  O   LIG    1        0.851   6.468   0.188  0.00  0.00    -0.440 OA
BRANCH   7   9
ATOM      9  C   LIG    1       -0.129   4.408  -0.276  0.00  0.00    -0.170 A 
ATOM     10  C   LIG    1        1.092   3.726  -0.235  0.00  0.00    +0.090 A 
ATOM     11  C   LIG    1        1.126   2.366  -0.455  0.00  0.00    +0.020 A 
ATOM     12  C   LIG    1       -0.046   1.674  -0.716  0.00  0.00    -0.010 A 
ATOM     13  C   LIG    1       -1.258   2.343  -0.763  0.00  0.00    +0.020 A 
ATOM     14 CL   LIG    1        0.006  -0.039  -0.993  0.00  0.00    -0.060 Cl
ATOM     15  C   LIG    1       -1.308   3.702  -0.540  0.00  0.00    +0.080 A 
ENDBRANCH   7   9
ENDBRANCH   4   7
BRANCH   1  16
ATOM     16  C   LIG    1       -4.170   9.830  -0.861  0.00  0.00    +0.210 C 
BRANCH  16  23
ATOM     17  C   LIG    1       -8.656  11.837   0.037  0.00  0.00    +0.030 C 
ATOM     18  C   LIG    1       -7.228  12.011   0.559  0.00  0.00    -0.030 C 
ATOM     19  C   LIG    1       -7.052  13.432   1.099  0.00  0.00    +0.030 C 
ATOM     20  C   LIG    1       -5.634  13.598   1.651  0.00  0.00    -0.030 C 
ATOM     21  C   LIG    1       -4.622  13.380   0.522  0.00  0.00    +0.280 C 
ATOM     22  N   LIG    1       -4.879  12.074  -0.098  0.00  0.00    -0.610 N 
ATOM     23  C   LIG    1       -3.891  11.166  -0.222  0.00  0.00    +0.510 C 
ATOM     24  O   LIG    1       -2.777  11.424   0.182  0.00  0.00    -0.520 OA
ATOM     25  C   LIG    1       -5.394  12.569   2.758  0.00  0.00    +0.010 C 
ATOM     26  C   LIG    1       -6.233  11.778  -0.588  0.00  0.00    +0.260 C 
ENDBRANCH  16  23
ENDBRANCH   1  16
TORSDOF 4
