REMARK  Name = ZINCzw00000008E1.1
REMARK                            x       y       z     vdW  Elec       q    Type
REMARK                         _______ _______ _______ _____ _____    ______ ____
ROOT
ATOM      1  C   LIG    1       -5.003   3.126  -2.660  0.00  0.00    -0.040 A 
ATOM      2  C   LIG    1       -5.885   3.179  -3.685  0.00  0.00    +0.180 A 
ATOM      3  N   LIG    1       -7.116   3.165  -3.124  0.00  0.00    -0.280 N 
ATOM      4  N   LIG    1       -6.976   3.107  -1.845  0.00  0.00    -0.060 NA
ATOM      5  N   LIG    1       -5.728   3.077  -1.537  0.00  0.00    -0.270 NA
ENDROOT
BRANCH   1   9
ATOM      6  N   LIG    1       -1.662   2.482  -1.361  0.00  0.00    -0.400 N 
ATOM      7  C   LIG    1       -2.106   1.238  -2.041  0.00  0.00    +0.270 C 
ATOM      8  C   LIG    1       -3.000   1.726  -3.201  0.00  0.00    +0.080 C 
ATOM      9  C   LIG    1       -3.499   3.118  -2.764  0.00  0.00    +0.020 C 
ATOM     10  C   LIG    1       -3.030   4.186  -3.754  0.00  0.00    +0.080 C 
ATOM     11  C   LIG    1       -2.865   3.355  -1.377  0.00  0.00    +0.290 C 
ATOM     12  H   LIG    1       -0.905   2.913  -1.871  0.00  0.00    +0.430 HD
BRANCH   6  13
ATOM     13  C   LIG    1       -1.253   2.196   0.020  0.00  0.00    +0.400 C 
BRANCH  13  17
ATOM     14  C   LIG    1        1.281  -0.434  -0.013  0.00  0.00    -0.020 A 
ATOM     15  C   LIG    1        2.096   0.662  -0.014  0.00  0.00    -0.070 A 
ATOM     16  C   LIG    1        1.258   1.788  -0.000  0.00  0.00    +0.010 A 
ATOM     17  C   LIG    1       -0.016   1.335   0.009  0.00  0.00    -0.060 A 
ATOM     18  C   LIG    1        3.603   0.663  -0.029  0.00  0.00    +0.150 C 
ATOM     19  O   LIG    1        0.002  -0.004   0.002  0.00  0.00    -0.140 OA
BRANCH  14  20
ATOM     20  C   LIG    1        1.719  -1.832  -0.025  0.00  0.00    +0.540 C 
ATOM     21  O   LIG    1        2.905  -2.098  -0.038  0.00  0.00    -0.460 OA
BRANCH  20  23
ATOM     22  C   LIG    1        1.311  -4.186  -0.034  0.00  0.00    +0.280 C 
ATOM     23  O   LIG    1        0.805  -2.825  -0.021  0.00  0.00    -0.350 OA
ENDBRANCH  20  23
ENDBRANCH  14  20
ENDBRANCH  13  17
ENDBRANCH   6  13
ENDBRANCH   1   9
BRANCH   3  24
ATOM     24  C   LIG    1       -8.389   3.208  -3.847  0.00  0.00    +0.340 C 
BRANCH  24  25
ATOM     25  C   LIG    1       -9.252   2.014  -3.432  0.00  0.00    +0.300 C 
BRANCH  25  26
ATOM     26  N   LIG    1      -10.525   2.058  -4.155  0.00  0.00    -0.750 N 
ATOM     27  H   LIG    1      -10.703   2.776  -4.782  0.00  0.00    +0.400 HD
ATOM     28  C   LIG    1      -11.450   1.099  -3.949  0.00  0.00    +0.710 C 
ATOM     29  N   LIG    1      -12.622   1.139  -4.614  0.00  0.00    -0.740 N 
ATOM     30  H   LIG    1      -12.800   1.857  -5.241  0.00  0.00    +0.400 HD
ATOM     31  O   LIG    1      -11.228   0.199  -3.163  0.00  0.00    -0.580 OA
BRANCH  29  32
ATOM     32  C   LIG    1      -13.627   0.097  -4.389  0.00  0.00    +0.340 C 
BRANCH  32  33
ATOM     33  C   LIG    1      -14.835   0.372  -5.248  0.00  0.00    -0.120 A 
ATOM     34  C   LIG    1      -15.871   1.145  -4.757  0.00  0.00    +0.020 A 
ATOM     35  C   LIG    1      -16.977   1.401  -5.546  0.00  0.00    +0.010 A 
ATOM     36  C   LIG    1      -17.052   0.875  -6.822  0.00  0.00    +0.020 A 
ATOM     37  C   LIG    1      -16.019   0.097  -7.311  0.00  0.00    +0.010 A 
ATOM     38  C   LIG    1      -14.911  -0.154  -6.524  0.00  0.00    +0.020 A 
ENDBRANCH  32  33
ENDBRANCH  29  32
ENDBRANCH  25  26
ENDBRANCH  24  25
ENDBRANCH   3  24
TORSDOF 10
