REMARK  Name = ZINCzw00000008E1.0
REMARK                            x       y       z     vdW  Elec       q    Type
REMARK                         _______ _______ _______ _____ _____    ______ ____
ROOT
ATOM      1  C   LIG    1        1.278   1.744  -0.001  0.00  0.00    -0.040 A 
ATOM      2  C   LIG    1       -0.016   1.349   0.009  0.00  0.00    +0.180 A 
ATOM      3  N   LIG    1        0.002  -0.004   0.002  0.00  0.00    -0.280 N 
ATOM      4  N   LIG    1        1.230  -0.391  -0.012  0.00  0.00    -0.060 NA
ATOM      5  N   LIG    1        2.016   0.627  -0.014  0.00  0.00    -0.270 NA
ENDROOT
BRANCH   1   9
ATOM      6  N   LIG    1        3.962   3.764  -0.897  0.00  0.00    -0.400 N 
ATOM      7  C   LIG    1        2.939   4.616  -1.555  0.00  0.00    +0.270 C 
ATOM      8  C   LIG    1        1.638   3.789  -1.403  0.00  0.00    +0.080 C 
ATOM      9  C   LIG    1        1.789   3.162   0.002  0.00  0.00    +0.020 C 
ATOM     10  C   LIG    1        1.034   3.995   1.040  0.00  0.00    +0.090 C 
ATOM     11  C   LIG    1        3.301   3.185   0.292  0.00  0.00    +0.290 C 
ATOM     12  H   LIG    1        4.258   3.030  -1.523  0.00  0.00    +0.430 HD
BRANCH   6  13
ATOM     13  C   LIG    1        5.115   4.579  -0.491  0.00  0.00    +0.400 C 
BRANCH  13  17
ATOM     14  C   LIG    1        7.195   5.245  -3.418  0.00  0.00    -0.020 A 
ATOM     15  C   LIG    1        6.422   6.372  -3.431  0.00  0.00    -0.070 A 
ATOM     16  C   LIG    1        5.541   6.269  -2.344  0.00  0.00    +0.010 A 
ATOM     17  C   LIG    1        5.816   5.103  -1.718  0.00  0.00    -0.060 A 
ATOM     18  C   LIG    1        6.496   7.503  -4.425  0.00  0.00    +0.150 C 
ATOM     19  O   LIG    1        6.811   4.488  -2.370  0.00  0.00    -0.140 OA
BRANCH  14  20
ATOM     20  C   LIG    1        8.255   4.918  -4.375  0.00  0.00    +0.540 C 
ATOM     21  O   LIG    1        8.512   5.684  -5.284  0.00  0.00    -0.460 OA
BRANCH  20  23
ATOM     22  C   LIG    1        9.982   3.507  -5.231  0.00  0.00    +0.280 C 
ATOM     23  O   LIG    1        8.946   3.767  -4.248  0.00  0.00    -0.350 OA
ENDBRANCH  20  23
ENDBRANCH  14  20
ENDBRANCH  13  17
ENDBRANCH   6  13
ENDBRANCH   1   9
BRANCH   3  24
ATOM     24  C   LIG    1       -1.173  -0.878   0.009  0.00  0.00    +0.340 C 
BRANCH  24  25
ATOM     25  C   LIG    1       -1.100  -1.840  -1.179  0.00  0.00    +0.300 C 
BRANCH  25  26
ATOM     26  N   LIG    1       -2.276  -2.715  -1.172  0.00  0.00    -0.750 N 
ATOM     27  H   LIG    1       -2.946  -2.622  -0.476  0.00  0.00    +0.400 HD
ATOM     28  C   LIG    1       -2.426  -3.649  -2.131  0.00  0.00    +0.710 C 
ATOM     29  N   LIG    1       -3.508  -4.454  -2.125  0.00  0.00    -0.740 N 
ATOM     30  H   LIG    1       -4.178  -4.360  -1.430  0.00  0.00    +0.400 HD
ATOM     31  O   LIG    1       -1.587  -3.766  -3.003  0.00  0.00    -0.580 OA
BRANCH  29  32
ATOM     32  C   LIG    1       -3.671  -5.469  -3.168  0.00  0.00    +0.340 C 
BRANCH  32  33
ATOM     33  C   LIG    1       -4.952  -6.228  -2.934  0.00  0.00    -0.120 A 
ATOM     34  C   LIG    1       -4.946  -7.370  -2.155  0.00  0.00    +0.020 A 
ATOM     35  C   LIG    1       -6.122  -8.063  -1.936  0.00  0.00    +0.010 A 
ATOM     36  C   LIG    1       -7.302  -7.620  -2.505  0.00  0.00    +0.020 A 
ATOM     37  C   LIG    1       -7.306  -6.482  -3.289  0.00  0.00    +0.010 A 
ATOM     38  C   LIG    1       -6.132  -5.785  -3.503  0.00  0.00    +0.020 A 
ENDBRANCH  32  33
ENDBRANCH  29  32
ENDBRANCH  25  26
ENDBRANCH  24  25
ENDBRANCH   3  24
TORSDOF 10
