REMARK  Name = ZINCqH00000369Mv.0
REMARK                            x       y       z     vdW  Elec       q    Type
REMARK                         _______ _______ _______ _____ _____    ______ ____
ROOT
ATOM      1  N   LIG    1        1.430   3.482  -0.198  0.00  0.00    -0.740 N 
ATOM      2  H   LIG    1        0.685   3.913  -0.645  0.00  0.00    +0.400 HD
ATOM      3  C   LIG    1        2.470   4.218   0.241  0.00  0.00    +0.710 C 
ATOM      4  N   LIG    1        2.475   5.553   0.060  0.00  0.00    -0.740 N 
ATOM      5  H   LIG    1        1.730   5.985  -0.387  0.00  0.00    +0.390 HD
ATOM      6  O   LIG    1        3.404   3.677   0.801  0.00  0.00    -0.580 OA
ENDROOT
BRANCH   1  15
ATOM      7  C   LIG    1        3.742   0.252  -3.127  0.00  0.00    +0.130 A 
ATOM      8  C   LIG    1        4.164   1.416  -2.503  0.00  0.00    -0.090 A 
ATOM      9  C   LIG    1        3.396   1.971  -1.501  0.00  0.00    +0.080 A 
ATOM     10  C   LIG    1        2.204   1.375  -1.111  0.00  0.00    -0.130 A 
ATOM     11  C   LIG    1        1.780   0.221  -1.733  0.00  0.00    -0.030 A 
ATOM     12  C   LIG    1        0.494  -0.472  -1.366  0.00  0.00    +0.080 C 
ATOM     13  C   LIG    1        0.002  -0.004   0.002  0.00  0.00    +0.030 C 
ATOM     14  C   LIG    1       -0.019   1.529   0.010  0.00  0.00    +0.020 C 
ATOM     15  C   LIG    1        1.424   2.030  -0.001  0.00  0.00    +0.310 C 
ATOM     16  C   LIG    1        2.551  -0.341  -2.740  0.00  0.00    -0.030 A 
BRANCH   7  18
ATOM     17  C   LIG    1        5.708   0.362  -4.460  0.00  0.00    +0.240 C 
ATOM     18  O   LIG    1        4.492  -0.305  -4.114  0.00  0.00    -0.320 OA
ENDBRANCH   7  18
ENDBRANCH   1  15
BRANCH   4  19
ATOM     19  C   LIG    1        3.606   6.353   0.537  0.00  0.00    +0.300 C 
BRANCH  19  20
ATOM     20  C   LIG    1        3.702   7.641  -0.283  0.00  0.00    +0.150 C 
ATOM     21  C   LIG    1        3.911   7.292  -1.758  0.00  0.00    -0.010 C 
ATOM     22  C   LIG    1        4.066   8.586  -2.564  0.00  0.00    +0.010 C 
ATOM     23  C   LIG    1        5.231   9.397  -1.987  0.00  0.00    -0.020 C 
ATOM     24  C   LIG    1        4.971   9.664  -0.502  0.00  0.00    +0.210 C 
ATOM     25  O   LIG    1        4.805   8.421   0.183  0.00  0.00    -0.370 OA
ENDBRANCH  19  20
BRANCH  19  26
ATOM     26  C   LIG    1        3.397   6.702   2.012  0.00  0.00    -0.060 C 
ATOM     27  C   LIG    1        4.544   6.401   2.979  0.00  0.00    +0.020 C 
ATOM     28  C   LIG    1        3.278   5.541   3.003  0.00  0.00    +0.020 C 
ENDBRANCH  19  26
ENDBRANCH   4  19
TORSDOF 5
