REMARK  Name = ZINCqH0000038PCy.0
REMARK                            x       y       z     vdW  Elec       q    Type
REMARK                         _______ _______ _______ _____ _____    ______ ____
ROOT
ATOM      1  C   LIG    1        4.217   3.739  -0.031  0.00  0.00    +0.610 C 
ATOM      2  N   LIG    1        4.371   4.393  -1.200  0.00  0.00    -0.660 N 
ATOM      3  H   LIG    1        4.301   3.909  -2.038  0.00  0.00    +0.410 HD
ATOM      4  O   LIG    1        4.384   4.327   1.021  0.00  0.00    -0.490 OA
ENDROOT
BRANCH   2   5
ATOM      5  C   LIG    1        4.631   5.768  -1.204  0.00  0.00    +0.160 A 
ATOM      6  C   LIG    1        5.406   6.333  -0.202  0.00  0.00    +0.040 A 
ATOM      7  C   LIG    1        5.667   7.692  -0.207  0.00  0.00    +0.050 A 
ATOM      8  C   LIG    1        5.151   8.498  -1.203  0.00  0.00    +0.030 A 
ATOM      9  C   LIG    1        4.370   7.945  -2.209  0.00  0.00    +0.110 A 
ATOM     10  N   LIG    1        3.725   8.481  -3.321  0.00  0.00    -0.640 N 
ATOM     11  H   LIG    1        3.727   9.415  -3.583  0.00  0.00    +0.440 HD
ATOM     12  C   LIG    1        3.098   7.482  -3.970  0.00  0.00    +0.690 A 
ATOM     13  O   LIG    1        2.440   7.611  -4.986  0.00  0.00    -0.550 OA
ATOM     14  N   LIG    1        3.310   6.319  -3.325  0.00  0.00    -0.640 N 
ATOM     15  H   LIG    1        2.966   5.452  -3.590  0.00  0.00    +0.430 HD
ATOM     16  C   LIG    1        4.108   6.576  -2.211  0.00  0.00    +0.070 A 
ENDBRANCH   2   5
BRANCH   1  19
ATOM     17  C   LIG    1        6.177   1.220  -0.052  0.00  0.00    +0.210 C 
ATOM     18  C   LIG    1        4.670   1.216  -0.036  0.00  0.00    +0.030 A 
ATOM     19  C   LIG    1        3.847   2.314  -0.027  0.00  0.00    -0.260 A 
ATOM     20  C   LIG    1        2.497   1.712  -0.010  0.00  0.00    +0.090 A 
ATOM     21  N   LIG    1        2.699   0.419  -0.019  0.00  0.00    -0.320 NA
ATOM     22  O   LIG    1        3.874   0.144  -0.033  0.00  0.00    +0.110 OA
BRANCH  20  23
ATOM     23  C   LIG    1        1.194   2.421   0.009  0.00  0.00    -0.020 A 
ATOM     24  C   LIG    1        1.155   3.814   0.016  0.00  0.00    +0.050 A 
ATOM     25  C   LIG    1       -0.060   4.468   0.032  0.00  0.00    +0.030 A 
ATOM     26  C   LIG    1       -1.239   3.744   0.042  0.00  0.00    +0.050 A 
ATOM     27  C   LIG    1       -1.208   2.361   0.029  0.00  0.00    +0.030 A 
ATOM     28  C   LIG    1        0.003   1.696   0.018  0.00  0.00    -0.010 A 
ATOM     29 CL   LIG    1        0.040  -0.040   0.008  0.00  0.00    -0.040 Cl
ENDBRANCH  20  23
ENDBRANCH   1  19
TORSDOF 3
