REMARK  Name = ZINCqH0000000t8t.0
REMARK                            x       y       z     vdW  Elec       q    Type
REMARK                         _______ _______ _______ _____ _____    ______ ____
ROOT
ATOM      1  N   LIG    1        1.166  -0.673  -0.004  0.00  0.00    -0.670 N 
ATOM      2  H   LIG    1        1.996  -0.177  -0.085  0.00  0.00    +0.410 HD
ATOM      3  C   LIG    1       -0.012  -0.018   0.008  0.00  0.00    +0.600 C 
ATOM      4  O   LIG    1       -1.055  -0.643   0.028  0.00  0.00    -0.490 OA
ENDROOT
BRANCH   1  11
ATOM      5  C   LIG    1        2.229  -2.699   0.787  0.00  0.00    +0.130 A 
ATOM      6  C   LIG    1        2.249  -4.082   0.887  0.00  0.00    +0.060 A 
ATOM      7  C   LIG    1        1.244  -4.832   0.306  0.00  0.00    +0.040 A 
ATOM      8  C   LIG    1        0.215  -4.207  -0.376  0.00  0.00    -0.030 A 
ATOM      9  C   LIG    1        0.184  -2.827  -0.476  0.00  0.00    +0.070 A 
ATOM     10 CL   LIG    1       -1.044  -5.155  -1.102  0.00  0.00    -0.060 Cl
ATOM     11  C   LIG    1        1.192  -2.068   0.100  0.00  0.00    +0.130 A 
BRANCH   5  14
ATOM     12  C   LIG    1        5.622  -1.551   1.951  0.00  0.00    +0.110 C 
ATOM     13  C   LIG    1        4.509  -2.411   1.410  0.00  0.00    +0.510 C 
ATOM     14  N   LIG    1        3.248  -1.938   1.376  0.00  0.00    -0.680 N 
ATOM     15  H   LIG    1        3.045  -1.070   1.758  0.00  0.00    +0.410 HD
ATOM     16  O   LIG    1        4.748  -3.529   1.006  0.00  0.00    -0.520 OA
ENDBRANCH   5  14
ENDBRANCH   1  11
BRANCH   3  17
ATOM     17  C   LIG    1       -0.036   1.450  -0.002  0.00  0.00    -0.320 A 
ATOM     18  C   LIG    1       -1.155   2.239   0.004  0.00  0.00    +0.170 A 
ATOM     19  N   LIG    1       -0.902   3.520  -0.003  0.00  0.00    -0.430 NA
ATOM     20  C   LIG    1        0.349   3.882  -0.024  0.00  0.00    +0.100 A 
ATOM     21  C   LIG    1       -2.554   1.679   0.021  0.00  0.00    +0.180 C 
ATOM     22  S   LIG    1        1.370   2.512  -0.030  0.00  0.00    +0.260 S 
BRANCH  20  23
ATOM     23  C   LIG    1        0.820   5.285  -0.041  0.00  0.00    +0.370 A 
ATOM     24  N   LIG    1       -0.071   6.268  -0.039  0.00  0.00    -0.470 NA
ATOM     25  C   LIG    1        0.317   7.531  -0.049  0.00  0.00    +0.330 A 
ATOM     26  C   LIG    1        1.673   7.823  -0.071  0.00  0.00    -0.050 A 
ATOM     27  C   LIG    1        2.578   6.771  -0.077  0.00  0.00    +0.340 A 
ATOM     28  N   LIG    1        2.124   5.530  -0.062  0.00  0.00    -0.510 NA
ENDBRANCH  20  23
ENDBRANCH   3  17
TORSDOF 4
