REMARK  Name = ZINCpe000000YzzJ.0
REMARK                            x       y       z     vdW  Elec       q    Type
REMARK                         _______ _______ _______ _____ _____    ______ ____
ROOT
ATOM      1  C   LIG    1        4.166   2.033   0.315  0.00  0.00    +0.180 A 
ATOM      2  C   LIG    1        4.254   3.412   0.171  0.00  0.00    -0.020 A 
ATOM      3  C   LIG    1        3.104   4.176   0.110  0.00  0.00    +0.050 A 
ATOM      4  C   LIG    1        1.865   3.572   0.192  0.00  0.00    +0.010 A 
ATOM      5  C   LIG    1        1.770   2.193   0.334  0.00  0.00    +0.160 A 
ATOM      6  C   LIG    1        2.923   1.424   0.402  0.00  0.00    +0.010 A 
ENDROOT
BRANCH   1  10
ATOM      7  N   LIG    1        6.499  -0.679  -0.194  0.00  0.00    -0.730 N 
ATOM      8  H   LIG    1        7.309  -0.302   0.183  0.00  0.00    +0.410 HD
ATOM      9  C   LIG    1        5.352   0.028  -0.171  0.00  0.00    +0.710 C 
ATOM     10  N   LIG    1        5.331   1.260   0.377  0.00  0.00    -0.680 N 
ATOM     11  H   LIG    1        6.123   1.610   0.814  0.00  0.00    +0.410 HD
ATOM     12  O   LIG    1        4.337  -0.444  -0.645  0.00  0.00    -0.570 OA
BRANCH   7  13
ATOM     13  C   LIG    1        6.523  -2.017  -0.790  0.00  0.00    +0.320 C 
BRANCH  13  17
ATOM     14  N   LIG    1        8.175  -3.818  -1.174  0.00  0.00    -0.850 N 
ATOM     15  H   LIG    1        9.070  -4.185  -1.109  0.00  0.00    +0.410 HD
ATOM     16  H   LIG    1        7.467  -4.336  -1.589  0.00  0.00    +0.410 HD
ATOM     17  C   LIG    1        7.914  -2.588  -0.689  0.00  0.00    +0.510 C 
ATOM     18  O   LIG    1        8.799  -1.941  -0.170  0.00  0.00    -0.540 OA
ENDBRANCH  13  17
ENDBRANCH   7  13
ENDBRANCH   1  10
BRANCH   5  19
ATOM     19  N   LIG    1        0.515   1.583   0.416  0.00  0.00    -0.660 N 
ATOM     20  H   LIG    1        0.374   0.709   0.019  0.00  0.00    +0.410 HD
ATOM     21  C   LIG    1       -0.500   2.211   1.042  0.00  0.00    +0.560 C 
ATOM     22  O   LIG    1       -0.348   3.339   1.465  0.00  0.00    -0.500 OA
BRANCH  21  23
ATOM     23  C   LIG    1       -1.805   1.523   1.213  0.00  0.00    -0.030 A 
ATOM     24  C   LIG    1       -2.855   2.158   1.854  0.00  0.00    +0.020 A 
ATOM     25  C   LIG    1       -4.079   1.477   1.999  0.00  0.00    +0.530 A 
ATOM     26  N   LIG    1       -4.217   0.227   1.519  0.00  0.00    -0.600 N 
ATOM     27  H   LIG    1       -5.065  -0.233   1.625  0.00  0.00    +0.420 HD
ATOM     28  C   LIG    1       -3.191  -0.400   0.889  0.00  0.00    +0.200 A 
ATOM     29 CL   LIG    1       -3.416  -2.012   0.286  0.00  0.00    -0.000 Cl
ATOM     30  O   LIG    1       -5.015   2.021   2.561  0.00  0.00    -0.520 OA
ATOM     31  C   LIG    1       -1.996   0.216   0.721  0.00  0.00    -0.030 A 
ENDBRANCH  21  23
ENDBRANCH   5  19
TORSDOF 5
