REMARK  Name = ZINCpk000000pVmD.0
REMARK                            x       y       z     vdW  Elec       q    Type
REMARK                         _______ _______ _______ _____ _____    ______ ____
ROOT
ATOM      1  C   LIG    1        3.806   4.095   1.929  0.00  0.00    +0.180 A 
ATOM      2  C   LIG    1        3.210   3.292   0.978  0.00  0.00    -0.290 A 
ATOM      3  C   LIG    1        4.215   2.920   0.056  0.00  0.00    +0.300 A 
ATOM      4  N   LIG    1        5.334   3.475   0.432  0.00  0.00    -0.280 NA
ATOM      5  N   LIG    1        5.106   4.210   1.600  0.00  0.00    -0.310 N 
ENDROOT
BRANCH   2   6
ATOM      6  C   LIG    1        1.792   2.892   0.934  0.00  0.00    +0.600 C 
ATOM      7  N   LIG    1        1.462   1.594   0.790  0.00  0.00    -0.610 N 
ATOM      8  C   LIG    1        2.500   0.576   0.581  0.00  0.00    +0.270 C 
ATOM      9  C   LIG    1        2.330  -0.526   1.632  0.00  0.00    +0.020 C 
ATOM     10  C   LIG    1        0.900  -1.066   1.571  0.00  0.00    +0.050 C 
ATOM     11  C   LIG    1       -0.087   0.060   1.888  0.00  0.00    -0.020 C 
ATOM     12  C   LIG    1        0.056   1.168   0.841  0.00  0.00    +0.310 C 
ATOM     13  O   LIG    1        0.919   3.735   1.028  0.00  0.00    -0.530 OA
BRANCH  11  14
ATOM     14  C   LIG    1       -1.494  -0.480   1.861  0.00  0.00    +0.520 C 
ATOM     15  N   LIG    1       -2.535   0.339   2.110  0.00  0.00    -0.740 N 
ATOM     16  H   LIG    1       -2.379   1.276   2.306  0.00  0.00    +0.400 HD
ATOM     17  C   LIG    1       -3.902  -0.186   2.083  0.00  0.00    +0.290 C 
ATOM     18  O   LIG    1       -1.689  -1.651   1.614  0.00  0.00    -0.530 OA
ENDBRANCH  11  14
ENDBRANCH   2   6
BRANCH   5  19
ATOM     19  C   LIG    1        6.066   4.942   2.306  0.00  0.00    +0.360 A 
ATOM     20  C   LIG    1        7.407   4.593   2.207  0.00  0.00    +0.000 A 
ATOM     21  C   LIG    1        8.348   5.326   2.911  0.00  0.00    +0.100 A 
ATOM     22  C   LIG    1        7.911   6.386   3.692  0.00  0.00    -0.020 A 
ATOM     23  C   LIG    1        6.561   6.676   3.744  0.00  0.00    +0.300 A 
ATOM     24  N   LIG    1        5.689   5.963   3.058  0.00  0.00    -0.490 NA
ENDBRANCH   5  19
BRANCH   1  26
ATOM     25  C   LIG    1        2.592   6.104   2.727  0.00  0.00    +0.050 C 
ATOM     26  C   LIG    1        3.127   4.725   3.118  0.00  0.00    +0.100 C 
ENDBRANCH   1  26
TORSDOF 4
