REMARK  Name = ZINCpk000000oCso.0
REMARK                            x       y       z     vdW  Elec       q    Type
REMARK                         _______ _______ _______ _____ _____    ______ ____
ROOT
ATOM      1  C   LIG    1        5.952   1.935   1.608  0.00  0.00    -0.680 A 
ATOM      2  C   LIG    1        6.297   2.751   0.545  0.00  0.00    +0.150 A 
ATOM      3  C   LIG    1        5.346   3.115  -0.392  0.00  0.00    +0.000 A 
ATOM      4  C   LIG    1        4.048   2.666  -0.273  0.00  0.00    +0.100 A 
ATOM      5  C   LIG    1        3.693   1.841   0.796  0.00  0.00    -0.140 A 
ATOM      6  C   LIG    1        4.655   1.482   1.741  0.00  0.00    +0.190 A 
ENDROOT
BRANCH   5   7
ATOM      7  C   LIG    1        2.303   1.356   0.931  0.00  0.00    +0.580 C 
ATOM      8  N   LIG    1        1.528   1.219  -0.163  0.00  0.00    -0.600 N 
ATOM      9  C   LIG    1        1.913   1.583  -1.539  0.00  0.00    +0.260 C 
ATOM     10  C   LIG    1        1.018   0.703  -2.447  0.00  0.00    +0.060 C 
ATOM     11  C   LIG    1       -0.314   0.688  -1.651  0.00  0.00    +0.060 C 
ATOM     12  C   LIG    1        0.161   0.680  -0.183  0.00  0.00    +0.270 C 
ATOM     13  O   LIG    1        1.859   1.082   2.029  0.00  0.00    -0.510 OA
BRANCH  12  14
ATOM     14  C   LIG    1       -0.743   1.546   0.656  0.00  0.00    +0.450 C 
ATOM     15  O   LIG    1       -0.296   2.515   1.223  0.00  0.00    -0.490 OA
BRANCH  14  16
ATOM     16  O   LIG    1       -2.045   1.241   0.774  0.00  0.00    -0.360 OA
ATOM     17  C   LIG    1       -2.856   2.119   1.599  0.00  0.00    +0.260 C 
ENDBRANCH  14  16
ENDBRANCH  12  14
ENDBRANCH   5   7
BRANCH   1  18
ATOM     18  S   LIG    1        7.170   1.477   2.796  0.00  0.00    +2.690 S 
ATOM     19  O   LIG    1        8.428   1.598   2.148  0.00  0.00    -0.950 OA
ATOM     20  O   LIG    1        6.715   0.270   3.392  0.00  0.00    -0.950 OA
BRANCH  18  21
ATOM     21  N   LIG    1        7.146   2.625   3.989  0.00  0.00    -0.990 NA
BRANCH  21  23
ATOM     22  C   LIG    1        7.047   1.810   6.293  0.00  0.00    +0.020 C 
ATOM     23  C   LIG    1        6.266   2.459   5.148  0.00  0.00    +0.280 C 
ENDBRANCH  21  23
BRANCH  21  24
ATOM     24  C   LIG    1        8.005   3.807   3.885  0.00  0.00    +0.290 C 
ATOM     25  C   LIG    1        7.213   4.960   3.265  0.00  0.00    +0.000 C 
ENDBRANCH  21  24
ENDBRANCH  18  21
ENDBRANCH   1  18
TORSDOF 7
