REMARK  Name = ZINCpe000027pHlR.0
REMARK                            x       y       z     vdW  Elec       q    Type
REMARK                         _______ _______ _______ _____ _____    ______ ____
ROOT
ATOM      1  C   LIG    1        2.019  -2.746   1.222  0.00  0.00    +0.260 C 
ATOM      2  C   LIG    1        0.889  -2.119   0.837  0.00  0.00    -0.270 C 
ATOM      3  C   LIG    1        3.087  -1.987   1.965  0.00  0.00    +0.160 C 
ENDROOT
BRANCH   2   4
ATOM      4  C   LIG    1        0.635  -0.794   1.264  0.00  0.00    +0.570 C 
ATOM      5  N   LIG    1       -0.431  -0.124   0.784  0.00  0.00    -0.730 N 
ATOM      6  H   LIG    1       -1.024  -0.550   0.145  0.00  0.00    +0.390 HD
ATOM      7  O   LIG    1        1.379  -0.260   2.066  0.00  0.00    -0.560 OA
BRANCH   5   8
ATOM      8  C   LIG    1       -0.694   1.248   1.226  0.00  0.00    +0.240 C 
ATOM      9  C   LIG    1       -1.487   1.219   2.534  0.00  0.00    +0.000 C 
ATOM     10  C   LIG    1       -1.421   2.594   3.201  0.00  0.00    +0.010 C 
ATOM     11  C   LIG    1        0.012   3.126   3.136  0.00  0.00    +0.010 C 
ATOM     12  C   LIG    1        0.062   4.347   2.217  0.00  0.00    +0.000 C 
ATOM     13  C   LIG    1       -0.005   3.890   0.758  0.00  0.00    +0.000 C 
ATOM     14  C   LIG    1       -1.441   3.489   0.414  0.00  0.00    +0.020 C 
ATOM     15  C   LIG    1       -1.503   1.982   0.156  0.00  0.00    +0.010 C 
ENDBRANCH   5   8
ENDBRANCH   2   4
BRANCH   1  16
ATOM     16  N   LIG    1        2.196  -4.071   0.937  0.00  0.00    -0.510 N 
ATOM     17  H   LIG    1        3.009  -4.523   1.213  0.00  0.00    +0.440 HD
BRANCH  16  19
ATOM     18  C   LIG    1        1.377  -6.084  -0.036  0.00  0.00    +0.510 C 
ATOM     19  N   LIG    1        1.203  -4.778   0.245  0.00  0.00    -0.490 N 
ATOM     20  H   LIG    1        0.390  -4.326  -0.031  0.00  0.00    +0.440 HD
ATOM     21  O   LIG    1        2.394  -6.649   0.310  0.00  0.00    -0.520 OA
BRANCH  18  24
ATOM     22  N   LIG    1        0.492  -8.144  -1.055  0.00  0.00    -0.690 N 
ATOM     23  H   LIG    1        1.305  -8.595  -0.778  0.00  0.00    +0.420 HD
ATOM     24  C   LIG    1        0.318  -6.838  -0.773  0.00  0.00    +0.520 C 
ATOM     25  O   LIG    1       -0.699  -6.273  -1.119  0.00  0.00    -0.510 OA
BRANCH  22  26
ATOM     26  C   LIG    1       -0.546  -8.883  -1.778  0.00  0.00    +0.300 C 
BRANCH  26  27
ATOM     27  C   LIG    1       -0.102 -10.335  -1.966  0.00  0.00    +0.170 C 
BRANCH  27  29
ATOM     28  C   LIG    1        0.406 -12.339  -0.754  0.00  0.00    +0.200 C 
ATOM     29  O   LIG    1       -0.004 -10.972  -0.690  0.00  0.00    -0.390 OA
ENDBRANCH  27  29
ENDBRANCH  26  27
ENDBRANCH  22  26
ENDBRANCH  18  24
ENDBRANCH  16  19
ENDBRANCH   1  16
TORSDOF 8
