REMARK  Name = ZINCpk00000xPOVW.2
REMARK                            x       y       z     vdW  Elec       q    Type
REMARK                         _______ _______ _______ _____ _____    ______ ____
ROOT
ATOM      1  C   LIG    1        6.266   2.008   0.377  0.00  0.00    +0.230 C 
ENDROOT
BRANCH   1   4
ATOM      2  C   LIG    1        8.026   5.325   0.078  0.00  0.00    +0.140 C 
ATOM      3  C   LIG    1        7.875   3.803   0.152  0.00  0.00    +0.190 C 
ATOM      4  N   LIG    1        6.449   3.458   0.229  0.00  0.00    -0.520 NA
ATOM      5  C   LIG    1        5.723   3.963  -0.945  0.00  0.00    +0.180 C 
ATOM      6  C   LIG    1        5.874   5.485  -1.018  0.00  0.00    +0.200 C 
ATOM      7  N   LIG    1        7.300   5.830  -1.095  0.00  0.00    -0.530 NA
BRANCH   2   9
ATOM      8  C   LIG    1       10.250   5.222   1.212  0.00  0.00    +0.030 C 
ATOM      9  C   LIG    1        9.508   5.686  -0.043  0.00  0.00    +0.020 C 
ENDBRANCH   2   9
BRANCH   7  10
ATOM     10  C   LIG    1        7.484   7.280  -1.244  0.00  0.00    +0.150 C 
BRANCH  10  11
ATOM     11  C   LIG    1        7.097   7.700  -2.663  0.00  0.00    +0.220 C 
ATOM     12  C   LIG    1        7.408   9.186  -2.857  0.00  0.00    +0.010 C 
BRANCH  11  13
ATOM     13  O   LIG    1        5.699   7.476  -2.862  0.00  0.00    -0.560 OA
ATOM     14  H   LIG    1        5.132   7.969  -2.254  0.00  0.00    +0.370 HD
ENDBRANCH  11  13
ENDBRANCH  10  11
ENDBRANCH   7  10
ENDBRANCH   1   4
BRANCH   1  15
ATOM     15  C   LIG    1        4.823   1.714   0.698  0.00  0.00    +0.510 C 
ATOM     16  N   LIG    1        4.418   0.442   0.879  0.00  0.00    -0.630 N 
ATOM     17  H   LIG    1        5.056  -0.285   0.802  0.00  0.00    +0.430 HD
ATOM     18  O   LIG    1        4.026   2.623   0.794  0.00  0.00    -0.460 OA
BRANCH  16  19
ATOM     19  C   LIG    1        3.093   0.172   1.173  0.00  0.00    +0.320 A 
ATOM     20  C   LIG    1        2.544  -1.083   1.382  0.00  0.00    -0.170 A 
ATOM     21  C   LIG    1        1.118  -0.844   1.659  0.00  0.00    -0.120 A 
ATOM     22  C   LIG    1        0.944   0.484   1.594  0.00  0.00    -0.010 A 
ATOM     23  C   LIG    1       -0.365   1.199   1.804  0.00  0.00    +0.190 C 
ATOM     24  C   LIG    1        0.067  -1.882   1.955  0.00  0.00    +0.140 C 
ATOM     25  O   LIG    1        2.115   1.078   1.306  0.00  0.00    -0.150 OA
BRANCH  20  26
ATOM     26  C   LIG    1        3.220  -2.344   1.338  0.00  0.00    +0.280 C 
ATOM     27  N   LIG    1        3.756  -3.345   1.304  0.00  0.00    -0.420 NA
ENDBRANCH  20  26
ENDBRANCH  16  19
ENDBRANCH   1  15
TORSDOF 8
