REMARK  Name = ZINCrD00000hQ4WR.0
REMARK                            x       y       z     vdW  Elec       q    Type
REMARK                         _______ _______ _______ _____ _____    ______ ____
ROOT
ATOM      1  C   LIG    1        2.327   2.177  -6.117  0.00  0.00    +0.550 C 
ATOM      2  N   LIG    1        1.467   1.199  -5.770  0.00  0.00    -0.620 N 
ATOM      3  C   LIG    1        0.007   1.143  -6.013  0.00  0.00    +0.280 C 
ATOM      4  C   LIG    1       -0.584   0.542  -4.721  0.00  0.00    -0.080 C 
ATOM      5  C   LIG    1       -0.881   1.678  -3.728  0.00  0.00    +0.270 C 
ATOM      6  N   LIG    1       -0.288   1.272  -2.443  0.00  0.00    -0.620 N 
ATOM      7  C   LIG    1        0.899   0.464  -2.764  0.00  0.00    +0.260 C 
ATOM      8  C   LIG    1       -0.742   1.585  -1.213  0.00  0.00    +0.530 C 
ATOM      9  O   LIG    1       -1.736   2.268  -1.088  0.00  0.00    -0.530 OA
ATOM     10  C   LIG    1       -1.812  -0.333  -4.978  0.00  0.00    +0.070 C 
ATOM     11  C   LIG    1        0.584  -0.259  -4.088  0.00  0.00    -0.080 C 
ATOM     12  C   LIG    1        0.234  -1.736  -3.896  0.00  0.00    +0.070 C 
ATOM     13  C   LIG    1        1.768  -0.065  -5.058  0.00  0.00    +0.290 C 
ATOM     14  O   LIG    1        3.504   2.074  -5.845  0.00  0.00    -0.530 OA
ENDROOT
BRANCH   1  18
ATOM     15  C   LIG    1        2.956   6.921  -7.096  0.00  0.00    +0.060 C 
ATOM     16  C   LIG    1        2.546   5.666  -6.323  0.00  0.00    +0.140 C 
ATOM     17  C   LIG    1        2.980   4.394  -7.091  0.00  0.00    +0.040 C 
ATOM     18  C   LIG    1        1.825   3.398  -6.844  0.00  0.00    -0.030 C 
ATOM     19  C   LIG    1        0.831   4.184  -5.961  0.00  0.00    +0.220 C 
ATOM     20  O   LIG    1        1.107   5.573  -6.240  0.00  0.00    -0.360 OA
ENDBRANCH   1  18
BRANCH   8  21
ATOM     21  C   LIG    1       -0.013   1.086   0.008  0.00  0.00    +0.040 C 
BRANCH  21  22
ATOM     22  C   LIG    1       -0.729   1.579   1.267  0.00  0.00    +0.030 C 
BRANCH  22  23
ATOM     23  C   LIG    1        0.011   1.072   2.506  0.00  0.00    +0.010 C 
BRANCH  23  24
ATOM     24  C   LIG    1       -0.705   1.566   3.765  0.00  0.00    -0.070 C 
ATOM     25  C   LIG    1       -0.726   3.096   3.774  0.00  0.00    +0.010 C 
ATOM     26  C   LIG    1        0.035   1.059   5.005  0.00  0.00    +0.010 C 
ATOM     27  C   LIG    1       -2.140   1.036   3.776  0.00  0.00    +0.010 C 
ENDBRANCH  23  24
ENDBRANCH  22  23
ENDBRANCH  21  22
ENDBRANCH   8  21
TORSDOF 5
