REMARK  Name = ZINCrD000000fpKe.0
REMARK                            x       y       z     vdW  Elec       q    Type
REMARK                         _______ _______ _______ _____ _____    ______ ____
ROOT
ATOM      1  C   LIG    1        6.379   6.795   1.608  0.00  0.00    +0.560 C 
ATOM      2  N   LIG    1        5.845   5.582   1.360  0.00  0.00    -0.720 N 
ATOM      3  H   LIG    1        5.598   5.002   2.097  0.00  0.00    +0.400 HD
ATOM      4  O   LIG    1        6.689   7.523   0.685  0.00  0.00    -0.540 OA
ENDROOT
BRANCH   1   8
ATOM      5  C   LIG    1        6.978   8.068   5.618  0.00  0.00    +0.130 A 
ATOM      6  C   LIG    1        6.428   6.820   5.361  0.00  0.00    -0.040 A 
ATOM      7  C   LIG    1        6.232   6.404   4.062  0.00  0.00    +0.050 A 
ATOM      8  C   LIG    1        6.588   7.239   3.000  0.00  0.00    -0.140 A 
ATOM      9  C   LIG    1        7.146   8.494   3.259  0.00  0.00    +0.040 A 
ATOM     10  C   LIG    1        7.334   8.907   4.563  0.00  0.00    +0.090 A 
BRANCH  10  11
ATOM     11  O   LIG    1        7.872  10.130   4.818  0.00  0.00    -0.300 OA
ATOM     12  C   LIG    1        8.214  10.937   3.689  0.00  0.00    +0.240 C 
ENDBRANCH  10  11
BRANCH   5  13
ATOM     13  O   LIG    1        7.169   8.473   6.900  0.00  0.00    -0.290 OA
BRANCH  13  14
ATOM     14  C   LIG    1        6.782   7.565   7.933  0.00  0.00    +0.220 C 
BRANCH  14  16
ATOM     15  C   LIG    1        6.171   8.114  10.232  0.00  0.00    +0.040 C 
ATOM     16  C   LIG    1        7.066   8.181   9.278  0.00  0.00    -0.040 C 
ENDBRANCH  14  16
ENDBRANCH  13  14
ENDBRANCH   5  13
ENDBRANCH   1   8
BRANCH   2  17
ATOM     17  C   LIG    1        5.638   5.141  -0.021  0.00  0.00    +0.360 C 
BRANCH  17  18
ATOM     18  C   LIG    1        5.034   3.761  -0.023  0.00  0.00    -0.250 A 
ATOM     19  C   LIG    1        3.712   3.471  -0.014  0.00  0.00    +0.260 A 
ATOM     20  N   LIG    1        3.586   2.125  -0.019  0.00  0.00    -0.320 N 
ATOM     21  N   LIG    1        4.873   1.572  -0.027  0.00  0.00    -0.290 NA
ATOM     22  C   LIG    1        5.739   2.553  -0.035  0.00  0.00    +0.270 A 
BRANCH  20  23
ATOM     23  C   LIG    1        2.381   1.409  -0.013  0.00  0.00    +0.150 A 
ATOM     24  C   LIG    1        1.169   2.087   0.002  0.00  0.00    -0.010 A 
ATOM     25  C   LIG    1       -0.017   1.379   0.010  0.00  0.00    +0.040 A 
ATOM     26  C   LIG    1        0.002  -0.004   0.002  0.00  0.00    +0.000 A 
ATOM     27  C   LIG    1        1.207  -0.682  -0.013  0.00  0.00    +0.040 A 
ATOM     28  C   LIG    1        2.396   0.021  -0.020  0.00  0.00    +0.020 A 
ENDBRANCH  20  23
ENDBRANCH  17  18
ENDBRANCH   2  17
TORSDOF 8
