REMARK  Name = ZINCvU00000006NI.0
REMARK                            x       y       z     vdW  Elec       q    Type
REMARK                         _______ _______ _______ _____ _____    ______ ____
ROOT
ATOM      1  C   LIG    1       -5.033   2.462   2.598  0.00  0.00    +0.060 C 
ATOM      2  S   LIG    1       -3.336   2.755   1.999  0.00  0.00    -0.060 S 
ATOM      3  C   LIG    1       -3.367   1.419   0.835  0.00  0.00    +0.390 C 
ATOM      4  N   LIG    1       -4.592   0.818   0.932  0.00  0.00    -0.530 N 
ATOM      5  N   LIG    1       -2.392   1.068   0.030  0.00  0.00    -0.460 NA
ATOM      6  C   LIG    1       -5.492   1.271   1.788  0.00  0.00    +0.540 C 
ATOM      7  O   LIG    1       -6.591   0.774   1.913  0.00  0.00    -0.460 OA
ENDROOT
BRANCH   5   8
ATOM      8  C   LIG    1       -1.211   1.764   0.039  0.00  0.00    +0.090 A 
ATOM      9  C   LIG    1        0.006   1.081   0.036  0.00  0.00    +0.070 A 
ATOM     10  C   LIG    1        1.191   1.787   0.039  0.00  0.00    +0.000 A 
ATOM     11  C   LIG    1        1.174   3.172   0.051  0.00  0.00    +0.100 A 
ATOM     12  C   LIG    1       -0.031   3.856   0.060  0.00  0.00    +0.010 A 
ATOM     13  F   LIG    1        2.338   3.859   0.054  0.00  0.00    -0.140 F 
ATOM     14  C   LIG    1       -1.222   3.160   0.058  0.00  0.00    +0.020 A 
ENDBRANCH   5   8
BRANCH   1  15
ATOM     15  C   LIG    1       -5.923   3.675   2.323  0.00  0.00    +0.130 C 
BRANCH  15  17
ATOM     16  O   LIG    1       -4.613   4.660   4.021  0.00  0.00    -0.500 OA
ATOM     17  C   LIG    1       -5.522   4.809   3.232  0.00  0.00    +0.520 C 
ATOM     18  N   LIG    1       -6.172   5.987   3.167  0.00  0.00    -0.670 N 
ATOM     19  H   LIG    1       -6.854   6.128   2.491  0.00  0.00    +0.420 HD
BRANCH  18  20
ATOM     20  C   LIG    1       -5.865   7.007   4.074  0.00  0.00    +0.160 A 
ATOM     21  C   LIG    1       -6.865   7.855   4.532  0.00  0.00    +0.000 A 
ATOM     22  C   LIG    1       -6.559   8.858   5.432  0.00  0.00    +0.070 A 
ATOM     23  C   LIG    1       -5.257   9.024   5.869  0.00  0.00    -0.100 A 
ATOM     24  C   LIG    1       -4.258   8.183   5.410  0.00  0.00    +0.070 A 
ATOM     25 BR   LIG    1       -4.842  10.402   7.096  0.00  0.00    -0.050 Br
ATOM     26  C   LIG    1       -4.559   7.176   4.515  0.00  0.00    +0.040 A 
ENDBRANCH  18  20
ENDBRANCH  15  17
ENDBRANCH   1  15
BRANCH   4  27
ATOM     27  C   LIG    1       -4.908  -0.334   0.084  0.00  0.00    +0.440 C 
BRANCH  27  28
ATOM     28  C   LIG    1       -4.508  -1.603   0.791  0.00  0.00    -0.050 A 
ATOM     29  C   LIG    1       -5.290  -2.327   1.613  0.00  0.00    -0.030 A 
ATOM     30  C   LIG    1       -4.517  -3.427   2.050  0.00  0.00    -0.070 A 
ATOM     31  C   LIG    1       -3.309  -3.311   1.470  0.00  0.00    +0.190 A 
ATOM     32  O   LIG    1       -3.311  -2.207   0.704  0.00  0.00    -0.160 OA
ENDBRANCH  27  28
ENDBRANCH   4  27
TORSDOF 6
