REMARK  Name = ZINCvU0000000DKd.0
REMARK                            x       y       z     vdW  Elec       q    Type
REMARK                         _______ _______ _______ _____ _____    ______ ____
ROOT
ATOM      1  O   LIG    1        4.480   0.118   0.113  0.00  0.00    -0.410 OA
ATOM      2  C   LIG    1        3.674   1.019  -0.041  0.00  0.00    +0.450 A 
ATOM      3  C   LIG    1        4.069   2.432  -0.271  0.00  0.00    -0.210 A 
ATOM      4  C   LIG    1        5.401   2.762  -0.516  0.00  0.00    +0.120 A 
ATOM      5  C   LIG    1        5.748   4.077  -0.732  0.00  0.00    +0.000 A 
ATOM      6  C   LIG    1        4.775   5.067  -0.706  0.00  0.00    +0.100 A 
ATOM      7  C   LIG    1        3.456   4.753  -0.463  0.00  0.00    +0.020 A 
ATOM      8  C   LIG    1        3.080   3.430  -0.238  0.00  0.00    +0.140 A 
ATOM      9  O   LIG    1        1.780   3.150   0.009  0.00  0.00    -0.180 OA
ATOM     10  C   LIG    1        1.359   1.870  -0.001  0.00  0.00    +0.090 A 
ATOM     11  C   LIG    1       -0.016   1.344   0.009  0.00  0.00    +0.580 C 
ATOM     12  O   LIG    1       -1.022   2.027   0.018  0.00  0.00    -0.450 OA
ATOM     13  N   LIG    1        0.002  -0.004   0.002  0.00  0.00    -0.510 N 
ATOM     14  C   LIG    1        1.408  -0.441  -0.015  0.00  0.00    +0.380 C 
ATOM     15  C   LIG    1        2.223   0.811  -0.018  0.00  0.00    -0.230 A 
ENDROOT
BRANCH  13  16
ATOM     16  C   LIG    1       -1.106  -0.832   0.010  0.00  0.00    +0.340 A 
ATOM     17  N   LIG    1       -1.063  -2.120  -0.003  0.00  0.00    -0.480 NA
ATOM     18  C   LIG    1       -2.231  -2.791   0.012  0.00  0.00    +0.110 A 
ATOM     19  C   LIG    1       -2.449  -4.185   0.006  0.00  0.00    +0.070 A 
ATOM     20  C   LIG    1       -3.725  -4.689   0.017  0.00  0.00    +0.040 A 
ATOM     21  C   LIG    1       -4.820  -3.838   0.033  0.00  0.00    +0.040 A 
ATOM     22  C   LIG    1       -4.632  -2.473   0.038  0.00  0.00    +0.060 A 
ATOM     23  C   LIG    1       -3.344  -1.944   0.028  0.00  0.00    -0.190 A 
ATOM     24  S   LIG    1       -2.774  -0.277   0.030  0.00  0.00    +0.150 S 
ENDBRANCH  13  16
BRANCH  14  25
ATOM     25  C   LIG    1        1.714  -1.256   1.215  0.00  0.00    -0.130 A 
ATOM     26  C   LIG    1        0.888  -1.176   2.320  0.00  0.00    +0.050 A 
ATOM     27  C   LIG    1        1.165  -1.929   3.446  0.00  0.00    +0.000 A 
ATOM     28  C   LIG    1        2.274  -2.753   3.473  0.00  0.00    +0.060 A 
ATOM     29  C   LIG    1        3.105  -2.831   2.370  0.00  0.00    -0.010 A 
ATOM     30  C   LIG    1        2.825  -2.082   1.240  0.00  0.00    +0.140 A 
ATOM     31  F   LIG    1        3.636  -2.156   0.162  0.00  0.00    -0.120 F 
ENDBRANCH  14  25
TORSDOF 2
