REMARK  Name = ZINCvU0000000CBF.0
REMARK                            x       y       z     vdW  Elec       q    Type
REMARK                         _______ _______ _______ _____ _____    ______ ____
ROOT
ATOM      1  C   LIG    1        2.576  -3.442   1.591  0.00  0.00    +0.210 C 
ATOM      2  C   LIG    1        1.496  -2.663   1.395  0.00  0.00    -0.140 C 
ATOM      3  C   LIG    1        1.226  -2.187  -0.021  0.00  0.00    +0.360 C 
ATOM      4  N   LIG    1        2.178  -2.626  -1.047  0.00  0.00    -0.460 N 
ATOM      5  N   LIG    1        2.287  -2.419  -2.424  0.00  0.00    -0.480 N 
ATOM      6  H   LIG    1        1.691  -1.896  -2.983  0.00  0.00    +0.450 HD
ATOM      7  C   LIG    1        3.407  -3.102  -2.829  0.00  0.00    +0.450 A 
ATOM      8  N   LIG    1        3.953  -3.689  -1.787  0.00  0.00    -0.510 NA
ATOM      9  C   LIG    1        3.239  -3.429  -0.675  0.00  0.00    +0.580 A 
ATOM     10  N   LIG    1        3.400  -3.797   0.576  0.00  0.00    -0.580 NA
ENDROOT
BRANCH   3  11
ATOM     11  C   LIG    1        1.208  -0.680  -0.013  0.00  0.00    -0.110 A 
ATOM     12  C   LIG    1        2.398   0.024  -0.021  0.00  0.00    +0.050 A 
ATOM     13  C   LIG    1        2.387   1.407  -0.013  0.00  0.00    +0.040 A 
ATOM     14  C   LIG    1        1.182   2.090   0.002  0.00  0.00    +0.040 A 
ATOM     15  O   LIG    1        0.899   3.425   0.011  0.00  0.00    -0.310 OA
ATOM     16  C   LIG    1       -0.473   3.525   0.437  0.00  0.00    +0.440 C 
ATOM     17  O   LIG    1       -1.051   2.272   0.019  0.00  0.00    -0.310 OA
ATOM     18  C   LIG    1       -0.017   1.381   0.010  0.00  0.00    +0.030 A 
ATOM     19  C   LIG    1        0.002  -0.004   0.002  0.00  0.00    +0.050 A 
ENDBRANCH   3  11
BRANCH   1  24
ATOM     20 CL   LIG    1        3.776  -5.400   7.123  0.00  0.00    -0.070 Cl
ATOM     21  C   LIG    1        3.429  -4.832   5.519  0.00  0.00    -0.030 A 
ATOM     22  C   LIG    1        4.258  -5.184   4.468  0.00  0.00    +0.020 A 
ATOM     23  C   LIG    1        3.986  -4.735   3.192  0.00  0.00    +0.080 A 
ATOM     24  C   LIG    1        2.873  -3.927   2.962  0.00  0.00    -0.040 A 
ATOM     25  C   LIG    1        2.045  -3.572   4.024  0.00  0.00    +0.050 A 
ATOM     26  C   LIG    1        2.322  -4.030   5.296  0.00  0.00    +0.030 A 
ENDBRANCH   1  24
BRANCH   7  27
ATOM     27  C   LIG    1        3.917  -3.166  -4.214  0.00  0.00    -0.060 A 
ATOM     28  C   LIG    1        3.243  -2.501  -5.241  0.00  0.00    +0.030 A 
ATOM     29  C   LIG    1        3.729  -2.560  -6.531  0.00  0.00    +0.010 A 
ATOM     30  C   LIG    1        4.873  -3.286  -6.810  0.00  0.00    +0.050 A 
ATOM     31  C   LIG    1        5.542  -3.952  -5.798  0.00  0.00    +0.020 A 
ATOM     32  C   LIG    1        5.071  -3.897  -4.503  0.00  0.00    +0.100 A 
ENDBRANCH   7  27
TORSDOF 3
