REMARK  Name = ZINCqH0000001FoM.0
REMARK                            x       y       z     vdW  Elec       q    Type
REMARK                         _______ _______ _______ _____ _____    ______ ____
ROOT
ATOM      1  N   LIG    1        1.515  -0.032   0.139  0.00  0.00    -0.710 N 
ATOM      2  H   LIG    1        2.110   0.584   0.594  0.00  0.00    +0.410 HD
ATOM      3  C   LIG    1        2.015  -1.117  -0.483  0.00  0.00    +0.530 C 
ATOM      4  O   LIG    1        1.271  -1.887  -1.052  0.00  0.00    -0.530 OA
ENDROOT
BRANCH   3   5
ATOM      5  C   LIG    1        3.500  -1.375  -0.472  0.00  0.00    -0.070 C 
ATOM      6  C   LIG    1        4.226  -0.202  -1.134  0.00  0.00    +0.040 C 
ATOM      7  C   LIG    1        5.734  -0.463  -1.123  0.00  0.00    -0.010 C 
ATOM      8  C   LIG    1        6.215  -0.611   0.322  0.00  0.00    +0.020 C 
ATOM      9  C   LIG    1        5.489  -1.783   0.984  0.00  0.00    -0.010 C 
ATOM     10  C   LIG    1        5.789  -3.070   0.213  0.00  0.00    +0.010 C 
ATOM     11  C   LIG    1        5.308  -2.923  -1.232  0.00  0.00    -0.020 C 
ATOM     12  C   LIG    1        6.034  -1.750  -1.894  0.00  0.00    +0.010 C 
ATOM     13  C   LIG    1        3.981  -1.522   0.973  0.00  0.00    +0.040 C 
ATOM     14  C   LIG    1        3.801  -2.662  -1.243  0.00  0.00    +0.050 C 
ENDBRANCH   3   5
BRANCH   1  15
ATOM     15  C   LIG    1        0.071   0.218   0.128  0.00  0.00    +0.240 C 
BRANCH  15  16
ATOM     16  C   LIG    1       -0.184   1.692   0.310  0.00  0.00    +0.510 C 
ATOM     17  N   LIG    1       -1.108   2.315  -0.450  0.00  0.00    -0.600 N 
ATOM     18  C   LIG    1       -1.923   1.520  -1.341  0.00  0.00    +0.270 C 
ATOM     19  C   LIG    1       -1.226   1.386  -2.711  0.00  0.00    -0.000 C 
ATOM     20  C   LIG    1       -1.262   2.670  -3.429  0.00  0.00    +0.000 C 
ATOM     21  C   LIG    1       -0.513   3.801  -2.731  0.00  0.00    +0.000 C 
ATOM     22  C   LIG    1       -1.421   4.450  -1.716  0.00  0.00    +0.020 C 
ATOM     23  C   LIG    1       -1.242   3.781  -0.341  0.00  0.00    +0.270 C 
ATOM     24  O   LIG    1        0.444   2.320   1.135  0.00  0.00    -0.530 OA
ENDBRANCH  15  16
BRANCH  15  26
ATOM     25  C   LIG    1       -2.070  -0.180   1.353  0.00  0.00    +0.030 C 
ATOM     26  C   LIG    1       -0.590  -0.558   1.268  0.00  0.00    -0.020 C 
ATOM     27  C   LIG    1       -0.461  -2.060   1.004  0.00  0.00    +0.030 C 
ENDBRANCH  15  26
ENDBRANCH   1  15
TORSDOF 4
