REMARK  Name = ZINCpk00000ebAEj.0
REMARK                            x       y       z     vdW  Elec       q    Type
REMARK                         _______ _______ _______ _____ _____    ______ ____
ROOT
ATOM      1  O   LIG    1       -0.233   3.855  -0.891  0.00  0.00    -0.570 OA
ATOM      2  C   LIG    1        0.525   3.434  -1.744  0.00  0.00    +0.730 C 
ATOM      3  N   LIG    1        0.570   4.022  -2.955  0.00  0.00    -0.630 N 
ATOM      4  C   LIG    1        1.429   3.639  -4.081  0.00  0.00    +0.300 C 
ATOM      5  C   LIG    1        1.131   4.576  -5.224  0.00  0.00    -0.110 A 
ATOM      6  C   LIG    1        1.655   4.649  -6.503  0.00  0.00    +0.040 A 
ATOM      7  C   LIG    1        1.213   5.622  -7.379  0.00  0.00    +0.020 A 
ATOM      8  C   LIG    1        0.245   6.524  -6.977  0.00  0.00    +0.020 A 
ATOM      9  C   LIG    1       -0.279   6.451  -5.700  0.00  0.00    +0.040 A 
ATOM     10  C   LIG    1        0.165   5.477  -4.823  0.00  0.00    -0.100 A 
ATOM     11  C   LIG    1       -0.225   5.172  -3.398  0.00  0.00    +0.330 C 
ATOM     12  N   LIG    1        1.319   2.378  -1.477  0.00  0.00    -0.740 N 
ATOM     13  H   LIG    1        1.924   2.042  -2.157  0.00  0.00    +0.400 HD
ENDROOT
BRANCH  12  14
ATOM     14  C   LIG    1        1.274   1.742  -0.158  0.00  0.00    +0.300 C 
BRANCH  14  15
ATOM     15  C   LIG    1        2.349   0.656  -0.078  0.00  0.00    +0.150 C 
BRANCH  15  16
ATOM     16  N   LIG    1        2.076  -0.219   1.069  0.00  0.00    -0.530 NA
ATOM     17  C   LIG    1        3.200  -1.135   1.312  0.00  0.00    +0.150 C 
ATOM     18  C   LIG    1        2.901  -1.986   2.549  0.00  0.00    +0.220 C 
ATOM     19  O   LIG    1        1.667  -2.682   2.355  0.00  0.00    -0.380 OA
ATOM     20  C   LIG    1        0.550  -1.820   2.117  0.00  0.00    +0.220 C 
ATOM     21  C   LIG    1        0.826  -0.968   0.876  0.00  0.00    +0.150 C 
ENDBRANCH  15  16
BRANCH  15  22
ATOM     22  C   LIG    1        3.722   1.310   0.093  0.00  0.00    -0.030 C 
ATOM     23  C   LIG    1        3.965   2.381  -1.004  0.00  0.00    +0.000 C 
ATOM     24  C   LIG    1        4.938   3.338  -0.270  0.00  0.00    +0.200 C 
ATOM     25  O   LIG    1        4.490   3.354   1.095  0.00  0.00    -0.380 OA
ATOM     26  C   LIG    1        3.773   2.149   1.388  0.00  0.00    +0.210 C 
ENDBRANCH  15  22
ENDBRANCH  14  15
ENDBRANCH  12  14
TORSDOF 4
