REMARK  Name = ZINCrH000004uziY.0
REMARK                            x       y       z     vdW  Elec       q    Type
REMARK                         _______ _______ _______ _____ _____    ______ ____
ROOT
ATOM      1  O   LIG    1        0.826   5.956   0.831  0.00  0.00    -0.560 OA
ATOM      2  C   LIG    1        0.918   5.257   1.822  0.00  0.00    +0.710 C 
ATOM      3  N   LIG    1        1.033   5.825   3.039  0.00  0.00    -0.600 N 
ATOM      4  N   LIG    1        0.904   3.915   1.704  0.00  0.00    -0.740 N 
ATOM      5  H   LIG    1        1.051   3.358   2.484  0.00  0.00    +0.400 HD
ENDROOT
BRANCH   3   6
ATOM      6  C   LIG    1        1.253   4.988   4.220  0.00  0.00    +0.190 C 
ATOM      7  C   LIG    1        1.285   5.683   5.583  0.00  0.00    +0.030 C 
ATOM      8  C   LIG    1        2.579   5.151   4.965  0.00  0.00    +0.010 C 
ENDBRANCH   3   6
BRANCH   3   9
ATOM      9  C   LIG    1        0.939   7.281   3.179  0.00  0.00    +0.380 C 
BRANCH   9  10
ATOM     10  C   LIG    1       -0.510   7.682   3.284  0.00  0.00    +0.110 A 
ATOM     11  C   LIG    1       -1.083   7.852   4.530  0.00  0.00    -0.030 A 
ATOM     12  C   LIG    1       -2.417   8.222   4.615  0.00  0.00    +0.050 A 
ATOM     13  C   LIG    1       -3.127   8.407   3.439  0.00  0.00    -0.040 A 
ATOM     14  C   LIG    1       -2.486   8.219   2.229  0.00  0.00    +0.260 A 
ATOM     15  N   LIG    1       -1.215   7.873   2.186  0.00  0.00    -0.450 NA
ENDBRANCH   9  10
ENDBRANCH   3   9
BRANCH   4  16
ATOM     16  C   LIG    1        0.668   3.297   0.397  0.00  0.00    +0.340 C 
BRANCH  16  17
ATOM     17  C   LIG    1        0.702   1.797   0.536  0.00  0.00    -0.090 A 
ATOM     18  C   LIG    1        1.896   1.118   0.383  0.00  0.00    +0.070 A 
ATOM     19  C   LIG    1        1.936  -0.260   0.510  0.00  0.00    -0.040 A 
ATOM     20  C   LIG    1        0.772  -0.957   0.792  0.00  0.00    +0.080 A 
ATOM     21  O   LIG    1        0.796  -2.315   0.919  0.00  0.00    -0.310 OA
ATOM     22  C   LIG    1        0.552  -2.824   2.233  0.00  0.00    +0.230 C 
ATOM     23  C   LIG    1       -0.941  -2.937   2.499  0.00  0.00    -0.010 C 
ATOM     24  C   LIG    1       -1.631  -1.582   2.510  0.00  0.00    +0.230 C 
ATOM     25  O   LIG    1       -1.568  -0.970   1.220  0.00  0.00    -0.310 OA
ATOM     26  C   LIG    1       -0.427  -0.275   0.944  0.00  0.00    +0.080 A 
ATOM     27 CL   LIG    1        3.437  -1.111   0.319  0.00  0.00    -0.040 Cl
ATOM     28  C   LIG    1       -0.462   1.103   0.817  0.00  0.00    +0.050 A 
ENDBRANCH  16  17
ENDBRANCH   4  16
TORSDOF 5
