REMARK  Name = ZINCqH0000051y66.0
REMARK                            x       y       z     vdW  Elec       q    Type
REMARK                         _______ _______ _______ _____ _____    ______ ____
ROOT
ATOM      1  C   LIG    1        6.040   2.306  -0.043  0.00  0.00    +0.330 C 
ENDROOT
BRANCH   1   2
ATOM      2  C   LIG    1        7.245   1.402  -0.059  0.00  0.00    -0.120 A 
ATOM      3  C   LIG    1        7.080   0.031  -0.065  0.00  0.00    +0.170 A 
ATOM      4  C   LIG    1        8.187  -0.799  -0.079  0.00  0.00    -0.070 A 
ATOM      5  C   LIG    1        9.459  -0.258  -0.087  0.00  0.00    +0.150 A 
ATOM      6  C   LIG    1        9.629   1.114  -0.080  0.00  0.00    -0.200 A 
ATOM      7  C   LIG    1       11.021   1.693  -0.085  0.00  0.00    +0.320 C 
ATOM      8  O   LIG    1       10.958   3.075  -0.450  0.00  0.00    -0.380 OA
ATOM      9  C   LIG    1        9.966   3.804   0.283  0.00  0.00    +0.460 C 
ATOM     10  O   LIG    1        8.675   3.299  -0.070  0.00  0.00    -0.320 OA
ATOM     11  C   LIG    1        8.522   1.948  -0.074  0.00  0.00    +0.200 A 
BRANCH   4  12
ATOM     12  N   LIG    1        8.008  -2.268  -0.087  0.00  0.00    +0.030 N 
ATOM     13  O   LIG    1        8.982  -3.000  -0.100  0.00  0.00    -0.160 OA
ATOM     14  O   LIG    1        6.888  -2.745  -0.080  0.00  0.00    -0.150 OA
ENDBRANCH   4  12
ENDBRANCH   1   2
BRANCH   1  15
ATOM     15  O   LIG    1        4.831   1.501  -0.035  0.00  0.00    -0.350 OA
BRANCH  15  17
ATOM     16  O   LIG    1        3.642   3.376  -0.014  0.00  0.00    -0.470 OA
ATOM     17  C   LIG    1        3.656   2.161  -0.021  0.00  0.00    +0.510 C 
BRANCH  17  18
ATOM     18  C   LIG    1        2.388   1.408  -0.013  0.00  0.00    -0.100 A 
ATOM     19  C   LIG    1        2.401   0.011  -0.020  0.00  0.00    +0.110 A 
ATOM     20  C   LIG    1        1.211  -0.687  -0.013  0.00  0.00    +0.070 A 
ATOM     21  C   LIG    1        0.002  -0.004   0.002  0.00  0.00    +0.120 A 
ATOM     22  C   LIG    1       -0.017   1.381   0.010  0.00  0.00    +0.040 A 
ATOM     23  F   LIG    1       -1.160  -0.693   0.009  0.00  0.00    -0.110 F 
ATOM     24  F   LIG    1        1.222  -2.038  -0.021  0.00  0.00    -0.110 F 
ATOM     25  C   LIG    1        1.167   2.090   0.002  0.00  0.00    +0.030 A 
ATOM     26 CL   LIG    1        1.141   3.826   0.012  0.00  0.00    -0.000 Cl
ENDBRANCH  17  18
ENDBRANCH  15  17
ENDBRANCH   1  15
TORSDOF 5
