REMARK  Name = ZINCrH00000tj12Z.0
REMARK                            x       y       z     vdW  Elec       q    Type
REMARK                         _______ _______ _______ _____ _____    ______ ____
ROOT
ATOM      1  C   LIG    1        1.498   3.195   0.005  0.00  0.00    +0.550 C 
ATOM      2  N   LIG    1        1.248   1.871   0.000  0.00  0.00    -0.470 N 
ATOM      3  N   LIG    1       -0.015   1.284   0.009  0.00  0.00    -0.230 NA
ATOM      4  C   LIG    1        0.002  -0.004   0.002  0.00  0.00    +0.140 C 
ATOM      5  C   LIG    1        1.434  -0.490  -0.014  0.00  0.00    +0.100 C 
ATOM      6  C   LIG    1        2.266   0.808  -0.015  0.00  0.00    +0.260 C 
ATOM      7  O   LIG    1        2.643   3.596  -0.004  0.00  0.00    -0.480 OA
ENDROOT
BRANCH   6   8
ATOM      8  C   LIG    1        3.134   0.882   1.215  0.00  0.00    -0.070 A 
ATOM      9  C   LIG    1        4.450   0.547   1.128  0.00  0.00    +0.080 A 
ATOM     10  C   LIG    1        5.263   0.615   2.272  0.00  0.00    +0.080 A 
ATOM     11  N   LIG    1        6.560   0.293   2.219  0.00  0.00    -0.420 NA
ATOM     12  C   LIG    1        7.295   0.367   3.305  0.00  0.00    +0.260 A 
ATOM     13  C   LIG    1        6.737   0.779   4.517  0.00  0.00    +0.260 A 
ATOM     14  N   LIG    1        5.466   1.101   4.595  0.00  0.00    -0.420 NA
ATOM     15  C   LIG    1        4.697   1.034   3.503  0.00  0.00    +0.080 A 
ATOM     16  C   LIG    1        3.333   1.372   3.553  0.00  0.00    +0.060 A 
ATOM     17  C   LIG    1        2.578   1.299   2.423  0.00  0.00    +0.050 A 
ENDBRANCH   6   8
BRANCH   4  18
ATOM     18  C   LIG    1       -1.191  -0.871   0.008  0.00  0.00    -0.020 A 
ATOM     19  C   LIG    1       -1.048  -2.261  -0.007  0.00  0.00    +0.060 A 
ATOM     20  C   LIG    1       -2.167  -3.066   0.004  0.00  0.00    +0.050 A 
ATOM     21  C   LIG    1       -3.431  -2.500   0.019  0.00  0.00    -0.070 A 
ATOM     22  C   LIG    1       -3.580  -1.123   0.029  0.00  0.00    +0.050 A 
ATOM     23 BR   LIG    1       -4.960  -3.612   0.026  0.00  0.00    -0.040 Br
ATOM     24  C   LIG    1       -2.468  -0.307   0.024  0.00  0.00    +0.070 A 
ENDBRANCH   4  18
BRANCH   1  25
ATOM     25  C   LIG    1        0.355   4.177   0.022  0.00  0.00    +0.240 C 
BRANCH  25  27
ATOM     26  C   LIG    1       -0.135   6.523   0.039  0.00  0.00    +0.220 C 
ATOM     27  O   LIG    1        0.872   5.509   0.024  0.00  0.00    -0.370 OA
ENDBRANCH  25  27
ENDBRANCH   1  25
TORSDOF 4
