REMARK  Name = ZINCpe000000WXca.0
REMARK                            x       y       z     vdW  Elec       q    Type
REMARK                         _______ _______ _______ _____ _____    ______ ____
ROOT
ATOM      1  C   LIG    1        0.752   1.386  -0.630  0.00  0.00    -0.780 A 
ATOM      2  C   LIG    1       -0.353   0.823  -1.244  0.00  0.00    +0.470 A 
ATOM      3  N   LIG    1       -1.469   1.505  -1.419  0.00  0.00    -0.520 NA
ATOM      4  C   LIG    1       -1.586   2.756  -1.006  0.00  0.00    +0.450 A 
ATOM      5  C   LIG    1       -0.503   3.393  -0.374  0.00  0.00    -0.270 A 
ATOM      6  C   LIG    1       -0.669   4.788   0.068  0.00  0.00    +0.570 A 
ATOM      7  N   LIG    1       -1.858   5.391  -0.157  0.00  0.00    -0.660 N 
ATOM      8  H   LIG    1       -1.988   6.310   0.126  0.00  0.00    +0.440 HD
ATOM      9  C   LIG    1       -2.862   4.740  -0.765  0.00  0.00    +0.710 A 
ATOM     10  O   LIG    1       -3.911   5.327  -0.942  0.00  0.00    -0.520 OA
ATOM     11  O   LIG    1        0.237   5.381   0.619  0.00  0.00    -0.480 OA
ATOM     12  N   LIG    1       -2.759   3.468  -1.185  0.00  0.00    -0.530 N 
ATOM     13  C   LIG    1       -3.902   2.828  -1.841  0.00  0.00    +0.370 C 
ATOM     14  C   LIG    1        0.688   2.696  -0.182  0.00  0.00    +0.310 A 
ENDROOT
BRANCH   1  15
ATOM     15  S   LIG    1        2.227   0.446  -0.421  0.00  0.00    +2.700 S 
ATOM     16  O   LIG    1        1.818  -0.878  -0.109  0.00  0.00    -0.950 OA
ATOM     17  O   LIG    1        3.077   1.215   0.419  0.00  0.00    -0.940 OA
BRANCH  15  18
ATOM     18  N   LIG    1        2.974   0.370  -1.897  0.00  0.00    -1.100 NA
ATOM     19  H   LIG    1        3.053  -0.480  -2.357  0.00  0.00    +0.420 HD
BRANCH  18  26
ATOM     20  C   LIG    1        2.797   0.774  -4.760  0.00  0.00    +0.030 C 
ATOM     21  C   LIG    1        3.981   1.278  -3.932  0.00  0.00    +0.010 C 
ATOM     22  C   LIG    1        5.069   0.203  -3.890  0.00  0.00    +0.010 C 
ATOM     23  C   LIG    1        6.253   0.707  -3.063  0.00  0.00    +0.000 C 
ATOM     24  C   LIG    1        5.785   1.015  -1.639  0.00  0.00    +0.020 C 
ATOM     25  C   LIG    1        4.698   2.091  -1.681  0.00  0.00    +0.030 C 
ATOM     26  C   LIG    1        3.514   1.587  -2.509  0.00  0.00    +0.190 C 
ATOM     27  C   LIG    1        2.427   2.663  -2.551  0.00  0.00    +0.020 C 
ENDBRANCH  18  26
ENDBRANCH  15  18
ENDBRANCH   1  15
TORSDOF 3
