REMARK  Name = ZINCrH000004ums3.0
REMARK                            x       y       z     vdW  Elec       q    Type
REMARK                         _______ _______ _______ _____ _____    ______ ____
ROOT
ATOM      1  C   LIG    1       -6.432   5.401  -2.462  0.00  0.00    -0.100 A 
ATOM      2  C   LIG    1       -7.181   5.337  -1.286  0.00  0.00    +0.040 A 
ATOM      3  C   LIG    1       -6.617   4.816  -0.141  0.00  0.00    +0.100 A 
ATOM      4  C   LIG    1       -5.303   4.354  -0.162  0.00  0.00    -0.150 A 
ATOM      5  C   LIG    1       -4.687   3.795   1.067  0.00  0.00    +0.530 C 
ATOM      6  O   LIG    1       -3.484   3.182   0.932  0.00  0.00    -0.350 OA
ATOM      7  C   LIG    1       -2.553   3.869   0.045  0.00  0.00    +0.240 C 
ATOM      8  C   LIG    1       -3.134   3.905  -1.368  0.00  0.00    +0.110 C 
ATOM      9  O   LIG    1       -5.236   3.882   2.147  0.00  0.00    -0.440 OA
ATOM     10  C   LIG    1       -4.552   4.413  -1.338  0.00  0.00    -0.040 A 
ATOM     11  C   LIG    1       -5.117   4.937  -2.482  0.00  0.00    +0.080 A 
ENDROOT
BRANCH   7  12
ATOM     12  C   LIG    1       -1.238   3.133   0.029  0.00  0.00    -0.100 A 
ATOM     13  C   LIG    1       -1.219   1.751   0.017  0.00  0.00    +0.040 A 
ATOM     14  C   LIG    1       -0.013   1.076   0.008  0.00  0.00    +0.010 A 
ATOM     15  C   LIG    1        1.175   1.783   0.000  0.00  0.00    +0.020 A 
ATOM     16  C   LIG    1        1.156   3.165   0.008  0.00  0.00    +0.010 A 
ATOM     17  C   LIG    1       -0.050   3.840   0.022  0.00  0.00    +0.030 A 
ENDBRANCH   7  12
BRANCH   1  19
ATOM     18  O   LIG    1       -6.385   6.019  -4.717  0.00  0.00    -0.520 OA
ATOM     19  C   LIG    1       -7.036   5.963  -3.692  0.00  0.00    +0.560 C 
ATOM     20  N   LIG    1       -8.307   6.411  -3.675  0.00  0.00    -0.730 N 
ATOM     21  H   LIG    1       -8.826   6.366  -2.857  0.00  0.00    +0.400 HD
BRANCH  20  22
ATOM     22  C   LIG    1       -8.904   6.967  -4.892  0.00  0.00    +0.280 C 
BRANCH  22  23
ATOM     23  C   LIG    1      -10.343   7.398  -4.603  0.00  0.00    +0.140 C 
BRANCH  23  24
ATOM     24  C   LIG    1      -10.957   7.970  -5.854  0.00  0.00    -0.020 A 
ATOM     25  C   LIG    1      -11.632   7.275  -6.787  0.00  0.00    -0.050 A 
ATOM     26  C   LIG    1      -12.028   8.200  -7.781  0.00  0.00    -0.060 A 
ATOM     27  C   LIG    1      -11.572   9.405  -7.395  0.00  0.00    +0.160 A 
ATOM     28  O   LIG    1      -10.929   9.261  -6.225  0.00  0.00    -0.180 OA
ENDBRANCH  23  24
ENDBRANCH  22  23
ENDBRANCH  20  22
ENDBRANCH   1  19
TORSDOF 5
