REMARK  Name = ZINCrH000004rX66.0
REMARK                            x       y       z     vdW  Elec       q    Type
REMARK                         _______ _______ _______ _____ _____    ______ ____
ROOT
ATOM      1  C   LIG    1        4.864   1.058  -0.255  0.00  0.00    +0.060 C 
ENDROOT
BRANCH   1   2
ATOM      2  C   LIG    1        3.556   1.795  -0.124  0.00  0.00    +0.520 C 
ATOM      3  N   LIG    1        2.402   1.106  -0.015  0.00  0.00    -0.670 N 
ATOM      4  H   LIG    1        2.419   0.139   0.046  0.00  0.00    +0.420 HD
ATOM      5  O   LIG    1        3.541   3.008  -0.118  0.00  0.00    -0.510 OA
BRANCH   3   6
ATOM      6  C   LIG    1        1.181   1.788   0.008  0.00  0.00    +0.180 A 
ATOM      7  C   LIG    1        0.059   1.225  -0.586  0.00  0.00    -0.010 A 
ATOM      8  C   LIG    1       -1.145   1.903  -0.566  0.00  0.00    +0.090 A 
ATOM      9  C   LIG    1       -1.235   3.136   0.054  0.00  0.00    -0.200 A 
ATOM     10  C   LIG    1       -0.120   3.698   0.647  0.00  0.00    +0.090 A 
ATOM     11  C   LIG    1        1.087   3.028   0.626  0.00  0.00    +0.030 A 
BRANCH   9  12
ATOM     12  C   LIG    1       -2.551   3.870   0.079  0.00  0.00    +0.510 C 
ATOM     13  F   LIG    1       -2.623   4.658   1.233  0.00  0.00    -0.180 F 
ATOM     14  F   LIG    1       -3.601   2.945   0.080  0.00  0.00    -0.180 F 
ATOM     15  F   LIG    1       -2.651   4.687  -1.052  0.00  0.00    -0.180 F 
ENDBRANCH   9  12
ENDBRANCH   3   6
ENDBRANCH   1   2
BRANCH   1  16
ATOM     16  C   LIG    1        6.009   2.067  -0.362  0.00  0.00    +0.330 C 
BRANCH  16  25
ATOM     17  C   LIG    1       11.309  -1.000  -2.491  0.00  0.00    +0.110 C 
ATOM     18  C   LIG    1       10.855  -0.677  -1.091  0.00  0.00    -0.070 A 
ATOM     19  C   LIG    1       11.623  -1.052  -0.012  0.00  0.00    +0.060 A 
ATOM     20  C   LIG    1       11.218  -0.761   1.285  0.00  0.00    +0.010 A 
ATOM     21  C   LIG    1       10.038  -0.090   1.516  0.00  0.00    +0.090 A 
ATOM     22  C   LIG    1        9.246   0.299   0.438  0.00  0.00    -0.190 A 
ATOM     23  C   LIG    1        7.979   1.022   0.623  0.00  0.00    +0.550 A 
ATOM     24  O   LIG    1        7.572   1.310   1.734  0.00  0.00    -0.510 OA
ATOM     25  N   LIG    1        7.281   1.350  -0.489  0.00  0.00    -0.550 N 
ATOM     26  C   LIG    1        7.751   1.026  -1.722  0.00  0.00    +0.570 A 
ATOM     27  N   LIG    1        8.867   0.393  -1.917  0.00  0.00    -0.510 NA
ATOM     28  C   LIG    1        9.655   0.005  -0.882  0.00  0.00    +0.150 A 
ENDBRANCH  16  25
ENDBRANCH   1  16
TORSDOF 5
