REMARK  Name = ZINC9p0000004T1v.0
REMARK                            x       y       z     vdW  Elec       q    Type
REMARK                         _______ _______ _______ _____ _____    ______ ____
ROOT
ATOM      1  C   LIG    1       -2.880   1.543   2.537  0.00  0.00    +0.000 C 
ATOM      2  C   LIG    1       -2.265   0.882   3.788  0.00  0.00    +0.050 C 
ATOM      3  C   LIG    1       -3.477   0.636   4.721  0.00  0.00    +0.050 C 
ATOM      4  C   LIG    1       -4.593   0.222   3.730  0.00  0.00    +0.170 C 
ATOM      5  C   LIG    1       -4.360   1.123   2.500  0.00  0.00    +0.050 C 
ENDROOT
BRANCH   4   6
ATOM      6  N   LIG    1       -5.917   0.477   4.312  0.00  0.00    -0.630 N 
ATOM      7  H   LIG    1       -5.979   1.443   4.597  0.00  0.00    +0.430 HD
ATOM      8  H   LIG    1       -6.053  -0.119   5.114  0.00  0.00    +0.440 HD
ATOM      9  H   LIG    1       -6.630   0.284   3.624  0.00  0.00    +0.440 HD
ENDBRANCH   4   6
BRANCH   1  10
ATOM     10  C   LIG    1       -2.164   1.050   1.278  0.00  0.00    +0.020 C 
BRANCH  10  12
ATOM     11  C   LIG    1       -0.013   1.086   0.008  0.00  0.00    +0.010 C 
ATOM     12  C   LIG    1       -0.729   1.579   1.267  0.00  0.00    -0.010 C 
ENDBRANCH  10  12
ENDBRANCH   1  10
TORSDOF 3
