REMARK  Name = ZINCqH00000023qx.0
REMARK                            x       y       z     vdW  Elec       q    Type
REMARK                         _______ _______ _______ _____ _____    ______ ____
ROOT
ATOM      1  C   LIG    1       -2.682   8.323  -1.091  0.00  0.00    +0.460 C 
ATOM      2  O   LIG    1       -2.623   7.384  -1.850  0.00  0.00    -0.490 OA
ENDROOT
BRANCH   1   3
ATOM      3  O   LIG    1       -3.604   9.280  -1.278  0.00  0.00    -0.360 OA
BRANCH   3   4
ATOM      4  C   LIG    1       -4.498   9.121  -2.411  0.00  0.00    +0.220 C 
BRANCH   4   5
ATOM      5  C   LIG    1       -5.472  10.300  -2.461  0.00  0.00    +0.090 C 
BRANCH   5  11
ATOM      6  C   LIG    1       -6.159   8.113  -5.636  0.00  0.00    +0.030 C 
ATOM      7  C   LIG    1       -6.363   9.559  -6.094  0.00  0.00    -0.080 C 
ATOM      8  C   LIG    1       -7.810  10.066  -5.931  0.00  0.00    -0.030 C 
ATOM      9  C   LIG    1       -8.478   9.427  -4.706  0.00  0.00    +0.080 C 
ATOM     10  C   LIG    1       -7.582   9.580  -3.501  0.00  0.00    -0.040 C 
ATOM     11  C   LIG    1       -6.400  10.136  -3.637  0.00  0.00    -0.110 C 
ATOM     12  C   LIG    1       -7.173  11.432  -5.620  0.00  0.00    +0.030 C 
ATOM     13  C   LIG    1       -5.759   9.842  -7.471  0.00  0.00    +0.050 C 
ATOM     14  C   LIG    1       -6.007  10.613  -5.024  0.00  0.00    +0.020 C 
ENDBRANCH   5  11
ENDBRANCH   4   5
ENDBRANCH   3   4
ENDBRANCH   1   3
BRANCH   1  15
ATOM     15  C   LIG    1       -1.719   8.419   0.064  0.00  0.00    +0.240 C 
BRANCH  15  16
ATOM     16  C   LIG    1       -0.795   7.229   0.049  0.00  0.00    +0.010 A 
ATOM     17  N   LIG    1       -1.137   5.960   0.040  0.00  0.00    -0.250 NA
ATOM     18  N   LIG    1       -0.069   5.244   0.031  0.00  0.00    -0.100 N 
ATOM     19  N   LIG    1        0.979   5.989   0.025  0.00  0.00    -0.290 NA
ATOM     20  C   LIG    1        0.602   7.248   0.035  0.00  0.00    +0.210 A 
BRANCH  18  21
ATOM     21  C   LIG    1       -0.050   3.842   0.023  0.00  0.00    +0.140 A 
ATOM     22  C   LIG    1        1.161   3.163   0.008  0.00  0.00    +0.040 A 
ATOM     23  C   LIG    1        1.176   1.782   0.000  0.00  0.00    +0.040 A 
ATOM     24  C   LIG    1       -0.013   1.076   0.008  0.00  0.00    +0.020 A 
ATOM     25  C   LIG    1       -1.220   1.750   0.017  0.00  0.00    +0.040 A 
ATOM     26  C   LIG    1       -1.242   3.130   0.031  0.00  0.00    +0.040 A 
ENDBRANCH  18  21
ENDBRANCH  15  16
ENDBRANCH   1  15
TORSDOF 7
