REMARK  Name = ZINCrH000004pBC4.0
REMARK                            x       y       z     vdW  Elec       q    Type
REMARK                         _______ _______ _______ _____ _____    ______ ____
ROOT
ATOM      1  N   LIG    1        3.200   0.813  -1.687  0.00  0.00    -0.610 N 
ATOM      2  C   LIG    1        2.653   0.876  -0.325  0.00  0.00    +0.300 C 
ATOM      3  C   LIG    1        1.323   1.651  -0.452  0.00  0.00    +0.010 C 
ATOM      4  C   LIG    1        1.570   2.497  -1.723  0.00  0.00    +0.080 C 
ATOM      5  C   LIG    1        2.613   1.716  -2.491  0.00  0.00    +0.520 C 
ATOM      6  O   LIG    1        2.881   1.881  -3.662  0.00  0.00    -0.510 OA
ENDROOT
BRANCH   3   7
ATOM      7  C   LIG    1        0.165   0.707  -0.649  0.00  0.00    +0.520 C 
ATOM      8  N   LIG    1       -1.076   1.195  -0.850  0.00  0.00    -0.670 N 
ATOM      9  H   LIG    1       -1.238   2.149  -0.785  0.00  0.00    +0.420 HD
ATOM     10  O   LIG    1        0.350  -0.491  -0.633  0.00  0.00    -0.510 OA
BRANCH   8  11
ATOM     11  C   LIG    1       -2.129   0.324  -1.151  0.00  0.00    +0.080 A 
ATOM     12  C   LIG    1       -1.903  -0.800  -1.921  0.00  0.00    +0.090 A 
ATOM     13  C   LIG    1       -2.993  -1.646  -2.193  0.00  0.00    -0.080 A 
ATOM     14  C   LIG    1       -2.840  -2.808  -2.966  0.00  0.00    +0.030 A 
ATOM     15  C   LIG    1       -3.920  -3.600  -3.212  0.00  0.00    +0.020 A 
ATOM     16  C   LIG    1       -5.177  -3.271  -2.708  0.00  0.00    +0.030 A 
ATOM     17  C   LIG    1       -5.361  -2.152  -1.955  0.00  0.00    +0.050 A 
ATOM     18  C   LIG    1       -4.271  -1.309  -1.679  0.00  0.00    +0.110 A 
ATOM     19  N   LIG    1       -4.426  -0.204  -0.944  0.00  0.00    -0.450 NA
ATOM     20  C   LIG    1       -3.420   0.591  -0.679  0.00  0.00    +0.280 A 
ENDBRANCH   8  11
ENDBRANCH   3   7
BRANCH   1  22
ATOM     21  C   LIG    1        5.500   0.674  -2.505  0.00  0.00    +0.030 C 
ATOM     22  C   LIG    1        4.250  -0.115  -2.114  0.00  0.00    +0.300 C 
BRANCH  22  23
ATOM     23  C   LIG    1        3.766  -0.910  -3.299  0.00  0.00    -0.090 A 
ATOM     24  C   LIG    1        2.421  -1.198  -3.436  0.00  0.00    +0.020 A 
ATOM     25  C   LIG    1        1.976  -1.923  -4.525  0.00  0.00    +0.000 A 
ATOM     26  C   LIG    1        2.878  -2.369  -5.473  0.00  0.00    +0.000 A 
ATOM     27  C   LIG    1        4.224  -2.086  -5.333  0.00  0.00    +0.000 A 
ATOM     28  C   LIG    1        4.668  -1.357  -4.246  0.00  0.00    +0.010 A 
ENDBRANCH  22  23
ENDBRANCH   1  22
TORSDOF 4
