REMARK  Name = ZINCrD000006UP6t.0
REMARK                            x       y       z     vdW  Elec       q    Type
REMARK                         _______ _______ _______ _____ _____    ______ ____
ROOT
ATOM      1  C   LIG    1        1.564   0.008   6.027  0.00  0.00    +0.570 C 
ATOM      2  N   LIG    1        2.674  -0.756   6.010  0.00  0.00    -0.630 N 
ATOM      3  H   LIG    1        3.065  -1.024   5.163  0.00  0.00    +0.430 HD
ATOM      4  O   LIG    1        1.075   0.344   7.088  0.00  0.00    -0.460 OA
ENDROOT
BRANCH   2   5
ATOM      5  C   LIG    1        3.258  -1.156   7.199  0.00  0.00    +0.360 A 
ATOM      6  N   LIG    1        2.823  -0.850   8.372  0.00  0.00    -0.480 NA
ATOM      7  C   LIG    1        3.499  -1.319   9.439  0.00  0.00    +0.160 A 
ATOM      8  C   LIG    1        3.227  -1.130  10.810  0.00  0.00    +0.060 A 
ATOM      9  C   LIG    1        4.041  -1.687  11.764  0.00  0.00    +0.140 A 
ATOM     10  C   LIG    1        5.143  -2.445  11.396  0.00  0.00    -0.660 A 
ATOM     11  C   LIG    1        5.428  -2.644  10.063  0.00  0.00    +0.190 A 
ATOM     12  C   LIG    1        4.613  -2.085   9.082  0.00  0.00    -0.210 A 
ATOM     13  S   LIG    1        4.703  -2.150   7.323  0.00  0.00    +0.090 S 
BRANCH  10  14
ATOM     14  S   LIG    1        6.177  -3.154  12.633  0.00  0.00    +2.500 S 
ATOM     15  O   LIG    1        6.755  -4.287  12.000  0.00  0.00    -0.930 OA
ATOM     16  O   LIG    1        5.325  -3.300  13.761  0.00  0.00    -0.930 OA
ATOM     17  C   LIG    1        7.438  -1.889  12.948  0.00  0.00    -0.250 C 
ENDBRANCH  10  14
ENDBRANCH   2   5
BRANCH   1  21
ATOM     18  C   LIG    1       -0.150   1.183   2.376  0.00  0.00    +0.360 A 
ATOM     19  C   LIG    1       -0.759   1.603   3.554  0.00  0.00    -0.040 A 
ATOM     20  C   LIG    1       -0.214   1.229   4.766  0.00  0.00    +0.190 A 
ATOM     21  C   LIG    1        0.942   0.435   4.759  0.00  0.00    -0.230 A 
ATOM     22  C   LIG    1        1.494   0.054   3.535  0.00  0.00    +0.340 A 
ATOM     23  N   LIG    1        0.938   0.429   2.403  0.00  0.00    -0.540 NA
BRANCH  18  24
ATOM     24  O   LIG    1       -0.682   1.547   1.184  0.00  0.00    -0.300 OA
BRANCH  24  25
ATOM     25  C   LIG    1       -0.013   1.086   0.008  0.00  0.00    +0.210 C 
BRANCH  25  27
ATOM     26  C   LIG    1        0.031   1.205  -2.487  0.00  0.00    +0.040 C 
ATOM     27  C   LIG    1       -0.753   1.593  -1.232  0.00  0.00    -0.020 C 
ATOM     28  C   LIG    1       -2.147   0.964  -1.286  0.00  0.00    +0.030 C 
ENDBRANCH  25  27
ENDBRANCH  24  25
ENDBRANCH  18  24
ENDBRANCH   1  21
TORSDOF 6
