REMARK  Name = ZINCtV00000vw59S.0
REMARK                            x       y       z     vdW  Elec       q    Type
REMARK                         _______ _______ _______ _____ _____    ______ ____
ROOT
ATOM      1  C   LIG    1        3.946   3.247  -0.945  0.00  0.00    -0.190 A 
ATOM      2  C   LIG    1        5.190   3.790  -0.756  0.00  0.00    +0.050 A 
ATOM      3  S   LIG    1        6.009   3.010   0.517  0.00  0.00    +0.330 S 
ATOM      4  C   LIG    1        4.667   1.924   0.827  0.00  0.00    -0.100 A 
ATOM      5  C   LIG    1        3.659   2.163  -0.021  0.00  0.00    -0.000 A 
ENDROOT
BRANCH   5   6
ATOM      6  C   LIG    1        2.384   1.407  -0.013  0.00  0.00    -0.040 A 
ATOM      7  C   LIG    1        1.167   2.088   0.002  0.00  0.00    +0.020 A 
ATOM      8  C   LIG    1       -0.017   1.379   0.010  0.00  0.00    +0.000 A 
ATOM      9  C   LIG    1        0.002  -0.004   0.002  0.00  0.00    +0.010 A 
ATOM     10  C   LIG    1        1.206  -0.685  -0.013  0.00  0.00    +0.010 A 
ATOM     11  C   LIG    1        2.397   0.013  -0.020  0.00  0.00    +0.030 A 
ENDBRANCH   5   6
BRANCH   2  12
ATOM     12  N   LIG    1        5.712   4.834  -1.502  0.00  0.00    -0.630 N 
ATOM     13  H   LIG    1        5.187   5.231  -2.214  0.00  0.00    +0.420 HD
ATOM     14  C   LIG    1        6.949   5.299  -1.237  0.00  0.00    +0.580 C 
ATOM     15  O   LIG    1        7.607   4.801  -0.343  0.00  0.00    -0.490 OA
BRANCH  14  16
ATOM     16  C   LIG    1        7.503   6.408  -2.029  0.00  0.00    -0.150 A 
ATOM     17  C   LIG    1        6.826   7.011  -3.038  0.00  0.00    -0.050 A 
ATOM     18  S   LIG    1        7.760   8.251  -3.738  0.00  0.00    +0.220 S 
ATOM     19  C   LIG    1        9.106   7.963  -2.648  0.00  0.00    -0.200 A 
ATOM     20  C   LIG    1       10.411   8.735  -2.653  0.00  0.00    +0.120 C 
ATOM     21  C   LIG    1       11.137   8.482  -1.329  0.00  0.00    -0.010 C 
ATOM     22  C   LIG    1       12.559   9.040  -1.410  0.00  0.00    +0.030 C 
ATOM     23  C   LIG    1       11.192   6.974  -1.069  0.00  0.00    +0.020 C 
ATOM     24  C   LIG    1        9.786   6.468  -0.736  0.00  0.00    +0.110 C 
ATOM     25  C   LIG    1        8.822   6.965  -1.800  0.00  0.00    -0.050 A 
ENDBRANCH  14  16
ENDBRANCH   2  12
BRANCH   1  26
ATOM     26  C   LIG    1        3.008   3.710  -1.967  0.00  0.00    +0.540 C 
ATOM     27  O   LIG    1        2.213   4.593  -1.708  0.00  0.00    -0.490 OA
BRANCH  26  28
ATOM     28  O   LIG    1        3.025   3.157  -3.198  0.00  0.00    -0.340 OA
BRANCH  28  30
ATOM     29  C   LIG    1        2.249   2.914  -5.474  0.00  0.00    +0.070 C 
ATOM     30  C   LIG    1        2.080   3.657  -4.147  0.00  0.00    +0.200 C 
ENDBRANCH  28  30
ENDBRANCH  26  28
ENDBRANCH   1  26
TORSDOF 6
