REMARK  Name = ZINCrg000000ss8d.0
REMARK                            x       y       z     vdW  Elec       q    Type
REMARK                         _______ _______ _______ _____ _____    ______ ____
ROOT
ATOM      1  C   LIG    1        0.148   0.969  -4.871  0.00  0.00    -0.080 A 
ATOM      2  C   LIG    1        1.299   0.186  -4.762  0.00  0.00    +0.030 A 
ATOM      3  C   LIG    1        1.937  -0.259  -5.901  0.00  0.00    +0.120 A 
ATOM      4  C   LIG    1        1.446   0.077  -7.149  0.00  0.00    -0.660 A 
ATOM      5  C   LIG    1        0.308   0.857  -7.265  0.00  0.00    +0.120 A 
ATOM      6  C   LIG    1       -0.342   1.305  -6.134  0.00  0.00    +0.070 A 
ENDROOT
BRANCH   1   9
ATOM      7  N   LIG    1       -0.067   1.120  -2.437  0.00  0.00    -0.720 N 
ATOM      8  H   LIG    1        0.730   0.573  -2.358  0.00  0.00    +0.400 HD
ATOM      9  C   LIG    1       -0.543   1.446  -3.655  0.00  0.00    +0.560 C 
ATOM     10  O   LIG    1       -1.542   2.132  -3.753  0.00  0.00    -0.520 OA
BRANCH   7  11
ATOM     11  C   LIG    1       -0.753   1.593  -1.232  0.00  0.00    +0.280 C 
BRANCH  11  12
ATOM     12  C   LIG    1       -0.013   1.086   0.008  0.00  0.00    +0.010 C 
BRANCH  12  13
ATOM     13  C   LIG    1       -0.729   1.579   1.267  0.00  0.00    +0.310 C 
BRANCH  13  19
ATOM     14  C   LIG    1        1.719   2.944   2.588  0.00  0.00    +0.170 C 
ATOM     15  C   LIG    1        1.047   1.675   3.043  0.00  0.00    +0.200 A 
ATOM     16  N   LIG    1        1.398   0.956   4.074  0.00  0.00    -0.490 NA
ATOM     17  C   LIG    1        0.582  -0.104   4.173  0.00  0.00    +0.140 A 
ATOM     18  C   LIG    1       -0.313  -0.036   3.169  0.00  0.00    +0.110 A 
ATOM     19  N   LIG    1       -0.020   1.094   2.454  0.00  0.00    -0.460 N 
ENDBRANCH  13  19
ENDBRANCH  12  13
ENDBRANCH  11  12
ENDBRANCH   7  11
ENDBRANCH   1   9
BRANCH   4  20
ATOM     20  S   LIG    1        2.271  -0.490  -8.599  0.00  0.00    +2.690 S 
ATOM     21  O   LIG    1        1.302  -0.488  -9.639  0.00  0.00    -0.940 OA
ATOM     22  O   LIG    1        2.999  -1.650  -8.218  0.00  0.00    -0.950 OA
BRANCH  20  23
ATOM     23  N   LIG    1        3.395   0.656  -9.004  0.00  0.00    -1.000 NA
ATOM     24  C   LIG    1        3.054   1.764  -9.911  0.00  0.00    +0.270 C 
ATOM     25  C   LIG    1        3.488   3.079  -9.245  0.00  0.00    +0.220 C 
ATOM     26  O   LIG    1        4.859   2.978  -8.854  0.00  0.00    -0.370 OA
ATOM     27  C   LIG    1        5.117   1.964  -7.880  0.00  0.00    +0.220 C 
ATOM     28  C   LIG    1        4.766   0.594  -8.472  0.00  0.00    +0.270 C 
ENDBRANCH  20  23
ENDBRANCH   4  20
TORSDOF 7
