REMARK  Name = ZINCkj000005m3Rm.0
REMARK                            x       y       z     vdW  Elec       q    Type
REMARK                         _______ _______ _______ _____ _____    ______ ____
ROOT
ATOM      1  O   LIG    1       -0.212   2.248   2.052  0.00  0.00    -0.510 OA
ATOM      2  C   LIG    1       -0.780   1.600   1.199  0.00  0.00    +0.520 C 
ATOM      3  N   LIG    1       -2.098   1.346   1.312  0.00  0.00    -0.610 N 
ATOM      4  C   LIG    1       -2.789   0.482   0.342  0.00  0.00    +0.240 C 
ATOM      5  C   LIG    1       -4.037   1.211  -0.158  0.00  0.00    +0.230 C 
ATOM      6  O   LIG    1       -4.808   1.650   0.964  0.00  0.00    -0.360 OA
ATOM      7  C   LIG    1       -4.135   2.590   1.804  0.00  0.00    +0.210 C 
ATOM      8  C   LIG    1       -2.891   1.928   2.407  0.00  0.00    +0.290 C 
ENDROOT
BRANCH   7   9
ATOM      9  C   LIG    1       -5.059   3.027   2.912  0.00  0.00    -0.130 A 
ATOM     10  C   LIG    1       -6.099   2.208   3.307  0.00  0.00    +0.080 A 
ATOM     11  C   LIG    1       -6.943   2.606   4.327  0.00  0.00    +0.010 A 
ATOM     12  C   LIG    1       -6.755   3.829   4.944  0.00  0.00    +0.060 A 
ATOM     13  C   LIG    1       -5.719   4.652   4.546  0.00  0.00    -0.010 A 
ATOM     14  C   LIG    1       -4.870   4.252   3.529  0.00  0.00    +0.110 A 
ATOM     15  F   LIG    1       -3.857   5.056   3.139  0.00  0.00    -0.140 F 
ENDBRANCH   7   9
BRANCH   2  16
ATOM     16  C   LIG    1       -0.011   1.080   0.012  0.00  0.00    -0.010 C 
ATOM     17  C   LIG    1        1.489   0.932   0.353  0.00  0.00    +0.090 C 
ATOM     18  C   LIG    1        2.237   1.398  -0.909  0.00  0.00    +0.280 C 
ATOM     19  N   LIG    1        1.212   1.758  -1.913  0.00  0.00    -0.510 N 
ATOM     20  H   LIG    1        1.023   0.970  -2.514  0.00  0.00    +0.430 HD
ATOM     21  H   LIG    1        1.522   2.547  -2.460  0.00  0.00    +0.440 HD
ATOM     22  C   LIG    1       -0.004   2.117  -1.139  0.00  0.00    +0.290 C 
ENDBRANCH   2  16
TORSDOF 2
