REMARK  Name = ZINCvU0000000FBD.0
REMARK                            x       y       z     vdW  Elec       q    Type
REMARK                         _______ _______ _______ _____ _____    ______ ____
ROOT
ATOM      1  S   LIG    1       -6.690   4.190   1.793  0.00  0.00    +0.120 S 
ENDROOT
BRANCH   1   5
ATOM      2  C   LIG    1      -10.563   3.965   1.812  0.00  0.00    +0.230 A 
ATOM      3  N   LIG    1      -10.302   3.988   0.528  0.00  0.00    -0.260 NA
ATOM      4  N   LIG    1       -9.030   4.063   0.351  0.00  0.00    -0.280 NA
ATOM      5  C   LIG    1       -8.428   4.091   1.518  0.00  0.00    +0.120 A 
ATOM      6  O   LIG    1       -9.382   4.024   2.466  0.00  0.00    -0.200 OA
BRANCH   2  10
ATOM      7  C   LIG    1      -14.413   3.732   3.590  0.00  0.00    -0.040 A 
ATOM      8  C   LIG    1      -14.291   3.747   2.212  0.00  0.00    +0.020 A 
ATOM      9  C   LIG    1      -13.043   3.823   1.628  0.00  0.00    +0.080 A 
ATOM     10  C   LIG    1      -11.903   3.884   2.430  0.00  0.00    -0.040 A 
ATOM     11  C   LIG    1      -12.033   3.861   3.820  0.00  0.00    +0.050 A 
ATOM     12  C   LIG    1      -13.287   3.792   4.392  0.00  0.00    +0.020 A 
BRANCH   7  14
ATOM     13  C   LIG    1      -16.471   2.361   3.772  0.00  0.00    +0.040 C 
ATOM     14  C   LIG    1      -15.779   3.649   4.221  0.00  0.00    -0.030 C 
ATOM     15  C   LIG    1      -16.615   4.855   3.788  0.00  0.00    +0.040 C 
ATOM     16  C   LIG    1      -15.638   3.647   5.745  0.00  0.00    +0.030 C 
ENDBRANCH   7  14
ENDBRANCH   2  10
ENDBRANCH   1   5
BRANCH   1  17
ATOM     17  C   LIG    1       -6.104   4.236   0.081  0.00  0.00    +0.260 C 
BRANCH  17  18
ATOM     18  C   LIG    1       -4.599   4.323   0.068  0.00  0.00    +0.200 A 
ATOM     19  N   LIG    1       -3.762   3.316   0.054  0.00  0.00    -0.440 NA
ATOM     20  C   LIG    1       -2.528   3.870   0.045  0.00  0.00    +0.200 A 
ATOM     21  N   LIG    1       -2.688   5.168   0.060  0.00  0.00    -0.350 NA
ATOM     22  O   LIG    1       -3.869   5.442   0.068  0.00  0.00    +0.110 OA
BRANCH  20  23
ATOM     23  C   LIG    1       -1.235   3.142   0.030  0.00  0.00    +0.030 A 
ATOM     24  C   LIG    1       -1.218   1.748   0.017  0.00  0.00    +0.090 A 
ATOM     25  C   LIG    1       -0.013   1.076   0.008  0.00  0.00    +0.110 A 
ATOM     26  C   LIG    1        1.177   1.782   0.000  0.00  0.00    -0.030 A 
ATOM     27  C   LIG    1        1.165   3.166   0.008  0.00  0.00    +0.110 A 
ATOM     28  C   LIG    1       -0.035   3.848   0.023  0.00  0.00    +0.080 A 
BRANCH  26  29
ATOM     29  N   LIG    1        2.466   1.056  -0.015  0.00  0.00    +0.020 N 
ATOM     30  O   LIG    1        3.514   1.676  -0.022  0.00  0.00    -0.150 OA
ATOM     31  O   LIG    1        2.479  -0.162  -0.022  0.00  0.00    -0.150 OA
ENDBRANCH  26  29
ENDBRANCH  20  23
ENDBRANCH  17  18
ENDBRANCH   1  17
TORSDOF 7
