REMARK  Name = ZINCpk000000oPGp.0
REMARK                            x       y       z     vdW  Elec       q    Type
REMARK                         _______ _______ _______ _____ _____    ______ ____
ROOT
ATOM      1  C   LIG    1        0.821  -7.545   4.744  0.00  0.00    -0.470 C 
ATOM      2  C   LIG    1        1.858  -7.824   3.624  0.00  0.00    +0.090 C 
ATOM      3  C   LIG    1        1.599  -6.681   2.620  0.00  0.00    +0.260 C 
ATOM      4  N   LIG    1        0.938  -5.594   3.358  0.00  0.00    -0.630 N 
ATOM      5  C   LIG    1        0.528  -4.423   2.832  0.00  0.00    +0.730 C 
ATOM      6  N   LIG    1        0.714  -4.172   1.520  0.00  0.00    -0.710 N 
ATOM      7  H   LIG    1        1.142  -4.834   0.956  0.00  0.00    +0.400 HD
ATOM      8  O   LIG    1       -0.009  -3.593   3.539  0.00  0.00    -0.580 OA
ATOM      9  C   LIG    1        0.804  -5.994   4.771  0.00  0.00    +0.340 C 
ENDROOT
BRANCH   6  10
ATOM     10  C   LIG    1        0.268  -2.899   0.948  0.00  0.00    +0.270 C 
ATOM     11  C   LIG    1       -0.055  -2.873  -0.547  0.00  0.00    -0.030 C 
ATOM     12  C   LIG    1       -1.176  -1.929  -1.007  0.00  0.00    +0.070 C 
ATOM     13  C   LIG    1       -1.289  -0.785   0.011  0.00  0.00    +0.070 C 
ATOM     14  C   LIG    1        0.002  -0.004   0.002  0.00  0.00    -0.080 A 
ATOM     15  C   LIG    1       -0.017   1.376   0.010  0.00  0.00    +0.010 A 
ATOM     16  C   LIG    1        1.173   2.082   0.002  0.00  0.00    +0.000 A 
ATOM     17  C   LIG    1        2.378   1.407  -0.014  0.00  0.00    +0.000 A 
ATOM     18  C   LIG    1        2.397   0.024  -0.021  0.00  0.00    +0.010 A 
ATOM     19  C   LIG    1        1.210  -0.681  -0.013  0.00  0.00    -0.050 A 
ATOM     20  C   LIG    1        1.217  -2.190  -0.021  0.00  0.00    -0.010 C 
ENDBRANCH   6  10
BRANCH   1  21
ATOM     21  S   LIG    1        1.384  -8.214   6.333  0.00  0.00    +2.630 S 
ATOM     22  O   LIG    1        2.510  -7.489   6.808  0.00  0.00    -0.950 OA
ATOM     23  O   LIG    1        1.387  -9.635   6.303  0.00  0.00    -0.940 OA
BRANCH  21  24
ATOM     24  N   LIG    1        0.173  -7.831   7.395  0.00  0.00    -1.120 NA
ATOM     25  H   LIG    1        0.345  -7.215   8.125  0.00  0.00    +0.420 HD
BRANCH  24  27
ATOM     26  C   LIG    1       -1.966  -8.217   8.517  0.00  0.00    +0.040 C 
ATOM     27  C   LIG    1       -1.157  -8.423   7.234  0.00  0.00    +0.250 C 
ENDBRANCH  24  27
ENDBRANCH  21  24
ENDBRANCH   1  21
TORSDOF 4
