REMARK  Name = ZINCkj00000dDYPe.0
REMARK                            x       y       z     vdW  Elec       q    Type
REMARK                         _______ _______ _______ _____ _____    ______ ____
ROOT
ATOM      1  C   LIG    1       -1.298   3.911  -2.044  0.00  0.00    +0.210 C 
ATOM      2  C   LIG    1       -1.675   4.024  -0.552  0.00  0.00    +0.040 C 
ATOM      3  C   LIG    1       -0.388   3.533   0.170  0.00  0.00    +0.040 C 
ATOM      4  C   LIG    1        0.104   2.427  -0.797  0.00  0.00    +0.250 C 
ATOM      5  N   LIG    1       -0.200   2.939  -2.145  0.00  0.00    -0.610 N 
ATOM      6  C   LIG    1        0.425   2.575  -3.283  0.00  0.00    +0.520 C 
ATOM      7  O   LIG    1        0.029   2.989  -4.351  0.00  0.00    -0.530 OA
ENDROOT
BRANCH   1   8
ATOM      8  C   LIG    1       -2.502   3.421  -2.852  0.00  0.00    +0.290 C 
BRANCH   8  14
ATOM      9  C   LIG    1       -2.628   5.867  -4.750  0.00  0.00    +0.170 C 
ATOM     10  C   LIG    1       -3.616   5.522  -3.666  0.00  0.00    +0.210 A 
ATOM     11  N   LIG    1       -4.685   6.208  -3.365  0.00  0.00    -0.490 NA
ATOM     12  C   LIG    1       -5.322   5.610  -2.347  0.00  0.00    +0.150 A 
ATOM     13  C   LIG    1       -4.625   4.509  -2.008  0.00  0.00    +0.110 A 
ATOM     14  N   LIG    1       -3.545   4.451  -2.847  0.00  0.00    -0.460 N 
ENDBRANCH   8  14
ENDBRANCH   1   8
BRANCH   6  15
ATOM     15  C   LIG    1        1.617   1.655  -3.227  0.00  0.00    +0.100 C 
BRANCH  15  16
ATOM     16  C   LIG    1        2.153   1.427  -4.641  0.00  0.00    -0.170 C 
ATOM     17  C   LIG    1        3.657   1.195  -4.798  0.00  0.00    +0.050 C 
ATOM     18  C   LIG    1        3.036   2.520  -5.247  0.00  0.00    +0.100 C 
BRANCH  16  19
ATOM     19  C   LIG    1        1.219   0.669  -5.587  0.00  0.00    +0.320 C 
BRANCH  19  20
ATOM     20  N   LIG    1        1.044  -0.707  -5.104  0.00  0.00    -0.640 N 
ATOM     21  H   LIG    1        0.501  -1.232  -5.773  0.00  0.00    +0.440 HD
ATOM     22  H   LIG    1        0.562  -0.693  -4.217  0.00  0.00    +0.430 HD
ATOM     23  H   LIG    1        1.947  -1.140  -4.989  0.00  0.00    +0.430 HD
ENDBRANCH  19  20
ENDBRANCH  16  19
ENDBRANCH  15  16
ENDBRANCH   6  15
TORSDOF 6
