REMARK  Name = ZINCqH00000363e2.0
REMARK                            x       y       z     vdW  Elec       q    Type
REMARK                         _______ _______ _______ _____ _____    ______ ____
ROOT
ATOM      1  N   LIG    1       -2.162   4.360   4.937  0.00  0.00    -0.730 N 
ATOM      2  H   LIG    1       -2.064   3.415   4.738  0.00  0.00    +0.400 HD
ATOM      3  C   LIG    1       -2.239   4.774   6.217  0.00  0.00    +0.530 C 
ATOM      4  O   LIG    1       -2.361   5.955   6.465  0.00  0.00    -0.520 OA
ENDROOT
BRANCH   3   5
ATOM      5  C   LIG    1       -2.173   3.771   7.340  0.00  0.00    -0.030 C 
ATOM      6  C   LIG    1       -0.834   3.024   7.287  0.00  0.00    +0.260 C 
ATOM      7  O   LIG    1       -0.843   2.013   8.296  0.00  0.00    -0.300 OA
ATOM      8  C   LIG    1       -1.219   2.371   9.552  0.00  0.00    +0.130 A 
ATOM      9  C   LIG    1       -0.901   1.522  10.607  0.00  0.00    +0.010 A 
ATOM     10  C   LIG    1       -1.273   1.847  11.896  0.00  0.00    +0.060 A 
ATOM     11  C   LIG    1       -1.964   3.020  12.140  0.00  0.00    -0.060 A 
ATOM     12  C   LIG    1       -2.280   3.866  11.094  0.00  0.00    +0.070 A 
ATOM     13 CL   LIG    1       -2.434   3.429  13.761  0.00  0.00    -0.070 Cl
ATOM     14  C   LIG    1       -1.908   3.546   9.799  0.00  0.00    -0.140 A 
ATOM     15  C   LIG    1       -2.268   4.495   8.685  0.00  0.00    +0.130 C 
ENDBRANCH   3   5
BRANCH   1  16
ATOM     16  C   LIG    1       -2.225   5.335   3.846  0.00  0.00    +0.300 C 
ATOM     17  C   LIG    1       -3.689   5.628   3.509  0.00  0.00    +0.040 C 
BRANCH  16  22
ATOM     18  C   LIG    1       -0.787   2.893   1.346  0.00  0.00    +0.100 A 
ATOM     19  C   LIG    1       -0.253   3.750   0.396  0.00  0.00    -0.040 A 
ATOM     20  C   LIG    1       -0.366   5.117   0.558  0.00  0.00    -0.020 A 
ATOM     21  C   LIG    1       -1.003   5.633   1.677  0.00  0.00    +0.100 A 
ATOM     22  C   LIG    1       -1.532   4.775   2.630  0.00  0.00    -0.080 A 
ATOM     23  C   LIG    1       -1.425   3.408   2.465  0.00  0.00    +0.020 A 
BRANCH  18  25
ATOM     24  C   LIG    1       -0.013   1.086   0.008  0.00  0.00    +0.250 C 
ATOM     25  O   LIG    1       -0.682   1.547   1.184  0.00  0.00    -0.320 OA
ENDBRANCH  18  25
BRANCH  21  26
ATOM     26  O   LIG    1       -1.109   6.979   1.839  0.00  0.00    -0.310 OA
ATOM     27  C   LIG    1       -0.542   7.802   0.819  0.00  0.00    +0.250 C 
ENDBRANCH  21  26
ENDBRANCH  16  22
ENDBRANCH   1  16
TORSDOF 5
