REMARK  Name = ZINCAx0000000jx9.0
REMARK                            x       y       z     vdW  Elec       q    Type
REMARK                         _______ _______ _______ _____ _____    ______ ____
ROOT
ATOM      1  C   LIG    1       -3.764   7.023  -6.408  0.00  0.00    +0.320 A 
ATOM      2  C   LIG    1       -3.722   8.241  -5.759  0.00  0.00    -0.120 A 
ATOM      3  C   LIG    1       -2.930   8.420  -4.630  0.00  0.00    +0.230 A 
ATOM      4  C   LIG    1       -2.174   7.402  -4.130  0.00  0.00    -0.750 A 
ATOM      5  C   LIG    1       -2.184   6.151  -4.763  0.00  0.00    +0.110 A 
ATOM      6  C   LIG    1       -1.418   5.068  -4.294  0.00  0.00    -0.060 A 
ATOM      7  C   LIG    1       -1.481   3.884  -4.963  0.00  0.00    +0.280 A 
ATOM      8  N   LIG    1       -2.241   3.728  -6.039  0.00  0.00    -0.500 NA
ATOM      9  C   LIG    1       -2.989   4.692  -6.526  0.00  0.00    +0.320 A 
ATOM     10  C   LIG    1       -2.991   5.952  -5.913  0.00  0.00    -0.180 A 
ENDROOT
BRANCH   4  11
ATOM     11  S   LIG    1       -1.181   7.659  -2.698  0.00  0.00    +2.690 S 
ATOM     12  O   LIG    1        0.101   7.124  -2.997  0.00  0.00    -0.950 OA
ATOM     13  O   LIG    1       -1.388   9.008  -2.303  0.00  0.00    -0.950 OA
BRANCH  11  14
ATOM     14  N   LIG    1       -1.810   6.717  -1.490  0.00  0.00    -1.000 NA
ATOM     15  C   LIG    1       -2.922   7.231  -0.711  0.00  0.00    +0.280 C 
ATOM     16  C   LIG    1       -2.382   7.989   0.525  0.00  0.00    +0.230 C 
ATOM     17  O   LIG    1       -1.788   7.094   1.391  0.00  0.00    -0.370 OA
ATOM     18  C   LIG    1       -0.638   6.372   0.969  0.00  0.00    +0.240 C 
ATOM     19  C   LIG    1       -1.087   5.111   0.259  0.00  0.00    +0.250 C 
ATOM     20  C   LIG    1       -1.220   5.388  -1.246  0.00  0.00    +0.300 C 
BRANCH  19  21
ATOM     21  N   LIG    1       -0.100   4.051   0.476  0.00  0.00    -0.380 N 
ATOM     22  C   LIG    1        1.233   4.199   0.570  0.00  0.00    +0.480 A 
ATOM     23  N   LIG    1        1.760   3.017   0.763  0.00  0.00    -0.540 NA
ATOM     24  C   LIG    1        0.799   2.094   0.797  0.00  0.00    +0.420 A 
ATOM     25  N   LIG    1       -0.357   2.678   0.620  0.00  0.00    -0.310 NA
ENDBRANCH  19  21
ENDBRANCH  11  14
ENDBRANCH   4  11
BRANCH   1  26
ATOM     26  N   LIG    1       -4.560   6.855  -7.537  0.00  0.00    -0.710 N 
ATOM     27  H   LIG    1       -4.585   5.997  -7.989  0.00  0.00    +0.400 HD
BRANCH  26  28
ATOM     28  C   LIG    1       -5.359   7.973  -8.043  0.00  0.00    +0.230 C 
ATOM     29  C   LIG    1       -6.652   8.084  -7.232  0.00  0.00    +0.030 C 
BRANCH  28  30
ATOM     30  C   LIG    1       -5.700   7.731  -9.515  0.00  0.00    +0.140 C 
BRANCH  30  37
ATOM     31  C   LIG    1       -3.929   5.170 -10.427  0.00  0.00    +0.160 C 
ATOM     32  C   LIG    1       -3.656   6.620 -10.732  0.00  0.00    +0.020 A 
ATOM     33  N   LIG    1       -2.659   7.098 -11.419  0.00  0.00    -0.360 NA
ATOM     34  O   LIG    1       -2.705   8.304 -11.490  0.00  0.00    +0.100 OA
ATOM     35  C   LIG    1       -3.772   8.796 -10.845  0.00  0.00    -0.020 A 
ATOM     36  C   LIG    1       -4.159  10.246 -10.716  0.00  0.00    +0.190 C 
ATOM     37  C   LIG    1       -4.433   7.731 -10.331  0.00  0.00    -0.210 A 
ENDBRANCH  30  37
ENDBRANCH  28  30
ENDBRANCH  26  28
ENDBRANCH   1  26
TORSDOF 7
