REMARK  Name = ZINCrD000000CJLJ.0
REMARK                            x       y       z     vdW  Elec       q    Type
REMARK                         _______ _______ _______ _____ _____    ______ ____
ROOT
ATOM      1  O   LIG    1       -4.444   1.538   7.028  0.00  0.00    -0.500 OA
ATOM      2  C   LIG    1       -4.261   2.296   6.093  0.00  0.00    +0.600 C 
ATOM      3  N   LIG    1       -3.715   1.837   4.949  0.00  0.00    -0.610 N 
ATOM      4  C   LIG    1       -3.462   0.402   4.765  0.00  0.00    +0.290 C 
ATOM      5  C   LIG    1       -1.982   0.206   4.417  0.00  0.00    +0.290 C 
ATOM      6  N   LIG    1       -1.628   1.132   3.332  0.00  0.00    -0.630 N 
ATOM      7  C   LIG    1       -1.876   2.569   3.518  0.00  0.00    +0.250 C 
ATOM      8  C   LIG    1       -1.081   0.673   2.189  0.00  0.00    +0.720 C 
ATOM      9  N   LIG    1       -0.926   1.501   1.136  0.00  0.00    -0.640 N 
ATOM     10  C   LIG    1        0.167   1.294   0.176  0.00  0.00    +0.280 C 
ATOM     11  C   LIG    1       -0.420   1.225  -1.237  0.00  0.00    +0.010 C 
ATOM     12  C   LIG    1       -1.257   2.480  -1.498  0.00  0.00    +0.010 C 
ATOM     13  C   LIG    1       -2.413   2.541  -0.497  0.00  0.00    +0.010 C 
ATOM     14  C   LIG    1       -1.848   2.625   0.924  0.00  0.00    +0.260 C 
ATOM     15  O   LIG    1       -0.728  -0.487   2.107  0.00  0.00    -0.580 OA
ATOM     16  C   LIG    1       -3.362   2.764   3.865  0.00  0.00    +0.270 C 
ENDROOT
BRANCH   2  17
ATOM     17  C   LIG    1       -4.636   3.706   6.211  0.00  0.00    -0.080 A 
ATOM     18  C   LIG    1       -5.293   4.293   7.283  0.00  0.00    -0.040 A 
ATOM     19  C   LIG    1       -5.438   5.662   6.956  0.00  0.00    -0.050 A 
ATOM     20  C   LIG    1       -4.888   5.839   5.739  0.00  0.00    +0.200 A 
ATOM     21  O   LIG    1       -4.408   4.670   5.294  0.00  0.00    -0.160 OA
BRANCH  18  22
ATOM     22  C   LIG    1       -5.750   3.621   8.522  0.00  0.00    -0.040 A 
ATOM     23  C   LIG    1       -6.504   2.450   8.446  0.00  0.00    +0.060 A 
ATOM     24  C   LIG    1       -6.921   1.825   9.603  0.00  0.00    +0.000 A 
ATOM     25  C   LIG    1       -6.604   2.365  10.837  0.00  0.00    +0.010 A 
ATOM     26  C   LIG    1       -5.861   3.529  10.918  0.00  0.00    -0.010 A 
ATOM     27  C   LIG    1       -5.433   4.160   9.768  0.00  0.00    +0.020 A 
ENDBRANCH  18  22
ENDBRANCH   2  17
TORSDOF 2
