REMARK  Name = ZINCpk00000JfwGs.0
REMARK                            x       y       z     vdW  Elec       q    Type
REMARK                         _______ _______ _______ _____ _____    ______ ____
ROOT
ATOM      1  N   LIG    1        2.403   1.103  -0.015  0.00  0.00    -0.670 N 
ATOM      2  H   LIG    1        3.233   1.598  -0.103  0.00  0.00    +0.410 HD
ATOM      3  C   LIG    1        2.427  -0.241   0.079  0.00  0.00    +0.730 C 
ATOM      4  N   LIG    1        3.605  -0.890   0.166  0.00  0.00    -0.620 N 
ATOM      5  C   LIG    1        4.933  -0.258   0.170  0.00  0.00    +0.240 C 
ATOM      6  C   LIG    1        5.978  -1.390   0.259  0.00  0.00    +0.040 C 
ATOM      7  C   LIG    1        5.200  -2.624  -0.270  0.00  0.00    +0.060 C 
ATOM      8  C   LIG    1        3.775  -2.350   0.280  0.00  0.00    +0.240 C 
ATOM      9  O   LIG    1        1.385  -0.868   0.086  0.00  0.00    -0.550 OA
ENDROOT
BRANCH   8  10
ATOM     10  C   LIG    1        2.745  -3.064  -0.556  0.00  0.00    +0.520 C 
ATOM     11  N   LIG    1        2.470  -4.363  -0.321  0.00  0.00    -0.620 N 
ATOM     12  C   LIG    1        3.168  -5.102   0.742  0.00  0.00    +0.280 C 
ATOM     13  C   LIG    1        2.113  -5.790   1.623  0.00  0.00    +0.170 C 
ATOM     14  N   LIG    1        1.231  -6.605   0.777  0.00  0.00    -0.540 NA
ATOM     15  C   LIG    1        0.484  -5.770  -0.174  0.00  0.00    +0.170 C 
ATOM     16  C   LIG    1        0.319  -7.416   1.594  0.00  0.00    +0.190 C 
ATOM     17  C   LIG    1        1.468  -5.080  -1.125  0.00  0.00    +0.290 C 
ATOM     18  O   LIG    1        2.163  -2.472  -1.440  0.00  0.00    -0.500 OA
ENDBRANCH   8  10
BRANCH   1  24
ATOM     19  C   LIG    1        1.067   3.043  -0.577  0.00  0.00    +0.090 A 
ATOM     20  C   LIG    1       -0.144   3.714  -0.545  0.00  0.00    -0.060 A 
ATOM     21  C   LIG    1       -1.239   3.136   0.071  0.00  0.00    +0.030 A 
ATOM     22  C   LIG    1       -1.130   1.886   0.652  0.00  0.00    +0.000 A 
ATOM     23  C   LIG    1        0.077   1.213   0.630  0.00  0.00    +0.050 A 
ATOM     24  C   LIG    1        1.179   1.786   0.014  0.00  0.00    +0.150 A 
BRANCH  19  26
ATOM     25  C   LIG    1        1.956   4.902  -1.765  0.00  0.00    +0.250 C 
ATOM     26  O   LIG    1        2.145   3.611  -1.181  0.00  0.00    -0.320 OA
ENDBRANCH  19  26
ENDBRANCH   1  24
TORSDOF 3
