REMARK  Name = ZINCrD0000075s0m.0
REMARK                            x       y       z     vdW  Elec       q    Type
REMARK                         _______ _______ _______ _____ _____    ______ ____
ROOT
ATOM      1  O   LIG    1        1.067   2.903  -0.076  0.00  0.00    -0.490 OA
ATOM      2  C   LIG    1        1.123   1.694   0.006  0.00  0.00    +0.520 C 
ATOM      3  N   LIG    1       -0.011   0.966   0.007  0.00  0.00    -0.670 N 
ATOM      4  H   LIG    1        0.035  -0.003   0.005  0.00  0.00    +0.420 HD
ENDROOT
BRANCH   3   5
ATOM      5  C   LIG    1       -1.257   1.609   0.007  0.00  0.00    +0.150 A 
ATOM      6  C   LIG    1       -2.326   1.050   0.695  0.00  0.00    +0.020 A 
ATOM      7  C   LIG    1       -3.551   1.685   0.699  0.00  0.00    +0.030 A 
ATOM      8  C   LIG    1       -3.718   2.878   0.006  0.00  0.00    -0.110 A 
ATOM      9  C   LIG    1       -2.649   3.434  -0.686  0.00  0.00    +0.070 A 
ATOM     10  C   LIG    1       -1.423   2.800  -0.686  0.00  0.00    +0.050 A 
BRANCH   8  11
ATOM     11  S   LIG    1       -5.284   3.686   0.007  0.00  0.00    -0.090 S 
BRANCH  11  12
ATOM     12  C   LIG    1       -6.309   2.589   1.024  0.00  0.00    +0.430 C 
ATOM     13  F   LIG    1       -5.756   2.488   2.305  0.00  0.00    -0.180 F 
ATOM     14  F   LIG    1       -6.359   1.320   0.436  0.00  0.00    -0.180 F 
ENDBRANCH  11  12
ENDBRANCH   8  11
ENDBRANCH   3   5
BRANCH   2  15
ATOM     15  C   LIG    1        2.460   1.006   0.105  0.00  0.00    +0.270 C 
BRANCH  15  16
ATOM     16  O   LIG    1        3.518   2.000   0.083  0.00  0.00    -0.330 OA
BRANCH  16  17
ATOM     17  C   LIG    1        4.780   1.549   0.163  0.00  0.00    +0.480 C 
ATOM     18  O   LIG    1        4.993   0.363   0.249  0.00  0.00    -0.470 OA
BRANCH  17  19
ATOM     19  C   LIG    1        5.931   2.522   0.146  0.00  0.00    +0.200 C 
ATOM     20  C   LIG    1        5.897   3.386   1.414  0.00  0.00    +0.270 C 
ATOM     21  O   LIG    1        7.008   4.288   1.372  0.00  0.00    -0.290 OA
ATOM     22  C   LIG    1        8.214   3.757   1.031  0.00  0.00    +0.050 A 
ATOM     23  C   LIG    1        9.373   4.464   1.312  0.00  0.00    +0.030 A 
ATOM     24  C   LIG    1       10.605   3.939   0.969  0.00  0.00    +0.030 A 
ATOM     25  C   LIG    1       10.685   2.708   0.346  0.00  0.00    +0.030 A 
ATOM     26  C   LIG    1        9.533   1.997   0.064  0.00  0.00    +0.030 A 
ATOM     27  C   LIG    1        8.294   2.517   0.406  0.00  0.00    +0.050 A 
ATOM     28  O   LIG    1        7.170   1.804   0.126  0.00  0.00    -0.280 OA
ENDBRANCH  17  19
ENDBRANCH  16  17
ENDBRANCH  15  16
ENDBRANCH   2  15
TORSDOF 7
