REMARK  Name = ZINCvU00000006Bw.0
REMARK                            x       y       z     vdW  Elec       q    Type
REMARK                         _______ _______ _______ _____ _____    ______ ____
ROOT
ATOM      1  N   LIG    1        1.307   1.896   2.555  0.00  0.00    -0.490 N 
ATOM      2  C   LIG    1        0.058   2.256   2.092  0.00  0.00    +0.330 A 
ATOM      3  C   LIG    1       -0.746   2.595   3.210  0.00  0.00    +0.110 A 
ATOM      4  C   LIG    1        0.105   2.416   4.401  0.00  0.00    -0.100 A 
ATOM      5  C   LIG    1       -0.112   2.588   5.766  0.00  0.00    +0.090 A 
ATOM      6  C   LIG    1        0.907   2.333   6.659  0.00  0.00    -0.020 A 
ATOM      7  C   LIG    1        2.142   1.902   6.202  0.00  0.00    +0.070 A 
ATOM      8  C   LIG    1        2.372   1.733   4.853  0.00  0.00    -0.110 A 
ATOM      9  C   LIG    1        3.723   1.270   4.372  0.00  0.00    +0.100 C 
ATOM     10  N   LIG    1       -1.998   2.979   3.048  0.00  0.00    -0.390 NA
ATOM     11  C   LIG    1       -2.514   3.048   1.817  0.00  0.00    +0.060 A 
ATOM     12  C   LIG    1       -3.847   3.453   1.616  0.00  0.00    +0.070 A 
ATOM     13  C   LIG    1       -4.349   3.516   0.353  0.00  0.00    +0.030 A 
ATOM     14  C   LIG    1       -3.562   3.183  -0.749  0.00  0.00    +0.060 A 
ATOM     15  C   LIG    1       -2.270   2.787  -0.593  0.00  0.00    +0.040 A 
ATOM     16  C   LIG    1       -1.713   2.710   0.696  0.00  0.00    +0.130 A 
ATOM     17  N   LIG    1       -0.446   2.323   0.874  0.00  0.00    -0.470 NA
ATOM     18  C   LIG    1        1.356   1.985   3.937  0.00  0.00    +0.170 A 
ENDROOT
BRANCH   1  19
ATOM     19  C   LIG    1        2.425   1.479   1.704  0.00  0.00    +0.370 C 
BRANCH  19  23
ATOM     20  C   LIG    1        4.441   4.936   0.199  0.00  0.00    +0.110 A 
ATOM     21  C   LIG    1        4.965   4.239   1.276  0.00  0.00    -0.040 A 
ATOM     22  C   LIG    1        4.310   3.122   1.760  0.00  0.00    +0.030 A 
ATOM     23  C   LIG    1        3.134   2.697   1.172  0.00  0.00    -0.120 A 
ATOM     24  C   LIG    1        2.608   3.385   0.094  0.00  0.00    -0.010 A 
ATOM     25  C   LIG    1        3.256   4.509  -0.393  0.00  0.00    +0.100 A 
BRANCH  25  26
ATOM     26  O   LIG    1        2.738   5.190  -1.450  0.00  0.00    -0.310 OA
ATOM     27  C   LIG    1        1.519   4.694  -2.007  0.00  0.00    +0.240 C 
ENDBRANCH  25  26
BRANCH  20  28
ATOM     28  O   LIG    1        5.083   6.036  -0.278  0.00  0.00    -0.300 OA
BRANCH  28  29
ATOM     29  C   LIG    1        6.294   6.417   0.379  0.00  0.00    +0.180 C 
BRANCH  29  31
ATOM     30  C   LIG    1        8.164   8.073   0.411  0.00  0.00    +0.040 C 
ATOM     31  C   LIG    1        6.868   7.666  -0.293  0.00  0.00    +0.020 C 
ENDBRANCH  29  31
ENDBRANCH  28  29
ENDBRANCH  20  28
ENDBRANCH  19  23
ENDBRANCH   1  19
TORSDOF 6
