REMARK  Name = ZINCvU0000000BYx.0
REMARK                            x       y       z     vdW  Elec       q    Type
REMARK                         _______ _______ _______ _____ _____    ______ ____
ROOT
ATOM      1  N   LIG    1       -2.016   5.951   1.221  0.00  0.00    -0.540 N 
ATOM      2  C   LIG    1       -1.252   6.089   2.305  0.00  0.00    +0.530 C 
ATOM      3  C   LIG    1        0.248   6.014   2.278  0.00  0.00    +0.070 C 
ATOM      4  C   LIG    1        0.752   6.199   0.845  0.00  0.00    +0.060 C 
ATOM      5  C   LIG    1       -0.047   5.268  -0.075  0.00  0.00    -0.010 C 
ATOM      6  O   LIG    1       -1.797   6.287   3.371  0.00  0.00    -0.530 OA
ATOM      7  C   LIG    1       -1.495   5.756  -0.126  0.00  0.00    +0.310 C 
ENDROOT
BRANCH   1  11
ATOM      8  C   LIG    1       -6.154   6.083   1.718  0.00  0.00    +0.130 A 
ATOM      9  C   LIG    1       -5.443   4.962   2.122  0.00  0.00    -0.010 A 
ATOM     10  C   LIG    1       -4.072   4.918   1.957  0.00  0.00    +0.080 A 
ATOM     11  C   LIG    1       -3.406   5.995   1.388  0.00  0.00    +0.110 A 
ATOM     12  C   LIG    1       -4.118   7.119   0.990  0.00  0.00    +0.040 A 
ATOM     13  C   LIG    1       -5.489   7.160   1.150  0.00  0.00    -0.070 A 
BRANCH   8  15
ATOM     14  C   LIG    1       -8.172   7.311   1.443  0.00  0.00    +0.250 C 
ATOM     15  O   LIG    1       -7.503   6.126   1.880  0.00  0.00    -0.320 OA
ENDBRANCH   8  15
ENDBRANCH   1  11
BRANCH   7  16
ATOM     16  C   LIG    1       -2.340   4.734  -0.843  0.00  0.00    -0.090 A 
ATOM     17  C   LIG    1       -1.750   3.608  -1.386  0.00  0.00    +0.020 A 
ATOM     18  C   LIG    1       -2.525   2.669  -2.040  0.00  0.00    +0.000 A 
ATOM     19  C   LIG    1       -3.889   2.860  -2.159  0.00  0.00    +0.010 A 
ATOM     20  C   LIG    1       -4.478   3.989  -1.621  0.00  0.00    +0.000 A 
ATOM     21  C   LIG    1       -3.704   4.926  -0.963  0.00  0.00    +0.030 A 
ENDBRANCH   7  16
BRANCH   5  22
ATOM     22  C   LIG    1       -0.005   3.863   0.469  0.00  0.00    +0.520 C 
ATOM     23  N   LIG    1        1.069   3.083   0.238  0.00  0.00    -0.670 N 
ATOM     24  H   LIG    1        1.850   3.451  -0.205  0.00  0.00    +0.410 HD
ATOM     25  O   LIG    1       -0.939   3.434   1.113  0.00  0.00    -0.490 OA
BRANCH  23  26
ATOM     26  C   LIG    1        1.059   1.742   0.638  0.00  0.00    +0.150 A 
ATOM     27  C   LIG    1       -0.146   1.101   0.892  0.00  0.00    +0.020 A 
ATOM     28  C   LIG    1       -0.153  -0.223   1.286  0.00  0.00    +0.020 A 
ATOM     29  C   LIG    1        1.039  -0.909   1.428  0.00  0.00    -0.020 A 
ATOM     30  C   LIG    1        2.241  -0.274   1.175  0.00  0.00    +0.020 A 
ATOM     31  C   LIG    1        2.255   1.050   0.781  0.00  0.00    -0.120 A 
ATOM     32  C   LIG    1        3.565   1.741   0.505  0.00  0.00    +0.080 C 
ENDBRANCH  23  26
ENDBRANCH   5  22
TORSDOF 5
