REMARK  Name = ZINC5c0000003X51.0
REMARK                            x       y       z     vdW  Elec       q    Type
REMARK                         _______ _______ _______ _____ _____    ______ ____
ROOT
ATOM      1  C   LIG    1       -1.187   1.624   0.017  0.00  0.00    +0.280 C 
ATOM      2  S   LIG    1       -2.561   0.805   0.019  0.00  0.00    -0.450 S 
ENDROOT
BRANCH   1   3
ATOM      3  N   LIG    1       -0.011   0.966   0.007  0.00  0.00    -0.780 N 
ATOM      4  H   LIG    1        0.822   1.462   0.002  0.00  0.00    +0.400 HD
ATOM      5  H   LIG    1        0.002  -0.004   0.002  0.00  0.00    +0.420 HD
ENDBRANCH   1   3
BRANCH   1   7
ATOM      6  C   LIG    1       -2.657   3.621   0.034  0.00  0.00    +0.060 C 
ATOM      7  C   LIG    1       -1.208   3.131   0.025  0.00  0.00    +0.080 C 
ENDBRANCH   1   7
TORSDOF 2
