REMARK  Name = ZINCpk00000xMaSg.2
REMARK                            x       y       z     vdW  Elec       q    Type
REMARK                         _______ _______ _______ _____ _____    ______ ____
ROOT
ATOM      1  C   LIG    1       -0.466   1.274  -2.466  0.00  0.00    +0.280 C 
ENDROOT
BRANCH   1   2
ATOM      2  C   LIG    1       -1.069   1.711  -1.130  0.00  0.00    +0.000 C 
ATOM      3  C   LIG    1       -0.260   1.103   0.019  0.00  0.00    +0.020 C 
ATOM      4  C   LIG    1       -0.904   1.496   1.352  0.00  0.00    +0.020 C 
ATOM      5  C   LIG    1       -2.359   1.018   1.369  0.00  0.00    +0.170 C 
ATOM      6  N   LIG    1       -3.090   1.628   0.252  0.00  0.00    -0.540 NA
ATOM      7  C   LIG    1       -4.521   1.302   0.318  0.00  0.00    +0.200 C 
ATOM      8  C   LIG    1       -2.518   1.227  -1.040  0.00  0.00    +0.240 C 
BRANCH   8   9
ATOM      9  C   LIG    1       -3.322   1.839  -2.158  0.00  0.00    -0.020 A 
ATOM     10  C   LIG    1       -4.007   1.176  -3.110  0.00  0.00    +0.150 A 
ATOM     11  N   LIG    1       -4.586   2.083  -3.910  0.00  0.00    -0.490 NA
ATOM     12  C   LIG    1       -4.280   3.282  -3.496  0.00  0.00    +0.380 A 
ATOM     13  N   LIG    1       -3.492   3.174  -2.404  0.00  0.00    -0.440 N 
ATOM     14  C   LIG    1       -2.925   4.280  -1.629  0.00  0.00    +0.320 C 
ENDBRANCH   8   9
ENDBRANCH   1   2
BRANCH   1  16
ATOM     15  C   LIG    1        1.609   1.581  -3.706  0.00  0.00    +0.590 C 
ATOM     16  N   LIG    1        0.881   1.835  -2.601  0.00  0.00    -0.720 N 
ATOM     17  H   LIG    1        1.249   2.389  -1.895  0.00  0.00    +0.400 HD
ATOM     18  O   LIG    1        1.116   0.964  -4.632  0.00  0.00    -0.540 OA
BRANCH  15  24
ATOM     19  C   LIG    1        3.582   0.957  -5.995  0.00  0.00    +0.350 C 
ATOM     20  N   LIG    1        3.880   1.771  -4.814  0.00  0.00    -0.390 N 
ATOM     21  C   LIG    1        5.058   2.366  -4.555  0.00  0.00    +0.280 A 
ATOM     22  C   LIG    1        4.950   3.040  -3.354  0.00  0.00    -0.130 A 
ATOM     23  C   LIG    1        3.634   2.837  -2.881  0.00  0.00    +0.060 A 
ATOM     24  C   LIG    1        2.998   2.049  -3.793  0.00  0.00    -0.050 A 
BRANCH  22  25
ATOM     25  C   LIG    1        5.976   3.806  -2.713  0.00  0.00    +0.290 C 
ATOM     26  N   LIG    1        6.791   4.413  -2.205  0.00  0.00    -0.430 NA
ENDBRANCH  22  25
ENDBRANCH  15  24
ENDBRANCH   1  16
TORSDOF 5
