REMARK  Name = ZINCqH000000775h.0
REMARK                            x       y       z     vdW  Elec       q    Type
REMARK                         _______ _______ _______ _____ _____    ______ ____
ROOT
ATOM      1  C   LIG    1       -1.898  -1.890  -3.229  0.00  0.00    +0.160 C 
ATOM      2  N   LIG    1       -0.862  -1.494  -2.601  0.00  0.00    -0.240 NA
ATOM      3  N   LIG    1       -0.832  -0.858  -1.361  0.00  0.00    -0.570 N 
ATOM      4  H   LIG    1        0.014  -0.686  -0.918  0.00  0.00    +0.440 HD
ATOM      5  C   LIG    1       -2.025  -0.474  -0.769  0.00  0.00    +0.350 C 
ATOM      6  S   LIG    1       -3.382  -1.598  -0.969  0.00  0.00    -0.030 S 
ATOM      7  N   LIG    1       -2.142   0.650  -0.098  0.00  0.00    -0.450 NA
ATOM      8  C   LIG    1       -3.323  -1.738  -2.783  0.00  0.00    +0.160 C 
ENDROOT
BRANCH   1  12
ATOM      9  C   LIG    1       -1.253  -3.825  -6.954  0.00  0.00    +0.110 A 
ATOM     10  C   LIG    1       -0.172  -3.368  -6.214  0.00  0.00    -0.050 A 
ATOM     11  C   LIG    1       -0.377  -2.739  -5.005  0.00  0.00    +0.100 A 
ATOM     12  C   LIG    1       -1.675  -2.562  -4.522  0.00  0.00    -0.050 A 
ATOM     13  C   LIG    1       -2.763  -3.028  -5.266  0.00  0.00    +0.060 A 
ATOM     14  C   LIG    1       -2.549  -3.651  -6.479  0.00  0.00    +0.070 A 
ATOM     15  F   LIG    1       -3.599  -4.097  -7.202  0.00  0.00    -0.130 F 
BRANCH   9  17
ATOM     16  C   LIG    1        0.309  -4.589  -8.575  0.00  0.00    +0.250 C 
ATOM     17  O   LIG    1       -1.046  -4.444  -8.146  0.00  0.00    -0.310 OA
ENDBRANCH   9  17
ENDBRANCH   1  12
BRANCH   7  18
ATOM     18  C   LIG    1       -1.099   1.536  -0.059  0.00  0.00    +0.090 A 
ATOM     19  C   LIG    1       -0.618   1.999   1.167  0.00  0.00    +0.010 A 
ATOM     20  C   LIG    1        0.437   2.888   1.203  0.00  0.00    +0.040 A 
ATOM     21  C   LIG    1        1.018   3.327   0.028  0.00  0.00    -0.020 A 
ATOM     22  C   LIG    1        0.543   2.876  -1.198  0.00  0.00    +0.150 A 
ATOM     23  C   LIG    1       -0.516   1.983  -1.246  0.00  0.00    +0.010 A 
BRANCH  22  24
ATOM     24  N   LIG    1        1.134   3.324  -2.385  0.00  0.00    -0.680 N 
ATOM     25  H   LIG    1        2.090   3.482  -2.421  0.00  0.00    +0.410 HD
ATOM     26  C   LIG    1        0.374   3.535  -3.478  0.00  0.00    +0.510 C 
ATOM     27  O   LIG    1       -0.807   3.260  -3.459  0.00  0.00    -0.520 OA
ATOM     28  C   LIG    1        0.992   4.114  -4.725  0.00  0.00    +0.110 C 
ENDBRANCH  22  24
ENDBRANCH   7  18
TORSDOF 4
