REMARK  Name = ZINCrH000004tKic.0
REMARK                            x       y       z     vdW  Elec       q    Type
REMARK                         _______ _______ _______ _____ _____    ______ ____
ROOT
ATOM      1  O   LIG    1       -5.458   4.973   3.958  0.00  0.00    -0.510 OA
ATOM      2  C   LIG    1       -5.543   3.766   3.874  0.00  0.00    +0.520 C 
ATOM      3  N   LIG    1       -6.654   3.137   4.305  0.00  0.00    -0.660 N 
ATOM      4  H   LIG    1       -6.754   2.182   4.168  0.00  0.00    +0.420 HD
ENDROOT
BRANCH   3   5
ATOM      5  C   LIG    1       -7.662   3.861   4.951  0.00  0.00    +0.030 A 
ATOM      6  C   LIG    1       -9.000   3.498   4.813  0.00  0.00    +0.310 A 
ATOM      7  N   LIG    1       -9.925   4.202   5.442  0.00  0.00    -0.490 NA
ATOM      8  C   LIG    1       -9.593   5.247   6.186  0.00  0.00    +0.340 A 
ATOM      9  N   LIG    1       -8.331   5.625   6.336  0.00  0.00    -0.490 NA
ATOM     10  C   LIG    1       -7.352   4.965   5.742  0.00  0.00    +0.340 A 
BRANCH   8  11
ATOM     11  C   LIG    1      -10.662   6.015   6.870  0.00  0.00    -0.050 A 
ATOM     12  C   LIG    1      -10.336   7.114   7.663  0.00  0.00    +0.070 A 
ATOM     13  C   LIG    1      -11.335   7.828   8.293  0.00  0.00    +0.000 A 
ATOM     14  C   LIG    1      -12.657   7.448   8.148  0.00  0.00    +0.030 A 
ATOM     15  C   LIG    1      -12.986   6.354   7.367  0.00  0.00    +0.000 A 
ATOM     16  C   LIG    1      -11.996   5.636   6.728  0.00  0.00    +0.070 A 
ENDBRANCH   8  11
ENDBRANCH   3   5
BRANCH   2  17
ATOM     17  C   LIG    1       -4.406   2.970   3.286  0.00  0.00    +0.080 C 
BRANCH  17  18
ATOM     18  C   LIG    1       -3.276   3.919   2.879  0.00  0.00    +0.220 C 
BRANCH  18  19
ATOM     19  C   LIG    1       -2.140   3.123   2.291  0.00  0.00    +0.180 A 
ATOM     20  N   LIG    1       -1.975   2.812   1.028  0.00  0.00    -0.470 NA
ATOM     21  C   LIG    1       -0.836   2.100   0.976  0.00  0.00    +0.180 A 
ATOM     22  N   LIG    1       -0.369   2.022   2.186  0.00  0.00    -0.380 NA
ATOM     23  O   LIG    1       -1.104   2.604   2.957  0.00  0.00    +0.080 OA
BRANCH  21  24
ATOM     24  C   LIG    1       -0.210   1.506  -0.260  0.00  0.00    +0.100 C 
ATOM     25  C   LIG    1        1.253   1.990  -0.413  0.00  0.00    +0.020 C 
ATOM     26  C   LIG    1        1.889   0.882  -1.289  0.00  0.00    +0.020 C 
ATOM     27  C   LIG    1        1.245  -0.423  -0.776  0.00  0.00    +0.020 C 
ATOM     28  C   LIG    1       -0.090  -0.026  -0.122  0.00  0.00    +0.020 C 
ENDBRANCH  21  24
ENDBRANCH  18  19
ENDBRANCH  17  18
ENDBRANCH   2  17
TORSDOF 6
