REMARK  Name = ZINCqH0000037iEn.0
REMARK                            x       y       z     vdW  Elec       q    Type
REMARK                         _______ _______ _______ _____ _____    ______ ____
ROOT
ATOM      1  N   LIG    1        0.921   3.998   0.943  0.00  0.00    -0.740 N 
ATOM      2  H   LIG    1       -0.015   3.772   1.063  0.00  0.00    +0.400 HD
ATOM      3  C   LIG    1        1.763   3.108   0.380  0.00  0.00    +0.720 C 
ATOM      4  N   LIG    1        1.304   1.905  -0.018  0.00  0.00    -0.630 N 
ATOM      5  C   LIG    1       -0.105   1.472   0.007  0.00  0.00    +0.240 C 
ATOM      6  C   LIG    1       -0.043  -0.075   0.067  0.00  0.00    +0.040 C 
ATOM      7  C   LIG    1        1.177  -0.374  -0.843  0.00  0.00    +0.030 C 
ATOM      8  C   LIG    1        2.126   0.808  -0.549  0.00  0.00    +0.250 C 
ATOM      9  O   LIG    1        2.936   3.392   0.230  0.00  0.00    -0.580 OA
ENDROOT
BRANCH   1  10
ATOM     10  C   LIG    1        1.420   5.306   1.375  0.00  0.00    +0.340 C 
BRANCH  10  14
ATOM     11  C   LIG    1       -1.790   7.570   3.054  0.00  0.00    -0.080 A 
ATOM     12  C   LIG    1       -1.024   6.752   3.863  0.00  0.00    +0.020 A 
ATOM     13  C   LIG    1        0.015   6.019   3.320  0.00  0.00    +0.030 A 
ATOM     14  C   LIG    1        0.287   6.104   1.968  0.00  0.00    -0.110 A 
ATOM     15  C   LIG    1       -0.476   6.926   1.159  0.00  0.00    +0.030 A 
ATOM     16  C   LIG    1       -1.517   7.656   1.702  0.00  0.00    +0.040 A 
BRANCH  11  18
ATOM     17  C   LIG    1       -4.232   7.596   3.483  0.00  0.00    +0.020 C 
ATOM     18  C   LIG    1       -2.922   8.369   3.646  0.00  0.00    +0.210 C 
BRANCH  18  19
ATOM     19  O   LIG    1       -3.023   9.625   2.972  0.00  0.00    -0.560 OA
ATOM     20  H   LIG    1       -3.732  10.193   3.302  0.00  0.00    +0.380 HD
ENDBRANCH  18  19
ENDBRANCH  11  18
ENDBRANCH  10  14
ENDBRANCH   1  10
BRANCH   8  21
ATOM     21  C   LIG    1        2.821   1.250  -1.838  0.00  0.00    +0.070 C 
BRANCH  21  22
ATOM     22  C   LIG    1        3.725   0.148  -2.325  0.00  0.00    -0.050 A 
ATOM     23  C   LIG    1        5.010   0.036  -1.826  0.00  0.00    +0.010 A 
ATOM     24  C   LIG    1        5.839  -0.978  -2.268  0.00  0.00    +0.040 A 
ATOM     25  C   LIG    1        5.388  -1.875  -3.217  0.00  0.00    -0.030 A 
ATOM     26  C   LIG    1        4.103  -1.761  -3.722  0.00  0.00    +0.100 A 
ATOM     27  F   LIG    1        3.662  -2.638  -4.651  0.00  0.00    -0.140 F 
ATOM     28  C   LIG    1        3.272  -0.748  -3.275  0.00  0.00    -0.020 A 
ENDBRANCH  21  22
ENDBRANCH   8  21
TORSDOF 6
