REMARK  Name = ZINCrm000000InLg.1
REMARK                            x       y       z     vdW  Elec       q    Type
REMARK                         _______ _______ _______ _____ _____    ______ ____
ROOT
ATOM      1  C   LIG    1       -3.973  -0.689   1.214  0.00  0.00    -0.160 A 
ATOM      2  C   LIG    1       -2.935   0.223   1.214  0.00  0.00    +0.050 A 
ATOM      3  C   LIG    1       -2.422   0.686   0.017  0.00  0.00    -0.110 A 
ATOM      4  C   LIG    1       -2.950   0.241  -1.180  0.00  0.00    +0.070 A 
ATOM      5  C   LIG    1       -3.986  -0.675  -1.180  0.00  0.00    +0.030 A 
ATOM      6  C   LIG    1       -4.499  -1.138   0.017  0.00  0.00    +0.060 A 
ENDROOT
BRANCH   1   7
ATOM      7  C   LIG    1       -4.533  -1.194   2.520  0.00  0.00    +0.330 C 
BRANCH   7  12
ATOM      8  C   LIG    1       -7.962   2.260   5.359  0.00  0.00    +0.230 C 
ATOM      9  N   LIG    1       -6.892   1.377   4.876  0.00  0.00    -0.540 NA
ATOM     10  C   LIG    1       -7.406   0.027   4.604  0.00  0.00    +0.210 C 
ATOM     11  C   LIG    1       -6.252  -0.875   4.161  0.00  0.00    +0.280 C 
ATOM     12  N   LIG    1       -5.629  -0.318   2.954  0.00  0.00    -0.390 N 
ATOM     13  C   LIG    1       -5.099   1.020   3.248  0.00  0.00    +0.260 C 
ATOM     14  H   LIG    1       -6.318  -0.252   2.220  0.00  0.00    +0.420 HD
ATOM     15  C   LIG    1       -6.243   1.939   3.683  0.00  0.00    +0.210 C 
ENDBRANCH   7  12
ENDBRANCH   1   7
BRANCH   3  16
ATOM     16  C   LIG    1       -1.290   1.681   0.017  0.00  0.00    +0.330 C 
BRANCH  16  17
ATOM     17  N   LIG    1       -0.011   0.966   0.007  0.00  0.00    -0.740 N 
ATOM     18  H   LIG    1        0.002  -0.004   0.002  0.00  0.00    +0.400 HD
ATOM     19  C   LIG    1        1.147   1.655   0.000  0.00  0.00    +0.710 C 
ATOM     20  N   LIG    1        2.323   0.998  -0.015  0.00  0.00    -0.630 N 
ATOM     21  C   LIG    1        2.343  -0.467  -0.023  0.00  0.00    +0.280 C 
ATOM     22  O   LIG    1        1.130   2.871   0.007  0.00  0.00    -0.580 OA
BRANCH  20  23
ATOM     23  C   LIG    1        3.582   1.747  -0.023  0.00  0.00    +0.270 C 
ATOM     24  C   LIG    1        4.381   1.393  -1.280  0.00  0.00    +0.050 C 
ATOM     25  C   LIG    1        5.729   2.117  -1.242  0.00  0.00    +0.270 C 
ATOM     26  N   LIG    1        6.478   1.703  -0.050  0.00  0.00    -0.390 N 
ATOM     27  C   LIG    1        5.751   2.105   1.160  0.00  0.00    +0.270 C 
ATOM     28  C   LIG    1        7.801   2.342  -0.059  0.00  0.00    +0.330 C 
ATOM     29  H   LIG    1        6.590   0.700  -0.056  0.00  0.00    +0.420 HD
ATOM     30  C   LIG    1        4.404   1.380   1.215  0.00  0.00    +0.050 C 
ENDBRANCH  20  23
ENDBRANCH  16  17
ENDBRANCH   3  16
TORSDOF 5
