REMARK  Name = ZINCrm000000InLg.0
REMARK                            x       y       z     vdW  Elec       q    Type
REMARK                         _______ _______ _______ _____ _____    ______ ____
ROOT
ATOM      1  C   LIG    1        2.490   1.048  -0.016  0.00  0.00    +0.340 C 
ENDROOT
BRANCH   1   5
ATOM      2  C   LIG    1        3.596   0.429  -4.042  0.00  0.00    +0.280 C 
ATOM      3  N   LIG    1        4.437  -0.041  -2.939  0.00  0.00    -0.630 N 
ATOM      4  C   LIG    1        4.057   0.171  -1.663  0.00  0.00    +0.710 C 
ATOM      5  N   LIG    1        2.903   0.817  -1.403  0.00  0.00    -0.740 N 
ATOM      6  H   LIG    1        2.346   1.128  -2.133  0.00  0.00    +0.400 HD
ATOM      7  O   LIG    1        4.756  -0.220  -0.748  0.00  0.00    -0.580 OA
BRANCH   3   8
ATOM      8  C   LIG    1        5.692  -0.743  -3.223  0.00  0.00    +0.270 C 
ATOM      9  C   LIG    1        6.617   0.170  -4.033  0.00  0.00    +0.050 C 
ATOM     10  C   LIG    1        7.891  -0.597  -4.395  0.00  0.00    +0.270 C 
ATOM     11  N   LIG    1        7.546  -1.781  -5.191  0.00  0.00    -0.390 N 
ATOM     12  C   LIG    1        6.718  -2.694  -4.394  0.00  0.00    +0.270 C 
ATOM     13  C   LIG    1        8.777  -2.470  -5.600  0.00  0.00    +0.330 C 
ATOM     14  H   LIG    1        7.034  -1.495  -6.012  0.00  0.00    +0.420 HD
ATOM     15  C   LIG    1        5.399  -2.009  -4.033  0.00  0.00    +0.050 C 
ENDBRANCH   3   8
ENDBRANCH   1   5
BRANCH   1  16
ATOM     16  C   LIG    1        1.175   1.783   0.000  0.00  0.00    -0.110 A 
ATOM     17  C   LIG    1        1.157   3.165   0.008  0.00  0.00    +0.040 A 
ATOM     18  C   LIG    1       -0.050   3.840   0.022  0.00  0.00    +0.020 A 
ATOM     19  C   LIG    1       -1.238   3.133   0.030  0.00  0.00    +0.050 A 
ATOM     20  C   LIG    1       -1.219   1.750   0.017  0.00  0.00    -0.090 A 
ATOM     21  C   LIG    1       -0.013   1.076   0.008  0.00  0.00    +0.020 A 
BRANCH  20  22
ATOM     22  C   LIG    1       -2.514   0.979   0.019  0.00  0.00    +0.260 C 
BRANCH  22  23
ATOM     23  N   LIG    1       -2.928   0.721   1.405  0.00  0.00    -0.530 NA
ATOM     24  C   LIG    1       -1.986  -0.186   2.076  0.00  0.00    +0.200 C 
ATOM     25  C   LIG    1       -2.419  -0.381   3.530  0.00  0.00    +0.280 C 
ATOM     26  N   LIG    1       -3.776  -0.943   3.566  0.00  0.00    -0.390 N 
ATOM     27  C   LIG    1       -4.709  -0.015   2.914  0.00  0.00    +0.280 C 
ATOM     28  C   LIG    1       -4.184  -1.147   4.963  0.00  0.00    +0.320 C 
ATOM     29  H   LIG    1       -3.786  -1.827   3.080  0.00  0.00    +0.420 HD
ATOM     30  C   LIG    1       -4.295   0.184   1.454  0.00  0.00    +0.220 C 
ENDBRANCH  22  23
ENDBRANCH  20  22
ENDBRANCH   1  16
TORSDOF 5
