REMARK  Name = ZINCrD000000Aqlg.0
REMARK                            x       y       z     vdW  Elec       q    Type
REMARK                         _______ _______ _______ _____ _____    ______ ____
ROOT
ATOM      1  O   LIG    1       -2.213  -2.314   2.396  0.00  0.00    -0.440 OA
ATOM      2  C   LIG    1       -1.881  -2.517   1.248  0.00  0.00    +0.510 C 
ATOM      3  N   LIG    1       -1.502  -3.752   0.864  0.00  0.00    -0.640 N 
ATOM      4  H   LIG    1       -1.236  -3.914  -0.055  0.00  0.00    +0.410 HD
ENDROOT
BRANCH   3   5
ATOM      5  C   LIG    1       -1.490  -4.792   1.784  0.00  0.00    +0.440 A 
ATOM      6  N   LIG    1       -1.824  -4.701   3.049  0.00  0.00    -0.470 NA
ATOM      7  C   LIG    1       -1.691  -5.904   3.631  0.00  0.00    +0.170 A 
ATOM      8  C   LIG    1       -1.259  -6.776   2.704  0.00  0.00    +0.120 A 
ATOM      9  N   LIG    1       -1.134  -6.079   1.525  0.00  0.00    -0.470 N 
BRANCH   9  10
ATOM     10  C   LIG    1       -0.698  -6.620   0.236  0.00  0.00    +0.350 C 
BRANCH  10  11
ATOM     11  C   LIG    1        0.782  -6.388   0.069  0.00  0.00    -0.070 A 
ATOM     12  C   LIG    1        1.257  -5.231  -0.530  0.00  0.00    -0.030 A 
ATOM     13  C   LIG    1        2.621  -5.051  -0.660  0.00  0.00    +0.270 A 
ATOM     14  N   LIG    1        3.466  -5.968  -0.233  0.00  0.00    -0.480 NA
ATOM     15  C   LIG    1        3.051  -7.083   0.337  0.00  0.00    +0.270 A 
ATOM     16  C   LIG    1        1.702  -7.330   0.506  0.00  0.00    -0.010 A 
ENDBRANCH  10  11
ENDBRANCH   9  10
ENDBRANCH   3   5
BRANCH   2  17
ATOM     17  C   LIG    1       -1.894  -1.388   0.249  0.00  0.00    +0.230 C 
BRANCH  17  18
ATOM     18  O   LIG    1       -2.330  -0.189   0.892  0.00  0.00    -0.350 OA
BRANCH  18  19
ATOM     19  C   LIG    1       -2.476   0.924   0.007  0.00  0.00    +0.210 C 
ATOM     20  C   LIG    1       -3.879   0.906  -0.598  0.00  0.00    +0.010 C 
ATOM     21  C   LIG    1       -4.090   2.214  -1.370  0.00  0.00    +0.020 C 
ATOM     22  C   LIG    1       -4.196   3.354  -0.354  0.00  0.00    +0.080 C 
ATOM     23  C   LIG    1       -3.030   3.320   0.599  0.00  0.00    -0.060 A 
ATOM     24  C   LIG    1       -2.751   4.473   1.322  0.00  0.00    -0.010 A 
ATOM     25  C   LIG    1       -1.705   4.501   2.221  0.00  0.00    +0.010 A 
ATOM     26  C   LIG    1       -0.927   3.374   2.404  0.00  0.00    -0.010 A 
ATOM     27  C   LIG    1       -1.200   2.229   1.685  0.00  0.00    +0.030 A 
ATOM     28  C   LIG    1       -2.247   2.201   0.773  0.00  0.00    -0.090 A 
ENDBRANCH  18  19
ENDBRANCH  17  18
ENDBRANCH   2  17
TORSDOF 6
