REMARK  Name = ZINCpk00000KfLfu.0
REMARK                            x       y       z     vdW  Elec       q    Type
REMARK                         _______ _______ _______ _____ _____    ______ ____
ROOT
ATOM      1  N   LIG    1       -1.463   1.929   1.078  0.00  0.00    -0.540 NA
ENDROOT
BRANCH   1   2
ATOM      2  C   LIG    1       -0.910   1.926  -0.283  0.00  0.00    +0.480 C 
BRANCH   2  13
ATOM      3  O   LIG    1        1.499   3.197  -0.426  0.00  0.00    -0.500 OA
ATOM      4  C   LIG    1        1.529   1.982  -0.357  0.00  0.00    +0.530 A 
ATOM      5  C   LIG    1        2.804   1.248  -0.356  0.00  0.00    -0.150 A 
ATOM      6  C   LIG    1        4.029   1.908  -0.432  0.00  0.00    +0.100 A 
ATOM      7  C   LIG    1        5.197   1.177  -0.427  0.00  0.00    +0.040 A 
ATOM      8  C   LIG    1        5.161  -0.209  -0.348  0.00  0.00    +0.060 A 
ATOM      9  C   LIG    1        3.961  -0.880  -0.271  0.00  0.00    +0.080 A 
ATOM     10  C   LIG    1        2.764  -0.161  -0.274  0.00  0.00    +0.060 A 
ATOM     11  N   LIG    1        1.564  -0.789  -0.201  0.00  0.00    -0.200 NA
ATOM     12  N   LIG    1        0.456  -0.141  -0.203  0.00  0.00    +0.090 NA
ATOM     13  N   LIG    1        0.391   1.253  -0.280  0.00  0.00    -0.450 N 
ENDBRANCH   2  13
ENDBRANCH   1   2
BRANCH   1  14
ATOM     14  C   LIG    1       -2.100   0.643   1.391  0.00  0.00    +0.260 C 
BRANCH  14  15
ATOM     15  C   LIG    1       -3.232   0.379   0.395  0.00  0.00    +0.100 C 
ATOM     16  C   LIG    1       -3.747  -1.064   0.559  0.00  0.00    +0.010 C 
ATOM     17  C   LIG    1       -5.250  -0.895   0.891  0.00  0.00    +0.010 C 
ATOM     18  C   LIG    1       -5.542   0.530   0.357  0.00  0.00    +0.180 C 
ATOM     19  O   LIG    1       -4.335   1.260   0.665  0.00  0.00    -0.350 OA
ENDBRANCH  14  15
ENDBRANCH   1  14
BRANCH   1  20
ATOM     20  C   LIG    1       -2.405   3.042   1.261  0.00  0.00    +0.220 C 
BRANCH  20  21
ATOM     21  C   LIG    1       -2.671   3.245   2.754  0.00  0.00    +0.160 C 
ATOM     22  C   LIG    1       -3.504   4.523   2.968  0.00  0.00    +0.000 C 
ATOM     23  C   LIG    1       -4.778   4.028   3.696  0.00  0.00    +0.010 C 
ATOM     24  C   LIG    1       -4.307   2.676   4.290  0.00  0.00    +0.190 C 
ATOM     25  O   LIG    1       -3.437   2.143   3.268  0.00  0.00    -0.360 OA
ENDBRANCH  20  21
ENDBRANCH   1  20
TORSDOF 6
