REMARK  Name = ZINCpe000000UngJ.0
REMARK                            x       y       z     vdW  Elec       q    Type
REMARK                         _______ _______ _______ _____ _____    ______ ____
ROOT
ATOM      1  C   LIG    1        3.845   2.624   0.015  0.00  0.00    +0.290 C 
ATOM      2  N   LIG    1        3.673   4.048  -0.283  0.00  0.00    -0.610 N 
ATOM      3  C   LIG    1        2.466   4.517  -0.656  0.00  0.00    +0.580 C 
ATOM      4  O   LIG    1        2.344   5.678  -0.995  0.00  0.00    -0.530 OA
ENDROOT
BRANCH   2   5
ATOM      5  C   LIG    1        4.813   4.962  -0.175  0.00  0.00    +0.250 C 
ATOM      6  C   LIG    1        5.918   4.514  -1.134  0.00  0.00    +0.040 C 
ATOM      7  C   LIG    1        7.108   5.469  -1.022  0.00  0.00    +0.040 C 
ATOM      8  C   LIG    1        7.641   5.454   0.412  0.00  0.00    +0.160 C 
ATOM      9  C   LIG    1        6.536   5.901   1.371  0.00  0.00    +0.040 C 
ATOM     10  C   LIG    1        5.346   4.947   1.259  0.00  0.00    +0.040 C 
BRANCH   8  11
ATOM     11  N   LIG    1        8.784   6.370   0.520  0.00  0.00    -0.640 N 
ATOM     12  H   LIG    1        8.489   7.305   0.281  0.00  0.00    +0.430 HD
ATOM     13  H   LIG    1        9.512   6.075  -0.112  0.00  0.00    +0.440 HD
ATOM     14  H   LIG    1        9.135   6.360   1.466  0.00  0.00    +0.440 HD
ENDBRANCH   8  11
ENDBRANCH   2   5
BRANCH   3  15
ATOM     15  C   LIG    1        1.291   3.620  -0.653  0.00  0.00    -0.140 A 
ATOM     16  C   LIG    1        1.417   2.300  -1.092  0.00  0.00    +0.010 A 
ATOM     17  C   LIG    1        0.318   1.465  -1.089  0.00  0.00    +0.010 A 
ATOM     18  C   LIG    1       -0.910   1.931  -0.658  0.00  0.00    +0.050 A 
ATOM     19  C   LIG    1       -1.044   3.241  -0.214  0.00  0.00    +0.200 A 
ATOM     20  C   LIG    1        0.053   4.089  -0.213  0.00  0.00    +0.070 A 
BRANCH  19  21
ATOM     21  N   LIG    1       -2.287   3.707   0.226  0.00  0.00    -0.360 N 
ATOM     22  N   LIG    1       -3.423   3.483  -0.557  0.00  0.00    -0.480 NA
ATOM     23  C   LIG    1       -4.635   3.915  -0.157  0.00  0.00    +0.440 A 
ATOM     24  C   LIG    1       -4.774   4.645   1.119  0.00  0.00    -0.020 A 
ATOM     25  C   LIG    1       -3.679   4.864   1.871  0.00  0.00    -0.050 A 
ATOM     26  O   LIG    1       -5.612   3.708  -0.849  0.00  0.00    -0.620 OA
ATOM     27  C   LIG    1       -2.372   4.368   1.396  0.00  0.00    +0.490 A 
ATOM     28  O   LIG    1       -1.372   4.557   2.061  0.00  0.00    -0.590 OA
ENDBRANCH  19  21
ENDBRANCH   3  15
TORSDOF 4
