REMARK  Name = ZINCrD00000745pS.0
REMARK                            x       y       z     vdW  Elec       q    Type
REMARK                         _______ _______ _______ _____ _____    ______ ____
ROOT
ATOM      1  C   LIG    1       -0.018   1.502   0.013  0.00  0.00    +0.510 C 
ATOM      2  N   LIG    1       -1.195   2.161   0.019  0.00  0.00    -0.660 N 
ATOM      3  H   LIG    1       -2.027   1.668  -0.055  0.00  0.00    +0.420 HD
ATOM      4  O   LIG    1        1.024   2.123   0.003  0.00  0.00    -0.510 OA
ENDROOT
BRANCH   2   5
ATOM      5  C   LIG    1       -1.215   3.558   0.133  0.00  0.00    +0.170 A 
ATOM      6  C   LIG    1       -0.162   4.218   0.735  0.00  0.00    +0.100 A 
ATOM      7  C   LIG    1       -0.184   5.612   0.842  0.00  0.00    -0.120 A 
ATOM      8  C   LIG    1       -1.276   6.331   0.350  0.00  0.00    +0.030 A 
ATOM      9  C   LIG    1       -2.327   5.668  -0.245  0.00  0.00    +0.000 A 
ATOM     10  C   LIG    1       -2.305   4.283  -0.357  0.00  0.00    +0.080 A 
BRANCH   7  11
ATOM     11  C   LIG    1        0.941   6.322   1.480  0.00  0.00    +0.560 C 
ATOM     12  O   LIG    1        1.891   5.695   1.907  0.00  0.00    -0.530 OA
ATOM     13  N   LIG    1        0.916   7.665   1.587  0.00  0.00    -0.850 N 
ATOM     14  H   LIG    1        1.656   8.132   2.007  0.00  0.00    +0.410 HD
ATOM     15  H   LIG    1        0.158   8.165   1.246  0.00  0.00    +0.400 HD
ENDBRANCH   7  11
BRANCH  10  16
ATOM     16  N   LIG    1       -3.370   3.617  -0.959  0.00  0.00    -0.510 N 
ATOM     17  C   LIG    1       -3.491   3.990  -2.375  0.00  0.00    +0.220 C 
ATOM     18  C   LIG    1       -4.624   3.871  -0.238  0.00  0.00    +0.210 C 
ENDBRANCH  10  16
ENDBRANCH   2   5
BRANCH   1  19
ATOM     19  C   LIG    1        0.002  -0.004   0.013  0.00  0.00    +0.080 C 
BRANCH  19  21
ATOM     20  C   LIG    1        2.143  -0.081   1.299  0.00  0.00    +0.060 C 
ATOM     21  C   LIG    1        1.451  -0.495  -0.001  0.00  0.00    -0.010 C 
BRANCH  21  22
ATOM     22  C   LIG    1        1.472  -1.997  -0.125  0.00  0.00    +0.400 C 
ATOM     23  O   LIG    1        0.520  -2.649   0.249  0.00  0.00    -0.450 OA
BRANCH  22  24
ATOM     24  C   LIG    1        2.645  -2.671  -0.700  0.00  0.00    -0.170 A 
ATOM     25  C   LIG    1        3.742  -1.921  -1.138  0.00  0.00    +0.090 A 
ATOM     26  C   LIG    1        4.841  -2.561  -1.671  0.00  0.00    +0.020 A 
ATOM     27  C   LIG    1        4.856  -3.942  -1.783  0.00  0.00    -0.000 A 
ATOM     28  C   LIG    1        3.771  -4.690  -1.356  0.00  0.00    +0.020 A 
ATOM     29 CL   LIG    1        6.241  -4.737  -2.463  0.00  0.00    -0.060 Cl
ATOM     30  C   LIG    1        2.668  -4.065  -0.817  0.00  0.00    +0.090 A 
ENDBRANCH  22  24
ENDBRANCH  21  22
ENDBRANCH  19  21
ENDBRANCH   1  19
TORSDOF 7
