REMARK  Name = ZINCrD000000CO2J.0
REMARK                            x       y       z     vdW  Elec       q    Type
REMARK                         _______ _______ _______ _____ _____    ______ ____
ROOT
ATOM      1  C   LIG    1       -6.013   2.885   0.469  0.00  0.00    +0.230 C 
ENDROOT
BRANCH   1   2
ATOM      2  O   LIG    1       -4.855   3.610   0.051  0.00  0.00    -0.310 OA
BRANCH   2   9
ATOM      3  O   LIG    1        2.152   0.912  -0.059  0.00  0.00    -0.530 OA
ATOM      4  C   LIG    1        1.108   1.529  -0.029  0.00  0.00    +0.520 C 
ATOM      5  C   LIG    1        1.133   3.033  -0.007  0.00  0.00    +0.080 C 
ATOM      6  C   LIG    1       -0.049   3.586  -0.804  0.00  0.00    +0.110 C 
ATOM      7  C   LIG    1       -1.315   2.890  -0.376  0.00  0.00    -0.080 A 
ATOM      8  C   LIG    1       -2.512   3.577  -0.360  0.00  0.00    +0.030 A 
ATOM      9  C   LIG    1       -3.676   2.933   0.035  0.00  0.00    +0.110 A 
ATOM     10  C   LIG    1       -3.637   1.599   0.414  0.00  0.00    -0.050 A 
ATOM     11  C   LIG    1       -2.439   0.911   0.398  0.00  0.00    +0.020 A 
ATOM     12  C   LIG    1       -1.275   1.554  -0.002  0.00  0.00    +0.120 A 
ATOM     13  N   LIG    1       -0.059   0.860  -0.015  0.00  0.00    -0.660 N 
ATOM     14  H   LIG    1       -0.059  -0.110  -0.017  0.00  0.00    +0.410 HD
ENDBRANCH   2   9
ENDBRANCH   1   2
BRANCH   1  15
ATOM     15  C   LIG    1       -7.235   3.805   0.422  0.00  0.00    +0.260 C 
BRANCH  15  16
ATOM     16  O   LIG    1       -7.498   4.191  -0.953  0.00  0.00    -0.340 OA
BRANCH  16  17
ATOM     17  C   LIG    1       -8.548   5.007  -1.169  0.00  0.00    +0.520 C 
ATOM     18  O   LIG    1       -9.226   5.385  -0.234  0.00  0.00    -0.490 OA
BRANCH  17  19
ATOM     19  C   LIG    1       -8.876   5.441  -2.543  0.00  0.00    -0.070 A 
ATOM     20  C   LIG    1       -8.050   5.122  -3.613  0.00  0.00    +0.060 A 
ATOM     21  C   LIG    1       -8.392   5.545  -4.895  0.00  0.00    +0.290 A 
ATOM     22  N   LIG    1       -9.473   6.248  -5.127  0.00  0.00    -0.440 NA
ATOM     23  C   LIG    1      -10.311   6.596  -4.147  0.00  0.00    +0.120 A 
ATOM     24  C   LIG    1      -11.466   7.352  -4.416  0.00  0.00    +0.050 A 
ATOM     25  C   LIG    1      -12.302   7.693  -3.398  0.00  0.00    +0.030 A 
ATOM     26  C   LIG    1      -12.034   7.306  -2.087  0.00  0.00    +0.030 A 
ATOM     27  C   LIG    1      -10.924   6.573  -1.789  0.00  0.00    +0.060 A 
ATOM     28  C   LIG    1      -10.042   6.204  -2.812  0.00  0.00    -0.060 A 
ENDBRANCH  17  19
ENDBRANCH  16  17
ENDBRANCH  15  16
ENDBRANCH   1  15
TORSDOF 6
