REMARK  Name = ZINCnE000001KCJi.0
REMARK                            x       y       z     vdW  Elec       q    Type
REMARK                         _______ _______ _______ _____ _____    ______ ____
ROOT
ATOM      1  N   LIG    1       -1.089   2.149   0.019  0.00  0.00    -0.680 NA
ATOM      2  C   LIG    1       -0.017   1.367   0.010  0.00  0.00    +0.380 A 
ATOM      3  N   LIG    1        0.002  -0.004   0.002  0.00  0.00    -0.360 NA
ATOM      4  N   LIG    1        1.337  -0.422  -0.013  0.00  0.00    -0.360 N 
ATOM      5  C   LIG    1        2.154   0.648  -0.015  0.00  0.00    +0.260 A 
ATOM      6  C   LIG    1        1.388   1.798  -0.002  0.00  0.00    -0.230 A 
ENDROOT
BRANCH   4   7
ATOM      7  C   LIG    1        1.780  -1.819  -0.024  0.00  0.00    +0.180 C 
ATOM      8  C   LIG    1        2.633  -2.093   1.216  0.00  0.00    +0.030 C 
ATOM      9  C   LIG    1        2.610  -2.080  -1.283  0.00  0.00    +0.030 C 
ATOM     10  C   LIG    1        0.559  -2.741  -0.018  0.00  0.00    +0.070 C 
ENDBRANCH   4   7
BRANCH   1  11
ATOM     11  C   LIG    1       -2.313   1.607   0.023  0.00  0.00    +0.490 C 
ATOM     12  O   LIG    1       -2.442   0.395   0.017  0.00  0.00    -0.590 OA
BRANCH  11  15
ATOM     13  C   LIG    1       -5.900   2.737   0.048  0.00  0.00    +0.120 A 
ATOM     14  C   LIG    1       -4.785   1.916   0.037  0.00  0.00    -0.020 A 
ATOM     15  C   LIG    1       -3.509   2.479   0.033  0.00  0.00    -0.030 A 
ATOM     16  C   LIG    1       -3.364   3.866   0.046  0.00  0.00    +0.060 A 
ATOM     17  C   LIG    1       -4.480   4.677   0.051  0.00  0.00    +0.050 A 
ATOM     18  C   LIG    1       -5.746   4.118   0.054  0.00  0.00    -0.070 A 
ATOM     19 CL   LIG    1       -7.145   5.145   0.068  0.00  0.00    -0.080 Cl
BRANCH  13  21
ATOM     20  C   LIG    1       -7.229   0.765   0.043  0.00  0.00    +0.250 C 
ATOM     21  O   LIG    1       -7.145   2.192   0.051  0.00  0.00    -0.310 OA
ENDBRANCH  13  21
ENDBRANCH  11  15
ENDBRANCH   1  11
BRANCH   6  22
ATOM     22  C   LIG    1        1.869   3.147   0.001  0.00  0.00    +0.330 C 
ATOM     23  N   LIG    1        2.251   4.216   0.003  0.00  0.00    -0.500 NA
ENDBRANCH   6  22
TORSDOF 5
