REMARK  Name = ZINCvU0000000DRi.0
REMARK                            x       y       z     vdW  Elec       q    Type
REMARK                         _______ _______ _______ _____ _____    ______ ____
ROOT
ATOM      1  C   LIG    1       -1.257   5.413  -1.636  0.00  0.00    +0.140 C 
ATOM      2  C   LIG    1       -1.127   4.209  -0.739  0.00  0.00    +0.210 C 
ATOM      3  C   LIG    1        0.094   3.838  -0.299  0.00  0.00    -0.290 C 
ATOM      4  C   LIG    1        0.180   2.622   0.601  0.00  0.00    +0.340 C 
ATOM      5  N   LIG    1       -1.085   1.940   0.924  0.00  0.00    -0.710 N 
ATOM      6  H   LIG    1       -1.094   1.156   1.495  0.00  0.00    +0.430 HD
ATOM      7  C   LIG    1       -2.228   2.428   0.404  0.00  0.00    +0.710 C 
ATOM      8  O   LIG    1       -3.277   1.870   0.661  0.00  0.00    -0.560 OA
ATOM      9  N   LIG    1       -2.247   3.512  -0.383  0.00  0.00    -0.650 N 
ATOM     10  H   LIG    1       -3.103   3.816  -0.723  0.00  0.00    +0.430 HD
ENDROOT
BRANCH   4  11
ATOM     11  C   LIG    1        1.092   1.620  -0.059  0.00  0.00    -0.120 A 
ATOM     12  C   LIG    1        0.621   0.833  -1.094  0.00  0.00    +0.030 A 
ATOM     13  C   LIG    1        1.458  -0.083  -1.702  0.00  0.00    +0.010 A 
ATOM     14  C   LIG    1        2.765  -0.219  -1.270  0.00  0.00    -0.060 A 
ATOM     15  C   LIG    1        3.234   0.565  -0.233  0.00  0.00    +0.010 A 
ATOM     16  C   LIG    1        2.398   1.484   0.373  0.00  0.00    +0.020 A 
BRANCH  14  17
ATOM     17  C   LIG    1        3.676  -1.221  -1.930  0.00  0.00    -0.030 C 
ATOM     18  C   LIG    1        4.882  -0.495  -2.531  0.00  0.00    +0.040 C 
ATOM     19  C   LIG    1        2.915  -1.950  -3.038  0.00  0.00    +0.030 C 
ATOM     20  C   LIG    1        4.158  -2.234  -0.890  0.00  0.00    +0.040 C 
ENDBRANCH  14  17
ENDBRANCH   4  11
BRANCH   3  21
ATOM     21  C   LIG    1        1.256   4.561  -0.667  0.00  0.00    +0.610 C 
ATOM     22  N   LIG    1        1.852   4.321  -1.851  0.00  0.00    -0.670 N 
ATOM     23  H   LIG    1        1.545   3.590  -2.410  0.00  0.00    +0.410 HD
ATOM     24  O   LIG    1        1.715   5.398   0.088  0.00  0.00    -0.500 OA
BRANCH  22  25
ATOM     25  C   LIG    1        2.913   5.127  -2.275  0.00  0.00    +0.200 A 
ATOM     26  C   LIG    1        3.757   5.714  -1.342  0.00  0.00    +0.030 A 
ATOM     27  C   LIG    1        4.805   6.509  -1.764  0.00  0.00    +0.070 A 
ATOM     28  C   LIG    1        5.013   6.721  -3.115  0.00  0.00    +0.000 A 
ATOM     29  C   LIG    1        4.174   6.138  -4.047  0.00  0.00    +0.090 A 
ATOM     30  C   LIG    1        3.129   5.337  -3.631  0.00  0.00    -0.220 A 
BRANCH  30  31
ATOM     31  C   LIG    1        2.220   4.696  -4.648  0.00  0.00    +0.510 C 
ATOM     32  F   LIG    1        0.897   5.074  -4.394  0.00  0.00    -0.180 F 
ATOM     33  F   LIG    1        2.332   3.304  -4.563  0.00  0.00    -0.180 F 
ATOM     34  F   LIG    1        2.586   5.116  -5.931  0.00  0.00    -0.170 F 
ENDBRANCH  30  31
ENDBRANCH  22  25
ENDBRANCH   3  21
TORSDOF 5
