REMARK  Name = ZINCkj00000GeSxn.1
REMARK                            x       y       z     vdW  Elec       q    Type
REMARK                         _______ _______ _______ _____ _____    ______ ____
ROOT
ATOM      1  C   LIG    1        4.005   3.346   2.115  0.00  0.00    +0.080 C 
ATOM      2  C   LIG    1        2.681   3.013   2.805  0.00  0.00    +0.140 C 
ATOM      3  C   LIG    1        2.746   3.445   4.272  0.00  0.00    +0.280 C 
ATOM      4  N   LIG    1        1.468   3.143   4.929  0.00  0.00    -0.390 N 
ATOM      5  C   LIG    1        0.387   3.883   4.264  0.00  0.00    +0.180 C 
ATOM      6  C   LIG    1        0.302   3.454   2.798  0.00  0.00    +0.140 C 
ATOM      7  C   LIG    1       -0.810   4.240   2.100  0.00  0.00    +0.080 C 
ATOM      8  C   LIG    1       -0.941   3.581   4.962  0.00  0.00    +0.090 C 
ATOM      9  C   LIG    1        1.537   3.541   6.341  0.00  0.00    +0.320 C 
ATOM     10  H   LIG    1        1.284   2.152   4.868  0.00  0.00    +0.420 HD
ATOM     11  N   LIG    1        1.585   3.727   2.136  0.00  0.00    -0.510 NA
ENDROOT
BRANCH  11  12
ATOM     12  C   LIG    1        1.526   3.381   0.709  0.00  0.00    +0.370 C 
BRANCH  12  13
ATOM     13  C   LIG    1        1.206   1.916   0.561  0.00  0.00    +0.140 A 
ATOM     14  N   LIG    1        1.113   1.034   1.525  0.00  0.00    -0.330 NA
ATOM     15  N   LIG    1        0.825  -0.105   0.996  0.00  0.00    -0.070 NA
ATOM     16  N   LIG    1        0.733   0.028  -0.281  0.00  0.00    -0.070 NA
ATOM     17  N   LIG    1        0.961   1.260  -0.588  0.00  0.00    -0.280 N 
BRANCH  17  18
ATOM     18  C   LIG    1        0.953   1.836  -1.935  0.00  0.00    +0.160 C 
ATOM     19  C   LIG    1        2.305   2.494  -2.216  0.00  0.00    +0.070 C 
ATOM     20  C   LIG    1       -0.155   2.885  -2.035  0.00  0.00    +0.070 C 
ATOM     21  C   LIG    1        0.702   0.729  -2.962  0.00  0.00    +0.100 C 
ENDBRANCH  17  18
ENDBRANCH  12  13
ENDBRANCH  11  12
TORSDOF 3
