REMARK  Name = ZINCkj00000GeSxn.0
REMARK                            x       y       z     vdW  Elec       q    Type
REMARK                         _______ _______ _______ _____ _____    ______ ____
ROOT
ATOM      1  C   LIG    1        0.757   2.602   1.462  0.00  0.00    +0.080 C 
ATOM      2  C   LIG    1        1.095   4.092   1.391  0.00  0.00    +0.140 C 
ATOM      3  C   LIG    1        1.360   4.623   2.802  0.00  0.00    +0.280 C 
ATOM      4  N   LIG    1        1.704   6.049   2.732  0.00  0.00    -0.380 N 
ATOM      5  C   LIG    1        2.919   6.222   1.924  0.00  0.00    +0.180 C 
ATOM      6  C   LIG    1        2.667   5.704   0.506  0.00  0.00    +0.140 C 
ATOM      7  C   LIG    1        3.939   5.865  -0.329  0.00  0.00    +0.080 C 
ATOM      8  C   LIG    1        3.287   7.706   1.867  0.00  0.00    +0.090 C 
ATOM      9  C   LIG    1        0.597   6.790   2.114  0.00  0.00    +0.310 C 
ATOM     10  H   LIG    1        1.867   6.402   3.663  0.00  0.00    +0.430 HD
ATOM     11  N   LIG    1        2.296   4.283   0.566  0.00  0.00    -0.500 NA
ENDROOT
BRANCH  11  12
ATOM     12  C   LIG    1        2.100   3.734  -0.783  0.00  0.00    +0.370 C 
BRANCH  12  13
ATOM     13  C   LIG    1        0.988   4.479  -1.473  0.00  0.00    +0.140 A 
ATOM     14  N   LIG    1        0.275   5.460  -0.974  0.00  0.00    -0.330 NA
ATOM     15  N   LIG    1       -0.574   5.831  -1.869  0.00  0.00    -0.070 NA
ATOM     16  N   LIG    1       -0.421   5.113  -2.927  0.00  0.00    -0.070 NA
ATOM     17  N   LIG    1        0.532   4.268  -2.722  0.00  0.00    -0.280 N 
BRANCH  17  18
ATOM     18  C   LIG    1        1.023   3.263  -3.668  0.00  0.00    +0.160 C 
ATOM     19  C   LIG    1        0.795   1.865  -3.091  0.00  0.00    +0.070 C 
ATOM     20  C   LIG    1        2.518   3.478  -3.911  0.00  0.00    +0.070 C 
ATOM     21  C   LIG    1        0.267   3.397  -4.992  0.00  0.00    +0.100 C 
ENDBRANCH  17  18
ENDBRANCH  12  13
ENDBRANCH  11  12
TORSDOF 3
