REMARK  Name = ZINCrH000004jlvb.0
REMARK                            x       y       z     vdW  Elec       q    Type
REMARK                         _______ _______ _______ _____ _____    ______ ____
ROOT
ATOM      1  C   LIG    1        2.756  -1.260   0.599  0.00  0.00    +0.570 C 
ATOM      2  N   LIG    1        1.975  -0.226   0.967  0.00  0.00    -0.580 N 
ATOM      3  C   LIG    1        0.570  -0.471   1.205  0.00  0.00    +0.290 C 
ATOM      4  C   LIG    1       -0.223  -0.254  -0.108  0.00  0.00    +0.040 C 
ATOM      5  C   LIG    1       -0.231   1.181  -0.454  0.00  0.00    +0.180 C 
ATOM      6  N   LIG    1        1.093   1.747  -0.711  0.00  0.00    -0.490 N 
ATOM      7  C   LIG    1        1.696   2.214   0.520  0.00  0.00    +0.190 C 
ATOM      8  C   LIG    1        2.593   1.109   1.110  0.00  0.00    +0.270 C 
ATOM      9  O   LIG    1        2.293  -2.383   0.546  0.00  0.00    -0.520 OA
ENDROOT
BRANCH   1  16
ATOM     10  C   LIG    1        7.470   0.677   1.215  0.00  0.00    +0.070 A 
ATOM     11  N   LIG    1        8.427   0.418   0.375  0.00  0.00    -0.310 NA
ATOM     12  O   LIG    1        8.090  -0.304  -0.534  0.00  0.00    +0.090 OA
ATOM     13  C   LIG    1        6.799  -0.672  -0.463  0.00  0.00    +0.230 A 
ATOM     14  N   LIG    1        5.999  -1.427  -1.199  0.00  0.00    -0.460 NA
ATOM     15  C   LIG    1        4.740  -1.623  -0.875  0.00  0.00    +0.400 A 
ATOM     16  C   LIG    1        4.176  -1.031   0.261  0.00  0.00    -0.190 A 
ATOM     17  C   LIG    1        4.978  -0.223   1.074  0.00  0.00    +0.180 A 
ATOM     18  C   LIG    1        6.302  -0.046   0.702  0.00  0.00    -0.220 A 
BRANCH  10  20
ATOM     19  C   LIG    1        7.942   0.671   3.650  0.00  0.00    +0.040 C 
ATOM     20  C   LIG    1        7.544   1.536   2.452  0.00  0.00    +0.130 C 
ENDBRANCH  10  20
ENDBRANCH   1  16
BRANCH   6  21
ATOM     21  C   LIG    1        1.024   2.774  -1.656  0.00  0.00    +0.100 A 
ATOM     22  C   LIG    1        1.521   2.576  -2.937  0.00  0.00    +0.060 A 
ATOM     23  C   LIG    1        1.451   3.594  -3.869  0.00  0.00    +0.020 A 
ATOM     24  C   LIG    1        0.887   4.809  -3.527  0.00  0.00    +0.020 A 
ATOM     25  C   LIG    1        0.390   5.010  -2.252  0.00  0.00    +0.030 A 
ATOM     26  C   LIG    1        0.452   3.995  -1.317  0.00  0.00    -0.070 A 
ATOM     27 CL   LIG    1       -0.178   4.246   0.281  0.00  0.00    -0.070 Cl
ENDBRANCH   6  21
TORSDOF 3
