REMARK  Name = ZINCrH000004k3iJ.0
REMARK                            x       y       z     vdW  Elec       q    Type
REMARK                         _______ _______ _______ _____ _____    ______ ____
ROOT
ATOM      1  N   LIG    1       -1.713   4.118   0.708  0.00  0.00    -0.670 N 
ATOM      2  H   LIG    1       -0.756   3.991   0.801  0.00  0.00    +0.410 HD
ATOM      3  C   LIG    1       -2.203   5.326   0.366  0.00  0.00    +0.610 C 
ATOM      4  O   LIG    1       -3.406   5.512   0.347  0.00  0.00    -0.480 OA
ENDROOT
BRANCH   1  10
ATOM      5  C   LIG    1       -2.200   1.987   1.752  0.00  0.00    +0.110 A 
ATOM      6  C   LIG    1       -3.068   0.926   1.964  0.00  0.00    +0.050 A 
ATOM      7  C   LIG    1       -4.316   0.924   1.369  0.00  0.00    +0.010 A 
ATOM      8  C   LIG    1       -4.699   1.974   0.554  0.00  0.00    +0.040 A 
ATOM      9  C   LIG    1       -3.838   3.033   0.333  0.00  0.00    +0.030 A 
ATOM     10  C   LIG    1       -2.587   3.045   0.930  0.00  0.00    +0.140 A 
BRANCH   5  12
ATOM     11  C   LIG    1        0.182   1.297   1.720  0.00  0.00    +0.320 C 
ATOM     12  N   LIG    1       -0.939   1.992   2.357  0.00  0.00    -0.960 N 
BRANCH  12  13
ATOM     13  S   LIG    1       -0.713   2.785   3.793  0.00  0.00    +2.600 S 
ATOM     14  O   LIG    1        0.384   2.112   4.397  0.00  0.00    -0.940 OA
ATOM     15  O   LIG    1       -1.997   2.784   4.400  0.00  0.00    -0.940 OA
ATOM     16  C   LIG    1       -0.238   4.469   3.311  0.00  0.00    -0.290 C 
ENDBRANCH  12  13
ENDBRANCH   5  12
ENDBRANCH   1  10
BRANCH   3  17
ATOM     17  C   LIG    1       -1.288   6.414   0.016  0.00  0.00    -0.090 A 
ATOM     18  C   LIG    1       -1.653   7.692  -0.351  0.00  0.00    +0.070 A 
ATOM     19  C   LIG    1       -0.469   8.395  -0.594  0.00  0.00    -0.020 A 
ATOM     20  C   LIG    1        0.565   7.532  -0.370  0.00  0.00    +0.070 A 
ATOM     21  O   LIG    1        0.060   6.343   0.002  0.00  0.00    -0.150 OA
BRANCH  20  22
ATOM     22  C   LIG    1        2.000   7.852  -0.507  0.00  0.00    -0.070 A 
ATOM     23  C   LIG    1        2.474   8.463  -1.669  0.00  0.00    +0.080 A 
ATOM     24  C   LIG    1        3.814   8.766  -1.788  0.00  0.00    +0.010 A 
ATOM     25  C   LIG    1        4.692   8.455  -0.764  0.00  0.00    +0.070 A 
ATOM     26  C   LIG    1        4.232   7.845   0.389  0.00  0.00    -0.010 A 
ATOM     27  C   LIG    1        2.891   7.541   0.525  0.00  0.00    +0.120 A 
ATOM     28  F   LIG    1        2.442   6.945   1.652  0.00  0.00    -0.130 F 
ENDBRANCH  20  22
ENDBRANCH   3  17
TORSDOF 5
