REMARK  Name = ZINCrD00000hQ68V.0
REMARK                            x       y       z     vdW  Elec       q    Type
REMARK                         _______ _______ _______ _____ _____    ______ ____
ROOT
ATOM      1  C   LIG    1        2.289   0.688  -0.599  0.00  0.00    +0.270 C 
ATOM      2  C   LIG    1        1.399  -0.542  -0.874  0.00  0.00    +0.020 C 
ATOM      3  C   LIG    1        0.118  -0.276  -0.045  0.00  0.00    +0.020 C 
ATOM      4  C   LIG    1       -0.085   1.250  -0.208  0.00  0.00    +0.020 C 
ATOM      5  C   LIG    1        1.346   1.827  -0.175  0.00  0.00    +0.020 C 
ENDROOT
BRANCH   1   8
ATOM      6  N   LIG    1        4.880   2.023  -2.840  0.00  0.00    -0.630 N 
ATOM      7  C   LIG    1        4.212   1.677  -1.722  0.00  0.00    +0.710 C 
ATOM      8  N   LIG    1        3.015   1.063  -1.814  0.00  0.00    -0.740 N 
ATOM      9  H   LIG    1        2.636   0.870  -2.686  0.00  0.00    +0.390 HD
ATOM     10  O   LIG    1        4.688   1.920  -0.629  0.00  0.00    -0.570 OA
ATOM     11  C   LIG    1        4.306   1.731  -4.156  0.00  0.00    +0.270 C 
BRANCH   6  12
ATOM     12  C   LIG    1        6.180   2.691  -2.739  0.00  0.00    +0.420 C 
BRANCH  12  16
ATOM     13  C   LIG    1        9.841  -0.473  -4.039  0.00  0.00    +0.370 C 
ATOM     14  N   LIG    1        8.857   0.288  -3.265  0.00  0.00    -0.300 N 
ATOM     15  C   LIG    1        7.990   1.200  -3.763  0.00  0.00    +0.150 A 
ATOM     16  C   LIG    1        7.275   1.656  -2.707  0.00  0.00    -0.040 A 
ATOM     17  N   LIG    1        7.728   1.003  -1.631  0.00  0.00    -0.240 NA
ATOM     18  N   LIG    1        8.665   0.200  -1.995  0.00  0.00    -0.090 NA
ENDBRANCH  12  16
ENDBRANCH   6  12
ENDBRANCH   1   8
BRANCH   5  19
ATOM     19  C   LIG    1        1.460   2.978  -1.141  0.00  0.00    -0.050 A 
ATOM     20  C   LIG    1        1.063   2.820  -2.455  0.00  0.00    +0.050 A 
ATOM     21  C   LIG    1        1.164   3.877  -3.341  0.00  0.00    +0.010 A 
ATOM     22  C   LIG    1        1.671   5.090  -2.914  0.00  0.00    +0.050 A 
ATOM     23  C   LIG    1        2.073   5.247  -1.600  0.00  0.00    -0.180 A 
ATOM     24  C   LIG    1        1.968   4.191  -0.714  0.00  0.00    +0.070 A 
BRANCH  23  25
ATOM     25  C   LIG    1        2.626   6.569  -1.135  0.00  0.00    +0.510 C 
ATOM     26  F   LIG    1        2.330   6.747   0.221  0.00  0.00    -0.180 F 
ATOM     27  F   LIG    1        2.047   7.604  -1.877  0.00  0.00    -0.180 F 
ATOM     28  F   LIG    1        4.013   6.585  -1.316  0.00  0.00    -0.180 F 
ENDBRANCH  23  25
ENDBRANCH   5  19
TORSDOF 5
