REMARK  Name = ZINCrD00000l7718.1
REMARK                            x       y       z     vdW  Elec       q    Type
REMARK                         _______ _______ _______ _____ _____    ______ ____
ROOT
ATOM      1  C   LIG    1       -2.651   2.319   2.273  0.00  0.00    +0.520 A 
ATOM      2  N   LIG    1       -2.006   1.873   1.205  0.00  0.00    -0.530 NA
ATOM      3  C   LIG    1       -0.721   1.563   1.251  0.00  0.00    +0.280 A 
ATOM      4  C   LIG    1       -0.012   1.716   2.444  0.00  0.00    -0.340 A 
ATOM      5  C   LIG    1       -0.704   2.201   3.588  0.00  0.00    +0.550 A 
ATOM      6  O   LIG    1       -0.126   2.350   4.649  0.00  0.00    -0.530 OA
ATOM      7  C   LIG    1       -0.022   1.052   0.018  0.00  0.00    +0.180 C 
ATOM      8  N   LIG    1       -2.018   2.492   3.471  0.00  0.00    -0.630 N 
ATOM      9  H   LIG    1       -2.511   2.824   4.237  0.00  0.00    +0.430 HD
ENDROOT
BRANCH   1  14
ATOM     10  C   LIG    1       -7.274   3.794   3.496  0.00  0.00    +0.180 C 
ATOM     11  C   LIG    1       -6.105   3.286   2.692  0.00  0.00    +0.050 A 
ATOM     12  C   LIG    1       -6.142   2.937   1.387  0.00  0.00    -0.060 A 
ATOM     13  C   LIG    1       -4.850   2.521   1.032  0.00  0.00    +0.100 A 
ATOM     14  C   LIG    1       -4.074   2.640   2.165  0.00  0.00    -0.060 A 
ATOM     15  O   LIG    1       -4.863   3.101   3.158  0.00  0.00    -0.170 OA
ENDBRANCH   1  14
BRANCH   4  16
ATOM     16  C   LIG    1        1.416   1.383   2.517  0.00  0.00    +0.590 C 
ATOM     17  N   LIG    1        2.058   1.424   3.701  0.00  0.00    -0.710 N 
ATOM     18  H   LIG    1        1.562   1.597   4.516  0.00  0.00    +0.410 HD
ATOM     19  O   LIG    1        2.020   1.071   1.508  0.00  0.00    -0.540 OA
BRANCH  17  20
ATOM     20  C   LIG    1        3.506   1.207   3.757  0.00  0.00    +0.290 C 
ATOM     21  C   LIG    1        3.810  -0.266   3.923  0.00  0.00    -0.110 A 
ATOM     22  C   LIG    1        3.804  -1.294   2.995  0.00  0.00    +0.040 A 
ATOM     23  C   LIG    1        4.122  -2.582   3.382  0.00  0.00    -0.010 A 
ATOM     24  C   LIG    1        4.446  -2.846   4.699  0.00  0.00    +0.010 A 
ATOM     25  C   LIG    1        4.453  -1.822   5.627  0.00  0.00    +0.010 A 
ATOM     26  C   LIG    1        4.135  -0.531   5.241  0.00  0.00    -0.090 A 
ATOM     27  C   LIG    1        4.071   0.747   6.050  0.00  0.00    +0.080 C 
ATOM     28  C   LIG    1        4.101   1.886   5.008  0.00  0.00    -0.010 C 
ATOM     29  C   LIG    1        5.536   2.350   4.745  0.00  0.00    +0.040 C 
ENDBRANCH  17  20
ENDBRANCH   4  16
TORSDOF 3
