REMARK  Name = ZINCrD000001YJmD.0
REMARK                            x       y       z     vdW  Elec       q    Type
REMARK                         _______ _______ _______ _____ _____    ______ ____
ROOT
ATOM      1  C   LIG    1       -0.830   1.261   0.761  0.00  0.00    +0.520 C 
ATOM      2  N   LIG    1       -2.117   0.950   1.014  0.00  0.00    -0.610 N 
ATOM      3  C   LIG    1       -2.914   0.204   0.030  0.00  0.00    +0.270 C 
ATOM      4  C   LIG    1       -3.521  -1.024   0.717  0.00  0.00    +0.010 C 
ATOM      5  C   LIG    1       -4.306  -0.577   1.952  0.00  0.00    +0.020 C 
ATOM      6  C   LIG    1       -3.359   0.109   2.939  0.00  0.00    +0.020 C 
ATOM      7  C   LIG    1       -2.748   1.345   2.280  0.00  0.00    +0.230 C 
ATOM      8  O   LIG    1       -0.214   1.965   1.533  0.00  0.00    -0.530 OA
ENDROOT
BRANCH   1  13
ATOM      9  C   LIG    1        2.005   1.629  -3.856  0.00  0.00    +0.550 C 
ATOM     10  N   LIG    1        1.324   1.005  -2.873  0.00  0.00    -0.610 N 
ATOM     11  C   LIG    1        2.022   0.506  -1.680  0.00  0.00    +0.280 C 
ATOM     12  C   LIG    1        1.334   1.074  -0.434  0.00  0.00    +0.050 C 
ATOM     13  C   LIG    1       -0.157   0.733  -0.479  0.00  0.00    -0.010 C 
ATOM     14  C   LIG    1       -0.791   1.374  -1.715  0.00  0.00    +0.030 C 
ATOM     15  C   LIG    1       -0.128   0.810  -2.976  0.00  0.00    +0.270 C 
ATOM     16  O   LIG    1        3.217   1.705  -3.802  0.00  0.00    -0.540 OA
BRANCH   9  18
ATOM     17  C   LIG    1        1.956   2.737  -6.014  0.00  0.00    +0.140 C 
ATOM     18  C   LIG    1        1.280   2.217  -4.992  0.00  0.00    -0.090 C 
ENDBRANCH   9  18
ENDBRANCH   1  13
BRANCH   7  19
ATOM     19  C   LIG    1       -1.696   1.952   3.210  0.00  0.00    +0.130 C 
BRANCH  19  20
ATOM     20  C   LIG    1       -2.337   2.316   4.525  0.00  0.00    -0.090 A 
ATOM     21  C   LIG    1       -2.151   1.509   5.631  0.00  0.00    +0.020 A 
ATOM     22  C   LIG    1       -2.740   1.844   6.838  0.00  0.00    +0.090 A 
ATOM     23  C   LIG    1       -3.515   2.987   6.938  0.00  0.00    +0.020 A 
ATOM     24  C   LIG    1       -3.700   3.794   5.832  0.00  0.00    +0.030 A 
ATOM     25  F   LIG    1       -2.558   1.055   7.920  0.00  0.00    -0.130 F 
ATOM     26  C   LIG    1       -3.107   3.462   4.625  0.00  0.00    +0.090 A 
ATOM     27  F   LIG    1       -3.284   4.255   3.546  0.00  0.00    -0.130 F 
ENDBRANCH  19  20
ENDBRANCH   7  19
TORSDOF 4
