REMARK  Name = ZINCrg000000nUPA.0
REMARK                            x       y       z     vdW  Elec       q    Type
REMARK                         _______ _______ _______ _____ _____    ______ ____
ROOT
ATOM      1  C   LIG    1        1.259   1.750  -0.635  0.00  0.00    -0.030 A 
ATOM      2  C   LIG    1        0.084   1.030  -0.782  0.00  0.00    +0.000 A 
ATOM      3  C   LIG    1       -1.129   1.691  -0.846  0.00  0.00    -0.110 A 
ATOM      4  C   LIG    1       -1.175   3.069  -0.753  0.00  0.00    +0.060 A 
ATOM      5  C   LIG    1       -0.007   3.796  -0.607  0.00  0.00    -0.160 A 
ATOM      6  C   LIG    1        1.213   3.142  -0.547  0.00  0.00    +0.320 A 
ENDROOT
BRANCH   1  10
ATOM      7  N   LIG    1        4.163  -1.231  -0.627  0.00  0.00    -0.390 N 
ATOM      8  C   LIG    1        3.906  -0.510   0.627  0.00  0.00    +0.270 C 
ATOM      9  C   LIG    1        2.529   0.153   0.562  0.00  0.00    +0.200 C 
ATOM     10  N   LIG    1        2.489   1.083  -0.576  0.00  0.00    -0.440 N 
ATOM     11  C   LIG    1        2.768   0.380  -1.835  0.00  0.00    +0.200 C 
ATOM     12  C   LIG    1        4.144  -0.285  -1.751  0.00  0.00    +0.270 C 
ATOM     13  H   LIG    1        3.448  -1.930  -0.765  0.00  0.00    +0.420 HD
BRANCH   7  15
ATOM     14  C   LIG    1        5.692  -2.735  -1.810  0.00  0.00    +0.070 C 
ATOM     15  C   LIG    1        5.478  -1.882  -0.557  0.00  0.00    +0.250 C 
ENDBRANCH   7  15
ENDBRANCH   1  10
BRANCH   6  16
ATOM     16  N   LIG    1        2.397   3.875  -0.399  0.00  0.00    -1.060 NA
BRANCH  16  17
ATOM     17  S   LIG    1        2.339   5.527  -0.295  0.00  0.00    +2.630 S 
ATOM     18  O   LIG    1        1.678   5.829   0.926  0.00  0.00    -1.030 OA
ATOM     19  O   LIG    1        1.888   5.994  -1.559  0.00  0.00    -1.030 OA
BRANCH  17  20
ATOM     20  C   LIG    1        3.997   6.096  -0.117  0.00  0.00    -0.690 A 
ATOM     21  C   LIG    1        4.654   6.287   1.052  0.00  0.00    +0.310 A 
ATOM     22  N   LIG    1        5.907   6.728   0.784  0.00  0.00    -0.410 N 
ATOM     23  C   LIG    1        6.056   6.829  -0.581  0.00  0.00    -0.080 A 
ATOM     24  C   LIG    1        6.932   7.048   1.781  0.00  0.00    +0.320 C 
ATOM     25  C   LIG    1        4.867   6.437  -1.158  0.00  0.00    +0.100 A 
BRANCH  23  26
ATOM     26  C   LIG    1        7.260   7.274  -1.291  0.00  0.00    +0.600 C 
ATOM     27  O   LIG    1        8.215   7.695  -0.665  0.00  0.00    -0.560 OA
ATOM     28  N   LIG    1        7.308   7.217  -2.637  0.00  0.00    -0.840 N 
ATOM     29  H   LIG    1        8.128   7.441  -3.103  0.00  0.00    +0.410 HD
ATOM     30  H   LIG    1        6.522   6.950  -3.139  0.00  0.00    +0.410 HD
ENDBRANCH  23  26
ENDBRANCH  17  20
ENDBRANCH  16  17
ENDBRANCH   6  16
TORSDOF 6
