REMARK  Name = ZINCqH0000031FBa.0
REMARK                            x       y       z     vdW  Elec       q    Type
REMARK                         _______ _______ _______ _____ _____    ______ ____
ROOT
ATOM      1  C   LIG    1        3.780  -2.621   0.728  0.00  0.00    +0.500 C 
ATOM      2  N   LIG    1        3.806  -3.108   1.984  0.00  0.00    -0.600 N 
ATOM      3  C   LIG    1        3.107  -2.361   3.047  0.00  0.00    +0.260 C 
ATOM      4  C   LIG    1        2.330  -3.292   3.996  0.00  0.00    +0.020 C 
ATOM      5  C   LIG    1        1.655  -4.388   3.210  0.00  0.00    +0.020 C 
ATOM      6  C   LIG    1        2.580  -5.598   3.133  0.00  0.00    +0.000 C 
ATOM      7  C   LIG    1        3.562  -5.543   2.038  0.00  0.00    +0.010 C 
ATOM      8  C   LIG    1        4.514  -4.344   2.234  0.00  0.00    +0.320 C 
ATOM      9  O   LIG    1        4.413  -3.170  -0.149  0.00  0.00    -0.490 OA
ENDROOT
BRANCH   8  10
ATOM     10  C   LIG    1        5.667  -4.465   1.271  0.00  0.00    +0.040 A 
ATOM     11  C   LIG    1        6.850  -3.827   1.371  0.00  0.00    -0.080 A 
ATOM     12  C   LIG    1        7.636  -4.221   0.270  0.00  0.00    -0.070 A 
ATOM     13  C   LIG    1        6.904  -5.086  -0.460  0.00  0.00    +0.140 A 
ATOM     14  N   LIG    1        5.696  -5.244   0.153  0.00  0.00    -0.420 N 
ATOM     15  C   LIG    1        4.607  -6.106  -0.316  0.00  0.00    +0.290 C 
ENDBRANCH   8  10
BRANCH   1  16
ATOM     16  C   LIG    1        2.965  -1.393   0.412  0.00  0.00    +0.060 C 
BRANCH  16  17
ATOM     17  C   LIG    1        3.108  -1.054  -1.073  0.00  0.00    +0.350 C 
BRANCH  17  20
ATOM     18  C   LIG    1        2.333  -3.433  -3.970  0.00  0.00    +0.100 C 
ATOM     19  C   LIG    1        2.939  -2.329  -3.142  0.00  0.00    +0.520 C 
ATOM     20  N   LIG    1        2.519  -2.127  -1.877  0.00  0.00    -0.720 N 
ATOM     21  H   LIG    1        1.827  -2.693  -1.500  0.00  0.00    +0.400 HD
ATOM     22  O   LIG    1        3.804  -1.622  -3.614  0.00  0.00    -0.540 OA
ENDBRANCH  17  20
BRANCH  17  23
ATOM     23  C   LIG    1        2.394   0.241  -1.363  0.00  0.00    -0.190 A 
ATOM     24  C   LIG    1        2.981   1.433  -1.483  0.00  0.00    +0.020 A 
ATOM     25  C   LIG    1        2.119   2.483  -1.751  0.00  0.00    +0.010 A 
ATOM     26  C   LIG    1        0.833   2.144  -1.850  0.00  0.00    -0.050 A 
ATOM     27  S   LIG    1        0.659   0.412  -1.596  0.00  0.00    +0.100 S 
ENDBRANCH  17  23
ENDBRANCH  16  17
ENDBRANCH   1  16
TORSDOF 5
