REMARK  Name = ZINCrH00000kpvsN.0
REMARK                            x       y       z     vdW  Elec       q    Type
REMARK                         _______ _______ _______ _____ _____    ______ ____
ROOT
ATOM      1  N   LIG    1        3.971   7.648   0.355  0.00  0.00    -0.630 N 
ATOM      2  H   LIG    1        3.704   8.524   0.676  0.00  0.00    +0.420 HD
ATOM      3  C   LIG    1        3.159   6.588   0.532  0.00  0.00    +0.510 C 
ATOM      4  O   LIG    1        3.494   5.493   0.131  0.00  0.00    -0.480 OA
ENDROOT
BRANCH   1   6
ATOM      5  C   LIG    1        6.082   8.494  -0.520  0.00  0.00    -0.100 A 
ATOM      6  C   LIG    1        5.192   7.488  -0.287  0.00  0.00    +0.060 A 
ATOM      7  S   LIG    1        5.777   6.011  -0.894  0.00  0.00    +0.350 S 
ATOM      8  C   LIG    1        7.269   6.747  -1.479  0.00  0.00    -0.270 A 
ATOM      9  C   LIG    1        8.545   6.333  -2.202  0.00  0.00    +0.120 C 
ATOM     10  C   LIG    1        9.539   7.483  -1.941  0.00  0.00    +0.040 C 
ATOM     11  C   LIG    1        8.585   8.674  -1.720  0.00  0.00    +0.100 C 
ATOM     12  C   LIG    1        7.289   8.050  -1.210  0.00  0.00    -0.070 A 
BRANCH   5  14
ATOM     13  N   LIG    1        5.677  10.929   0.189  0.00  0.00    -0.420 NA
ATOM     14  C   LIG    1        5.856   9.852  -0.125  0.00  0.00    +0.270 C 
ENDBRANCH   5  14
ENDBRANCH   1   6
BRANCH   3  15
ATOM     15  C   LIG    1        1.834   6.762   1.229  0.00  0.00    +0.230 C 
BRANCH  15  16
ATOM     16  N   LIG    1        1.142   5.468   1.296  0.00  0.00    -0.490 NA
BRANCH  16  17
ATOM     17  C   LIG    1       -0.036   5.545   2.170  0.00  0.00    +0.200 C 
BRANCH  17  18
ATOM     18  C   LIG    1       -0.443   4.136   2.604  0.00  0.00    +0.150 C 
ATOM     19  C   LIG    1       -1.712   4.189   3.483  0.00  0.00    +0.010 C 
ATOM     20  C   LIG    1       -1.479   3.092   4.546  0.00  0.00    +0.000 C 
ATOM     21  C   LIG    1       -0.096   2.506   4.184  0.00  0.00    +0.190 C 
ATOM     22  O   LIG    1        0.573   3.559   3.454  0.00  0.00    -0.350 OA
ENDBRANCH  17  18
ENDBRANCH  16  17
BRANCH  16  23
ATOM     23  C   LIG    1        0.773   4.998  -0.046  0.00  0.00    +0.320 C 
BRANCH  23  24
ATOM     24  C   LIG    1       -0.118   6.018  -0.707  0.00  0.00    -0.220 A 
ATOM     25  C   LIG    1        0.304   7.034  -1.461  0.00  0.00    +0.000 A 
ATOM     26  C   LIG    1       -0.700   7.840  -1.969  0.00  0.00    +0.000 A 
ATOM     27  C   LIG    1       -1.937   7.484  -1.620  0.00  0.00    -0.050 A 
ATOM     28  S   LIG    1       -1.874   6.050  -0.603  0.00  0.00    +0.110 S 
ENDBRANCH  23  24
ENDBRANCH  16  23
ENDBRANCH  15  16
ENDBRANCH   3  15
TORSDOF 8
