REMARK  Name = ZINCpe00000Rbl6U.0
REMARK                            x       y       z     vdW  Elec       q    Type
REMARK                         _______ _______ _______ _____ _____    ______ ____
ROOT
ATOM      1  C   LIG    1       -4.201   1.299   0.047  0.00  0.00    +0.520 A 
ATOM      2  N   LIG    1       -4.718   0.632  -0.974  0.00  0.00    -0.570 NA
ATOM      3  C   LIG    1       -6.005   0.317  -1.000  0.00  0.00    +0.360 A 
ATOM      4  C   LIG    1       -6.814   0.691   0.054  0.00  0.00    -0.110 A 
ATOM      5  C   LIG    1       -6.240   1.393   1.117  0.00  0.00    +0.370 A 
ATOM      6  N   LIG    1       -4.941   1.671   1.080  0.00  0.00    -0.560 NA
ENDROOT
BRANCH   5   7
ATOM      7  N   LIG    1       -7.013   1.788   2.197  0.00  0.00    -0.440 N 
ATOM      8  C   LIG    1       -8.000   2.828   1.795  0.00  0.00    +0.260 C 
ATOM      9  C   LIG    1       -8.274   3.592   3.074  0.00  0.00    -0.110 A 
ATOM     10  C   LIG    1       -9.339   4.368   3.480  0.00  0.00    +0.040 A 
ATOM     11  C   LIG    1       -9.325   4.961   4.730  0.00  0.00    +0.010 A 
ATOM     12  C   LIG    1       -8.245   4.775   5.572  0.00  0.00    +0.020 A 
ATOM     13  C   LIG    1       -7.176   3.997   5.165  0.00  0.00    +0.030 A 
ATOM     14  C   LIG    1       -7.189   3.406   3.919  0.00  0.00    -0.100 A 
ATOM     15  C   LIG    1       -6.192   2.518   3.202  0.00  0.00    +0.280 C 
ENDBRANCH   5   7
BRANCH   1  20
ATOM     16  C   LIG    1       -0.756   1.594  -1.230  0.00  0.00    +0.120 C 
ATOM     17  C   LIG    1       -0.013   1.086   0.008  0.00  0.00    +0.070 C 
ATOM     18  C   LIG    1       -0.732   1.581   1.266  0.00  0.00    +0.060 C 
ATOM     19  C   LIG    1       -2.185   1.096   1.239  0.00  0.00    +0.210 C 
ATOM     20  N   LIG    1       -2.852   1.610   0.036  0.00  0.00    -0.450 N 
ATOM     21  C   LIG    1       -2.207   1.109  -1.184  0.00  0.00    +0.220 C 
BRANCH  16  25
ATOM     22  N   LIG    1       -0.206   1.728  -3.639  0.00  0.00    -0.850 N 
ATOM     23  H   LIG    1        0.225   1.386  -4.438  0.00  0.00    +0.410 HD
ATOM     24  H   LIG    1       -0.723   2.548  -3.679  0.00  0.00    +0.400 HD
ATOM     25  C   LIG    1       -0.087   1.063  -2.472  0.00  0.00    +0.500 C 
ATOM     26  O   LIG    1        0.559   0.038  -2.421  0.00  0.00    -0.530 OA
ENDBRANCH  16  25
BRANCH  16  27
ATOM     27  O   LIG    1       -0.731   3.023  -1.249  0.00  0.00    -0.530 OA
ATOM     28  H   LIG    1       -1.184   3.415  -2.008  0.00  0.00    +0.370 HD
ENDBRANCH  16  27
ENDBRANCH   1  20
TORSDOF 4
