REMARK  Name = ZINCpe000000UX1I.0
REMARK                            x       y       z     vdW  Elec       q    Type
REMARK                         _______ _______ _______ _____ _____    ______ ____
ROOT
ATOM      1  N   LIG    1        4.700  -4.874   1.600  0.00  0.00    -0.670 N 
ATOM      2  H   LIG    1        5.289  -5.159   0.884  0.00  0.00    +0.410 HD
ATOM      3  C   LIG    1        3.582  -4.176   1.316  0.00  0.00    +0.490 C 
ATOM      4  O   LIG    1        2.795  -3.906   2.198  0.00  0.00    -0.490 OA
ENDROOT
BRANCH   1   9
ATOM      5  C   LIG    1        4.831  -4.716   5.281  0.00  0.00    -0.120 A 
ATOM      6  C   LIG    1        5.636  -5.823   5.558  0.00  0.00    +0.030 A 
ATOM      7  C   LIG    1        6.120  -6.600   4.524  0.00  0.00    +0.030 A 
ATOM      8  C   LIG    1        5.806  -6.290   3.215  0.00  0.00    -0.090 A 
ATOM      9  C   LIG    1        5.010  -5.187   2.928  0.00  0.00    +0.140 A 
ATOM     10  C   LIG    1        6.333  -7.147   2.093  0.00  0.00    +0.110 C 
ATOM     11  C   LIG    1        4.519  -4.400   3.958  0.00  0.00    +0.090 A 
BRANCH   5  15
ATOM     12  C   LIG    1        4.099  -3.364   8.757  0.00  0.00    +0.290 C 
ATOM     13  N   LIG    1        4.614  -4.190   7.662  0.00  0.00    -0.730 N 
ATOM     14  H   LIG    1        5.173  -4.959   7.856  0.00  0.00    +0.400 HD
ATOM     15  C   LIG    1        4.311  -3.882   6.386  0.00  0.00    +0.560 C 
ATOM     16  O   LIG    1        3.611  -2.920   6.142  0.00  0.00    -0.530 OA
ENDBRANCH   5  15
ENDBRANCH   1   9
BRANCH   3  17
ATOM     17  C   LIG    1        3.311  -3.732  -0.099  0.00  0.00    +0.420 C 
BRANCH  17  18
ATOM     18  N   LIG    1        2.044  -2.997  -0.145  0.00  0.00    -0.420 N 
ATOM     19  N   LIG    1        0.775  -3.549  -0.368  0.00  0.00    -0.280 NA
ATOM     20  C   LIG    1       -0.101  -2.571  -0.336  0.00  0.00    +0.300 A 
ATOM     21  C   LIG    1       -1.509  -2.553  -0.497  0.00  0.00    +0.040 A 
ATOM     22  C   LIG    1       -2.172  -1.374  -0.412  0.00  0.00    +0.110 A 
ATOM     23  C   LIG    1       -1.458  -0.184  -0.165  0.00  0.00    -0.020 A 
ATOM     24  C   LIG    1       -0.123  -0.206  -0.013  0.00  0.00    +0.300 A 
ATOM     25  N   LIG    1        0.573  -1.388  -0.095  0.00  0.00    -0.480 N 
ATOM     26  C   LIG    1        1.887  -1.668   0.019  0.00  0.00    +0.650 A 
ATOM     27  O   LIG    1        2.776  -0.861   0.234  0.00  0.00    -0.530 OA
ENDBRANCH  17  18
ENDBRANCH   3  17
TORSDOF 4
