REMARK  Name = ZINCkj000005hxrp.0
REMARK                            x       y       z     vdW  Elec       q    Type
REMARK                         _______ _______ _______ _____ _____    ______ ____
ROOT
ATOM      1  C   LIG    1       -3.169  -2.483  -0.905  0.00  0.00    -0.030 C 
ATOM      2  C   LIG    1       -1.759  -2.642  -0.277  0.00  0.00    +0.070 C 
ATOM      3  C   LIG    1       -1.287  -1.182  -0.118  0.00  0.00    +0.250 C 
ATOM      4  N   LIG    1       -2.488  -0.335  -0.089  0.00  0.00    -0.620 N 
ATOM      5  C   LIG    1       -2.500   1.008   0.020  0.00  0.00    +0.600 C 
ATOM      6  O   LIG    1       -3.558   1.601   0.117  0.00  0.00    -0.510 OA
ATOM      7  C   LIG    1       -3.678  -1.198  -0.204  0.00  0.00    +0.260 C 
ENDROOT
BRANCH   5   8
ATOM      8  C   LIG    1       -1.232   1.758   0.021  0.00  0.00    -0.210 A 
ATOM      9  C   LIG    1       -0.170   1.341   0.829  0.00  0.00    +0.130 A 
ATOM     10  C   LIG    1        1.014   2.041   0.823  0.00  0.00    -0.110 A 
ATOM     11  C   LIG    1        1.158   3.168   0.020  0.00  0.00    +0.200 A 
ATOM     12  C   LIG    1        0.109   3.594  -0.781  0.00  0.00    -0.100 A 
ATOM     13  C   LIG    1       -1.087   2.898  -0.784  0.00  0.00    +0.220 A 
BRANCH  11  14
ATOM     14  O   LIG    1        2.330   3.853   0.021  0.00  0.00    -0.310 OA
ATOM     15  C   LIG    1        3.369   3.359   0.868  0.00  0.00    +0.250 C 
ENDBRANCH  11  14
BRANCH  13  16
ATOM     16  O   LIG    1       -2.115   3.314  -1.567  0.00  0.00    -0.300 OA
ATOM     17  C   LIG    1       -1.893   4.479  -2.364  0.00  0.00    +0.250 C 
ENDBRANCH  13  16
ENDBRANCH   5   8
BRANCH   1  18
ATOM     18  C   LIG    1       -4.058  -3.681  -0.566  0.00  0.00    +0.280 C 
BRANCH  18  20
ATOM     19  C   LIG    1       -6.246  -4.631  -0.824  0.00  0.00    +0.320 C 
ATOM     20  N   LIG    1       -5.392  -3.481  -1.148  0.00  0.00    -0.510 N 
ATOM     21  H   LIG    1       -5.312  -3.393  -2.151  0.00  0.00    +0.430 HD
ATOM     22  H   LIG    1       -5.802  -2.640  -0.769  0.00  0.00    +0.430 HD
ENDBRANCH  18  20
ENDBRANCH   1  18
TORSDOF 5
