REMARK  Name = ZINCkj000005fjnc.0
REMARK                            x       y       z     vdW  Elec       q    Type
REMARK                         _______ _______ _______ _____ _____    ______ ____
ROOT
ATOM      1  S   LIG    1        0.974   1.815   4.372  0.00  0.00    +2.730 S 
ATOM      2  O   LIG    1        0.769   0.771   5.314  0.00  0.00    -0.930 OA
ATOM      3  O   LIG    1        0.503   3.142   4.567  0.00  0.00    -0.950 OA
ENDROOT
BRANCH   1   7
ATOM      4  N   LIG    1       -0.615   1.207   0.864  0.00  0.00    -0.440 N 
ATOM      5  C   LIG    1       -0.453  -0.059   1.307  0.00  0.00    +0.410 A 
ATOM      6  N   LIG    1        0.081  -0.020   2.497  0.00  0.00    -0.410 NA
ATOM      7  C   LIG    1        0.278   1.258   2.853  0.00  0.00    -0.570 A 
ATOM      8  C   LIG    1       -0.145   2.042   1.842  0.00  0.00    +0.250 A 
BRANCH   4  10
ATOM      9  C   LIG    1       -0.337   1.024  -1.559  0.00  0.00    +0.060 C 
ATOM     10  C   LIG    1       -1.181   1.611  -0.426  0.00  0.00    +0.230 C 
ATOM     11  C   LIG    1       -2.616   1.092  -0.538  0.00  0.00    +0.060 C 
ENDBRANCH   4  10
ENDBRANCH   1   7
BRANCH   1  12
ATOM     12  N   LIG    1        2.611   1.928   4.149  0.00  0.00    -1.120 NA
ATOM     13  H   LIG    1        3.210   1.349   4.647  0.00  0.00    +0.420 HD
BRANCH  12  14
ATOM     14  C   LIG    1        3.155   2.903   3.200  0.00  0.00    +0.300 C 
BRANCH  14  15
ATOM     15  C   LIG    1        4.656   3.071   3.447  0.00  0.00    -0.090 C 
ATOM     16  C   LIG    1        5.359   1.726   3.255  0.00  0.00    +0.050 C 
ATOM     17  C   LIG    1        4.886   3.567   4.876  0.00  0.00    +0.060 C 
BRANCH  15  18
ATOM     18  C   LIG    1        5.225   4.089   2.456  0.00  0.00    +0.280 C 
BRANCH  18  19
ATOM     19  N   LIG    1        6.622   4.381   2.801  0.00  0.00    -0.390 N 
ATOM     20  C   LIG    1        7.087   5.539   2.026  0.00  0.00    +0.320 C 
ATOM     21  C   LIG    1        7.458   3.214   2.487  0.00  0.00    +0.320 C 
ATOM     22  H   LIG    1        6.689   4.587   3.787  0.00  0.00    +0.430 HD
ENDBRANCH  18  19
ENDBRANCH  15  18
ENDBRANCH  14  15
ENDBRANCH  12  14
ENDBRANCH   1  12
TORSDOF 7
