REMARK  Name = ZINCAx0000000emU.0
REMARK                            x       y       z     vdW  Elec       q    Type
REMARK                         _______ _______ _______ _____ _____    ______ ____
ROOT
ATOM      1  C   LIG    1       -0.658  11.540   1.373  0.00  0.00    +0.510 C 
ATOM      2  N   LIG    1       -0.347  10.509   0.562  0.00  0.00    -0.610 N 
ATOM      3  C   LIG    1       -1.247  10.120  -0.533  0.00  0.00    +0.280 C 
ATOM      4  C   LIG    1       -1.562   8.627  -0.405  0.00  0.00    +0.050 C 
ATOM      5  C   LIG    1       -0.252   7.836  -0.356  0.00  0.00    +0.010 C 
ATOM      6  C   LIG    1        0.559   8.265   0.869  0.00  0.00    +0.040 C 
ATOM      7  C   LIG    1        0.898   9.755   0.755  0.00  0.00    +0.280 C 
ATOM      8  O   LIG    1       -1.689  12.155   1.203  0.00  0.00    -0.520 OA
ENDROOT
BRANCH   5   9
ATOM      9  C   LIG    1       -0.558   6.363  -0.264  0.00  0.00    +0.520 C 
ATOM     10  N   LIG    1        0.447   5.468  -0.210  0.00  0.00    -0.670 N 
ATOM     11  H   LIG    1        1.366   5.773  -0.152  0.00  0.00    +0.410 HD
ATOM     12  O   LIG    1       -1.710   5.983  -0.240  0.00  0.00    -0.510 OA
BRANCH  10  13
ATOM     13  C   LIG    1        0.166   4.096  -0.235  0.00  0.00    +0.160 A 
ATOM     14  C   LIG    1        0.972   3.209   0.465  0.00  0.00    +0.000 A 
ATOM     15  C   LIG    1        0.693   1.855   0.444  0.00  0.00    +0.060 A 
ATOM     16  C   LIG    1       -0.385   1.379  -0.283  0.00  0.00    +0.020 A 
ATOM     17  O   LIG    1       -0.864   0.113  -0.466  0.00  0.00    -0.310 OA
ATOM     18  C   LIG    1       -1.728   0.191  -1.615  0.00  0.00    +0.430 C 
ATOM     19  O   LIG    1       -2.182   1.557  -1.610  0.00  0.00    -0.310 OA
ATOM     20  C   LIG    1       -1.196   2.266  -0.987  0.00  0.00    +0.050 A 
ATOM     21  C   LIG    1       -0.919   3.623  -0.961  0.00  0.00    +0.040 A 
ENDBRANCH  10  13
ENDBRANCH   5   9
BRANCH   1  22
ATOM     22  C   LIG    1        0.275  11.927   2.491  0.00  0.00    +0.360 C 
BRANCH  22  32
ATOM     23  C   LIG    1       -0.762  16.329   7.950  0.00  0.00    +0.030 C 
ATOM     24  C   LIG    1       -1.235  16.079   6.516  0.00  0.00    -0.010 C 
ATOM     25  C   LIG    1       -2.742  16.326   6.426  0.00  0.00    +0.030 C 
ATOM     26  C   LIG    1       -3.214  16.088   4.990  0.00  0.00    -0.060 C 
ATOM     27  C   LIG    1       -2.919  14.640   4.591  0.00  0.00    +0.070 C 
ATOM     28  C   LIG    1       -1.422  14.374   4.703  0.00  0.00    +0.130 C 
ATOM     29  N   LIG    1       -0.678  15.200   3.744  0.00  0.00    -0.720 N 
ATOM     30  H   LIG    1       -0.650  16.169   3.712  0.00  0.00    +0.440 HD
ATOM     31  C   LIG    1       -0.040  14.347   2.920  0.00  0.00    +0.700 C 
ATOM     32  N   LIG    1       -0.285  13.066   3.222  0.00  0.00    -0.560 N 
ATOM     33  O   LIG    1        0.675  14.701   2.003  0.00  0.00    -0.540 OA
ATOM     34  C   LIG    1       -1.106  12.955   4.287  0.00  0.00    +0.540 C 
ATOM     35  O   LIG    1       -1.507  11.933   4.801  0.00  0.00    -0.460 OA
ATOM     36  C   LIG    1       -2.474  17.038   4.046  0.00  0.00    +0.040 C 
ATOM     37  C   LIG    1       -4.719  16.346   4.898  0.00  0.00    +0.040 C 
ATOM     38  C   LIG    1       -0.932  14.631   6.124  0.00  0.00    +0.060 C 
ENDBRANCH  22  32
ENDBRANCH   1  22
TORSDOF 4
