REMARK  Name = ZINCpk00000FcMZa.0
REMARK                            x       y       z     vdW  Elec       q    Type
REMARK                         _______ _______ _______ _____ _____    ______ ____
ROOT
ATOM      1  N   LIG    1       -5.684  -6.535   0.026  0.00  0.00    -0.730 N 
ATOM      2  H   LIG    1       -6.396  -5.877   0.040  0.00  0.00    +0.400 HD
ATOM      3  C   LIG    1       -5.981  -7.850   0.017  0.00  0.00    +0.530 C 
ATOM      4  O   LIG    1       -5.091  -8.673  -0.000  0.00  0.00    -0.520 OA
ENDROOT
BRANCH   3   5
ATOM      5  C   LIG    1       -7.421  -8.296   0.028  0.00  0.00    +0.000 C 
ATOM      6  C   LIG    1       -7.536  -9.779   0.453  0.00  0.00    +0.090 C 
ATOM      7  C   LIG    1       -8.657 -10.324  -0.405  0.00  0.00    +0.520 C 
ATOM      8  N   LIG    1       -8.899  -9.492  -1.433  0.00  0.00    -0.620 N 
ATOM      9  C   LIG    1       -9.928  -9.715  -2.452  0.00  0.00    +0.310 C 
ATOM     10  O   LIG    1       -9.251 -11.361  -0.196  0.00  0.00    -0.520 OA
ATOM     11  C   LIG    1       -8.000  -8.333  -1.403  0.00  0.00    +0.310 C 
BRANCH  11  12
ATOM     12  C   LIG    1       -6.891  -8.506  -2.410  0.00  0.00    -0.170 A 
ATOM     13  C   LIG    1       -6.404  -7.415  -3.112  0.00  0.00    +0.070 A 
ATOM     14  C   LIG    1       -5.380  -7.621  -4.024  0.00  0.00    -0.030 A 
ATOM     15  C   LIG    1       -4.890  -8.900  -4.209  0.00  0.00    +0.270 A 
ATOM     16  N   LIG    1       -5.382  -9.916  -3.527  0.00  0.00    -0.480 NA
ATOM     17  C   LIG    1       -6.352  -9.756  -2.648  0.00  0.00    +0.280 A 
ENDBRANCH  11  12
ENDBRANCH   3   5
BRANCH   1  18
ATOM     18  C   LIG    1       -4.285  -6.101   0.015  0.00  0.00    +0.260 C 
BRANCH  18  19
ATOM     19  C   LIG    1       -4.225  -4.572   0.029  0.00  0.00    +0.010 C 
BRANCH  19  20
ATOM     20  C   LIG    1       -2.764  -4.118   0.018  0.00  0.00    +0.020 C 
BRANCH  20  21
ATOM     21  C   LIG    1       -2.705  -2.589   0.031  0.00  0.00    +0.030 C 
BRANCH  21  22
ATOM     22  C   LIG    1       -1.244  -2.136   0.020  0.00  0.00    +0.100 C 
BRANCH  22  23
ATOM     23  C   LIG    1       -1.185  -0.630   0.033  0.00  0.00    +0.460 C 
ATOM     24  O   LIG    1       -2.207   0.014   0.051  0.00  0.00    -0.510 OA
BRANCH  23  26
ATOM     25  C   LIG    1       -0.017   1.448   0.040  0.00  0.00    +0.250 C 
ATOM     26  O   LIG    1        0.002  -0.004   0.026  0.00  0.00    -0.360 OA
ENDBRANCH  23  26
ENDBRANCH  22  23
ENDBRANCH  21  22
ENDBRANCH  20  21
ENDBRANCH  19  20
ENDBRANCH  18  19
ENDBRANCH   1  18
TORSDOF 9
