REMARK  Name = ZINCrD00000cBR4H.1
REMARK                            x       y       z     vdW  Elec       q    Type
REMARK                         _______ _______ _______ _____ _____    ______ ____
ROOT
ATOM      1  C   LIG    1        1.516   0.298  -0.132  0.00  0.00    +0.060 C 
ATOM      2  C   LIG    1        1.939  -0.020  -1.568  0.00  0.00    +0.040 C 
ATOM      3  C   LIG    1        3.457  -0.217  -1.618  0.00  0.00    +0.270 C 
ATOM      4  N   LIG    1        3.832  -1.245  -0.638  0.00  0.00    -0.610 N 
ATOM      5  C   LIG    1        3.398  -1.084   0.757  0.00  0.00    +0.290 C 
ATOM      6  C   LIG    1        4.561  -2.316  -1.010  0.00  0.00    +0.540 C 
ATOM      7  O   LIG    1        4.945  -3.108  -0.176  0.00  0.00    -0.520 OA
ATOM      8  C   LIG    1        1.881  -0.876   0.780  0.00  0.00    +0.030 C 
ENDROOT
BRANCH   6   9
ATOM      9  C   LIG    1        4.899  -2.529  -2.463  0.00  0.00    +0.030 C 
ATOM     10  C   LIG    1        6.115  -1.725  -2.803  0.00  0.00    +0.370 C 
ATOM     11  N   LIG    1        7.268  -2.232  -3.048  0.00  0.00    -0.450 NA
ATOM     12  C   LIG    1        7.478  -3.583  -3.037  0.00  0.00    +0.340 C 
ATOM     13  N   LIG    1        8.680  -4.069  -3.093  0.00  0.00    -0.480 NA
ATOM     14  C   LIG    1        8.981  -5.494  -3.097  0.00  0.00    +0.240 C 
ATOM     15  C   LIG    1        7.864  -6.308  -2.446  0.00  0.00    +0.000 C 
ATOM     16  C   LIG    1        6.533  -5.968  -3.136  0.00  0.00    +0.080 C 
ATOM     17  C   LIG    1        6.309  -4.485  -2.956  0.00  0.00    -0.150 C 
ATOM     18  C   LIG    1        5.111  -3.995  -2.706  0.00  0.00    +0.030 C 
ENDBRANCH   6   9
BRANCH   1  23
ATOM     19  C   LIG    1       -1.766   1.960  -0.125  0.00  0.00    +0.330 A 
ATOM     20  N   LIG    1       -2.624   0.967  -0.006  0.00  0.00    -0.510 NA
ATOM     21  C   LIG    1       -2.205  -0.286   0.072  0.00  0.00    +0.320 A 
ATOM     22  C   LIG    1       -0.844  -0.544   0.040  0.00  0.00    -0.080 A 
ATOM     23  C   LIG    1        0.028   0.526  -0.085  0.00  0.00    +0.190 A 
ATOM     24  N   LIG    1       -0.465   1.752  -0.164  0.00  0.00    -0.520 NA
BRANCH  19  26
ATOM     25  C   LIG    1       -3.192   3.502  -1.443  0.00  0.00    +0.050 C 
ATOM     26  C   LIG    1       -2.286   3.372  -0.217  0.00  0.00    +0.070 C 
ATOM     27  C   LIG    1       -3.084   3.705   1.045  0.00  0.00    +0.050 C 
ENDBRANCH  19  26
ENDBRANCH   1  23
TORSDOF 3
