REMARK  Name = ZINCrD00000cBR4H.0
REMARK                            x       y       z     vdW  Elec       q    Type
REMARK                         _______ _______ _______ _____ _____    ______ ____
ROOT
ATOM      1  C   LIG    1       -1.639  10.078  -3.181  0.00  0.00    +0.060 C 
ATOM      2  C   LIG    1       -1.562   9.313  -4.505  0.00  0.00    +0.030 C 
ATOM      3  C   LIG    1       -2.456   8.071  -4.423  0.00  0.00    +0.280 C 
ATOM      4  N   LIG    1       -2.064   7.283  -3.247  0.00  0.00    -0.610 N 
ATOM      5  C   LIG    1       -2.022   7.944  -1.936  0.00  0.00    +0.280 C 
ATOM      6  C   LIG    1       -1.756   5.976  -3.367  0.00  0.00    +0.580 C 
ATOM      7  O   LIG    1       -1.696   5.465  -4.469  0.00  0.00    -0.530 OA
ATOM      8  C   LIG    1       -1.128   9.189  -2.046  0.00  0.00    +0.030 C 
ENDROOT
BRANCH   6   9
ATOM      9  C   LIG    1       -1.490   5.167  -2.163  0.00  0.00    -0.250 A 
ATOM     10  C   LIG    1       -0.449   4.237  -2.148  0.00  0.00    +0.360 A 
ATOM     11  N   LIG    1       -0.215   3.516  -1.074  0.00  0.00    -0.540 NA
ATOM     12  C   LIG    1       -0.949   3.638   0.028  0.00  0.00    +0.430 A 
ATOM     13  N   LIG    1       -0.649   2.836   1.121  0.00  0.00    -0.720 N 
ATOM     14  H   LIG    1       -0.061   2.071   1.023  0.00  0.00    +0.410 HD
ATOM     15  C   LIG    1       -1.235   3.158   2.428  0.00  0.00    +0.280 C 
ATOM     16  C   LIG    1       -2.721   3.473   2.214  0.00  0.00    +0.020 C 
ATOM     17  C   LIG    1       -2.842   4.709   1.322  0.00  0.00    +0.090 C 
ATOM     18  C   LIG    1       -2.000   4.548   0.085  0.00  0.00    -0.200 A 
ATOM     19  C   LIG    1       -2.280   5.319  -1.014  0.00  0.00    +0.130 A 
ENDBRANCH   6   9
BRANCH   1  24
ATOM     20  C   LIG    1       -0.420  13.521  -2.729  0.00  0.00    +0.330 A 
ATOM     21  N   LIG    1        0.710  13.549  -3.407  0.00  0.00    -0.520 NA
ATOM     22  C   LIG    1        1.144  12.474  -4.045  0.00  0.00    +0.320 A 
ATOM     23  C   LIG    1        0.395  11.310  -3.993  0.00  0.00    -0.080 A 
ATOM     24  C   LIG    1       -0.787  11.319  -3.269  0.00  0.00    +0.190 A 
ATOM     25  N   LIG    1       -1.161  12.433  -2.661  0.00  0.00    -0.520 NA
BRANCH  20  27
ATOM     26  C   LIG    1        0.174  15.184  -0.988  0.00  0.00    +0.050 C 
ATOM     27  C   LIG    1       -0.879  14.767  -2.017  0.00  0.00    +0.070 C 
ATOM     28  C   LIG    1       -1.073  15.893  -3.034  0.00  0.00    +0.050 C 
ENDBRANCH  20  27
ENDBRANCH   1  24
TORSDOF 3
