REMARK  Name = ZINCpe00000P4tKc.0
REMARK                            x       y       z     vdW  Elec       q    Type
REMARK                         _______ _______ _______ _____ _____    ______ ____
ROOT
ATOM      1  C   LIG    1       -0.326  -0.396  -1.910  0.00  0.00    +0.520 C 
ATOM      2  N   LIG    1       -0.354  -1.702  -2.241  0.00  0.00    -0.600 N 
ATOM      3  C   LIG    1       -0.232  -2.719  -1.195  0.00  0.00    +0.260 C 
ATOM      4  C   LIG    1       -1.194  -3.915  -1.342  0.00  0.00    +0.110 C 
ATOM      5  S   LIG    1       -2.847  -3.371  -1.803  0.00  0.00    -0.210 S 
ATOM      6  C   LIG    1       -2.741  -3.203  -3.614  0.00  0.00    +0.130 C 
ATOM      7  C   LIG    1       -1.985  -2.026  -4.026  0.00  0.00    +0.030 C 
ATOM      8  C   LIG    1       -0.498  -2.088  -3.628  0.00  0.00    +0.330 C 
ATOM      9  O   LIG    1       -0.508   0.449  -2.761  0.00  0.00    -0.500 OA
ENDROOT
BRANCH   1  15
ATOM     10  C   LIG    1        1.465   0.068  -0.168  0.00  0.00    -0.140 C 
ATOM     11  C   LIG    1        1.612   0.999   1.076  0.00  0.00    +0.090 C 
ATOM     12  C   LIG    1        0.887   1.984   0.114  0.00  0.00    +0.070 C 
ATOM     13  O   LIG    1       -0.403   1.414  -0.264  0.00  0.00    -0.310 OA
ATOM     14  C   LIG    1        0.933   3.485   0.404  0.00  0.00    +0.130 C 
ATOM     15  C   LIG    1       -0.070   0.014  -0.483  0.00  0.00    +0.210 C 
ATOM     16  C   LIG    1        1.879   1.371  -0.905  0.00  0.00    +0.070 C 
BRANCH  10  17
ATOM     17  C   LIG    1        2.275  -1.196  -0.297  0.00  0.00    +0.500 C 
ATOM     18  O   LIG    1        3.117  -1.289  -1.159  0.00  0.00    -0.480 OA
BRANCH  17  19
ATOM     19  O   LIG    1        2.062  -2.218   0.546  0.00  0.00    -0.350 OA
BRANCH  19  21
ATOM     20  C   LIG    1        2.496  -4.454   1.408  0.00  0.00    +0.070 C 
ATOM     21  C   LIG    1        2.880  -3.405   0.363  0.00  0.00    +0.200 C 
ENDBRANCH  19  21
ENDBRANCH  17  19
ENDBRANCH  10  17
ENDBRANCH   1  15
BRANCH   7  22
ATOM     22  C   LIG    1       -2.079  -1.889  -5.523  0.00  0.00    +0.470 C 
ATOM     23  O   LIG    1       -1.073  -1.847  -6.191  0.00  0.00    -0.500 OA
BRANCH  22  24
ATOM     24  O   LIG    1       -3.282  -1.815  -6.115  0.00  0.00    -0.360 OA
ATOM     25  C   LIG    1       -3.297  -1.684  -7.562  0.00  0.00    +0.260 C 
ENDBRANCH  22  24
ENDBRANCH   7  22
TORSDOF 6
