REMARK  Name = ZINCvU00000007vB.0
REMARK                            x       y       z     vdW  Elec       q    Type
REMARK                         _______ _______ _______ _____ _____    ______ ____
ROOT
ATOM      1  C   LIG    1        3.042   4.086  -0.167  0.00  0.00    +0.110 C 
ENDROOT
BRANCH   1   3
ATOM      2  O   LIG    1        5.285   4.798  -0.344  0.00  0.00    -0.500 OA
ATOM      3  C   LIG    1        4.130   5.128  -0.177  0.00  0.00    +0.530 C 
ATOM      4  N   LIG    1        3.820   6.428  -0.002  0.00  0.00    -0.660 N 
ATOM      5  H   LIG    1        2.891   6.702   0.055  0.00  0.00    +0.420 HD
BRANCH   4   6
ATOM      6  C   LIG    1        4.839   7.384   0.099  0.00  0.00    +0.150 A 
ATOM      7  C   LIG    1        4.638   8.666  -0.394  0.00  0.00    +0.010 A 
ATOM      8  C   LIG    1        5.642   9.613  -0.297  0.00  0.00    +0.050 A 
ATOM      9  C   LIG    1        6.849   9.278   0.294  0.00  0.00    +0.050 A 
ATOM     10  O   LIG    1        7.846  10.206   0.393  0.00  0.00    -0.320 OA
ATOM     11  C   LIG    1        8.156  10.650   1.715  0.00  0.00    +0.230 C 
ATOM     12  C   LIG    1        9.128   9.696   2.392  0.00  0.00    -0.010 C 
ATOM     13  C   LIG    1        8.526   8.318   2.614  0.00  0.00    +0.230 C 
ATOM     14  O   LIG    1        8.247   7.679   1.366  0.00  0.00    -0.320 OA
ATOM     15  C   LIG    1        7.052   7.997   0.787  0.00  0.00    +0.090 A 
ATOM     16  C   LIG    1        6.048   7.050   0.697  0.00  0.00    +0.030 A 
ENDBRANCH   4   6
ENDBRANCH   1   3
BRANCH   1  17
ATOM     17  S   LIG    1        3.771   2.450  -0.426  0.00  0.00    +0.070 S 
BRANCH  17  18
ATOM     18  C   LIG    1        2.318   1.455  -0.369  0.00  0.00    +0.190 A 
ATOM     19  C   LIG    1        2.401   0.045  -0.530  0.00  0.00    -0.160 A 
ATOM     20  C   LIG    1        3.550  -0.805  -0.752  0.00  0.00    +0.060 A 
ATOM     21  C   LIG    1        3.267  -2.104  -0.861  0.00  0.00    -0.120 A 
ATOM     22  S   LIG    1        1.545  -2.393  -0.698  0.00  0.00    +0.200 S 
ATOM     23  C   LIG    1        1.208  -0.683  -0.474  0.00  0.00    +0.090 A 
ATOM     24  N   LIG    1        0.057  -0.030  -0.274  0.00  0.00    -0.490 NA
ATOM     25  C   LIG    1        0.033   1.275  -0.130  0.00  0.00    +0.540 A 
ATOM     26  N   LIG    1        1.130   2.008  -0.174  0.00  0.00    -0.530 NA
BRANCH  21  27
ATOM     27  C   LIG    1        4.273  -3.162  -1.090  0.00  0.00    -0.030 A 
ATOM     28  C   LIG    1        5.624  -2.830  -1.213  0.00  0.00    +0.030 A 
ATOM     29  C   LIG    1        6.559  -3.823  -1.421  0.00  0.00    +0.020 A 
ATOM     30  C   LIG    1        6.159  -5.144  -1.519  0.00  0.00    +0.020 A 
ATOM     31  C   LIG    1        4.822  -5.479  -1.404  0.00  0.00    +0.020 A 
ATOM     32  C   LIG    1        3.877  -4.497  -1.190  0.00  0.00    +0.010 A 
ENDBRANCH  21  27
ENDBRANCH  17  18
ENDBRANCH   1  17
TORSDOF 5
