REMARK  Name = ZINCrD0000074qkl.0
REMARK                            x       y       z     vdW  Elec       q    Type
REMARK                         _______ _______ _______ _____ _____    ______ ____
ROOT
ATOM      1  C   LIG    1       -3.845   1.687   0.774  0.00  0.00    +0.240 C 
ENDROOT
BRANCH   1   2
ATOM      2  C   LIG    1       -2.557   0.932   0.976  0.00  0.00    +0.400 C 
ATOM      3  O   LIG    1       -2.556  -0.281   0.962  0.00  0.00    -0.430 OA
BRANCH   2   4
ATOM      4  C   LIG    1       -1.302   1.664   1.189  0.00  0.00    -0.190 A 
ATOM      5  C   LIG    1       -1.301   3.065   1.211  0.00  0.00    +0.100 A 
ATOM      6  C   LIG    1       -0.120   3.744   1.405  0.00  0.00    -0.020 A 
ATOM      7  C   LIG    1        1.067   3.040   1.585  0.00  0.00    +0.200 A 
ATOM      8  N   LIG    1        2.262   3.728   1.782  0.00  0.00    -0.660 N 
ATOM      9  H   LIG    1        2.241   4.657   2.061  0.00  0.00    +0.410 HD
ATOM     10  C   LIG    1        3.444   3.117   1.588  0.00  0.00    +0.520 C 
ATOM     11  C   LIG    1        3.505   1.681   1.140  0.00  0.00    +0.080 C 
ATOM     12  C   LIG    1        2.354   0.893   1.764  0.00  0.00    +0.110 C 
ATOM     13  O   LIG    1        4.473   3.730   1.777  0.00  0.00    -0.520 OA
ATOM     14  C   LIG    1        1.064   1.647   1.569  0.00  0.00    -0.140 A 
ATOM     15  C   LIG    1       -0.103   0.965   1.376  0.00  0.00    +0.120 A 
ENDBRANCH   2   4
ENDBRANCH   1   2
BRANCH   1  16
ATOM     16  O   LIG    1       -4.934   0.745   0.586  0.00  0.00    -0.330 OA
BRANCH  16  17
ATOM     17  C   LIG    1       -6.163   1.262   0.391  0.00  0.00    +0.550 C 
ATOM     18  O   LIG    1       -6.321   2.467   0.379  0.00  0.00    -0.520 OA
BRANCH  17  22
ATOM     19  C   LIG    1       -9.044  -2.915  -0.129  0.00  0.00    +0.140 C 
ATOM     20  C   LIG    1       -8.570  -1.488  -0.034  0.00  0.00    +0.010 A 
ATOM     21  C   LIG    1       -7.300  -1.099   0.172  0.00  0.00    +0.010 A 
ATOM     22  C   LIG    1       -7.315   0.368   0.193  0.00  0.00    -0.230 A 
ATOM     23  C   LIG    1       -8.626   0.737  -0.016  0.00  0.00    +0.130 A 
ATOM     24  C   LIG    1       -9.146   2.150  -0.084  0.00  0.00    +0.150 C 
ATOM     25  N   LIG    1       -9.362  -0.382  -0.150  0.00  0.00    -0.410 N 
BRANCH  25  26
ATOM     26  C   LIG    1      -10.807  -0.410  -0.386  0.00  0.00    +0.180 C 
ATOM     27  C   LIG    1      -11.324  -1.323  -1.500  0.00  0.00    +0.060 C 
ATOM     28  C   LIG    1      -11.321   0.196  -1.694  0.00  0.00    +0.040 C 
ENDBRANCH  25  26
ENDBRANCH  17  22
ENDBRANCH  16  17
ENDBRANCH   1  16
TORSDOF 6
