REMARK  Name = ZINCrg00000fSlDw.0
REMARK                            x       y       z     vdW  Elec       q    Type
REMARK                         _______ _______ _______ _____ _____    ______ ____
ROOT
ATOM      1  N   LIG    1        1.531  -3.838   4.063  0.00  0.00    -0.740 N 
ATOM      2  H   LIG    1        0.701  -4.031   4.527  0.00  0.00    +0.400 HD
ATOM      3  C   LIG    1        2.704  -4.251   4.582  0.00  0.00    +0.710 C 
ATOM      4  N   LIG    1        2.725  -4.931   5.745  0.00  0.00    -0.740 N 
ATOM      5  H   LIG    1        1.895  -5.124   6.210  0.00  0.00    +0.400 HD
ATOM      6  O   LIG    1        3.744  -4.009   4.000  0.00  0.00    -0.580 OA
ENDROOT
BRANCH   4   7
ATOM      7  C   LIG    1        4.001  -5.379   6.309  0.00  0.00    +0.270 C 
ATOM      8  C   LIG    1        4.578  -4.313   7.278  0.00  0.00    +0.030 C 
ATOM      9  C   LIG    1        5.445  -5.185   8.220  0.00  0.00    +0.270 C 
ATOM     10  N   LIG    1        4.681  -6.435   8.386  0.00  0.00    -1.010 NA
ATOM     11  C   LIG    1        3.792  -6.603   7.226  0.00  0.00    +0.270 C 
BRANCH  10  12
ATOM     12  S   LIG    1        4.803  -7.478   9.666  0.00  0.00    +2.710 S 
ATOM     13  O   LIG    1        3.579  -8.197   9.717  0.00  0.00    -0.950 OA
ATOM     14  O   LIG    1        5.304  -6.718  10.757  0.00  0.00    -0.950 OA
BRANCH  12  15
ATOM     15  C   LIG    1        6.053  -8.653   9.264  0.00  0.00    -0.680 A 
ATOM     16  C   LIG    1        5.716  -9.825   8.613  0.00  0.00    +0.120 A 
ATOM     17  C   LIG    1        6.698 -10.745   8.293  0.00  0.00    -0.010 A 
ATOM     18  C   LIG    1        8.014 -10.497   8.633  0.00  0.00    +0.070 A 
ATOM     19  C   LIG    1        8.351  -9.327   9.288  0.00  0.00    -0.010 A 
ATOM     20  C   LIG    1        7.370  -8.405   9.604  0.00  0.00    +0.120 A 
ENDBRANCH  12  15
ENDBRANCH  10  12
ENDBRANCH   4   7
BRANCH   1  21
ATOM     21  C   LIG    1        1.508  -3.099   2.799  0.00  0.00    +0.290 C 
BRANCH  21  22
ATOM     22  C   LIG    1        0.063  -2.752   2.436  0.00  0.00    +0.100 C 
BRANCH  22  28
ATOM     23  C   LIG    1       -0.018   1.503   0.010  0.00  0.00    +0.140 C 
ATOM     24  C   LIG    1        0.002  -0.004   0.002  0.00  0.00    +0.090 A 
ATOM     25  C   LIG    1       -0.006  -0.689  -1.200  0.00  0.00    +0.220 A 
ATOM     26  N   LIG    1        0.017  -2.011  -1.207  0.00  0.00    -0.430 NA
ATOM     27  C   LIG    1        0.037  -2.677  -0.067  0.00  0.00    +0.220 A 
ATOM     28  C   LIG    1        0.039  -1.992   1.136  0.00  0.00    +0.090 A 
ATOM     29  N   LIG    1        0.022  -0.671   1.143  0.00  0.00    -0.440 NA
ENDBRANCH  22  28
ENDBRANCH  21  22
ENDBRANCH   1  21
TORSDOF 6
