REMARK  Name = ZINCvU0000000EQd.0
REMARK                            x       y       z     vdW  Elec       q    Type
REMARK                         _______ _______ _______ _____ _____    ______ ____
ROOT
ATOM      1  O   LIG    1        6.823   5.277  -0.031  0.00  0.00    -0.490 OA
ATOM      2  C   LIG    1        5.615   5.136  -0.022  0.00  0.00    +0.600 C 
ATOM      3  N   LIG    1        4.811   6.218  -0.009  0.00  0.00    -0.620 N 
ATOM      4  H   LIG    1        3.847   6.106  -0.002  0.00  0.00    +0.420 HD
ENDROOT
BRANCH   2   5
ATOM      5  C   LIG    1        5.032   3.785  -0.024  0.00  0.00    -0.280 A 
ATOM      6  C   LIG    1        3.689   3.464  -0.014  0.00  0.00    +0.310 A 
ATOM      7  N   LIG    1        3.585   2.124  -0.020  0.00  0.00    -0.300 N 
ATOM      8  N   LIG    1        4.861   1.553  -0.028  0.00  0.00    -0.270 NA
ATOM      9  C   LIG    1        5.762   2.512  -0.037  0.00  0.00    +0.220 A 
BRANCH   7  10
ATOM     10  C   LIG    1        2.381   1.409  -0.013  0.00  0.00    +0.140 A 
ATOM     11  C   LIG    1        1.169   2.087   0.002  0.00  0.00    -0.010 A 
ATOM     12  C   LIG    1       -0.017   1.379   0.010  0.00  0.00    +0.050 A 
ATOM     13  C   LIG    1        0.002  -0.004   0.002  0.00  0.00    +0.010 A 
ATOM     14  C   LIG    1        1.207  -0.682  -0.013  0.00  0.00    +0.050 A 
ATOM     15  C   LIG    1        2.396   0.020  -0.020  0.00  0.00    +0.030 A 
ENDBRANCH   7  10
BRANCH   9  16
ATOM     16  C   LIG    1        7.228   2.340  -0.051  0.00  0.00    -0.150 A 
ATOM     17  C   LIG    1        7.902   1.350   0.570  0.00  0.00    +0.050 A 
ATOM     18  C   LIG    1        9.272   1.399   0.412  0.00  0.00    -0.010 A 
ATOM     19  C   LIG    1        9.720   2.416  -0.330  0.00  0.00    -0.060 A 
ATOM     20  S   LIG    1        8.366   3.389  -0.886  0.00  0.00    +0.240 S 
ENDBRANCH   9  16
ENDBRANCH   2   5
BRANCH   3  21
ATOM     21  C   LIG    1        5.362   7.493  -0.007  0.00  0.00    +0.240 A 
ATOM     22  N   LIG    1        4.680   8.596  -0.000  0.00  0.00    -0.500 NA
ATOM     23  C   LIG    1        5.368   9.723   0.005  0.00  0.00    +0.110 A 
ATOM     24  C   LIG    1        6.693   9.564  -0.007  0.00  0.00    -0.150 A 
ATOM     25  S   LIG    1        7.036   7.836  -0.019  0.00  0.00    +0.250 S 
BRANCH  23  26
ATOM     26  C   LIG    1        4.710  11.079   0.017  0.00  0.00    +0.270 C 
BRANCH  26  27
ATOM     27  N   LIG    1        4.376  11.473  -1.358  0.00  0.00    -0.530 NA
ATOM     28  C   LIG    1        5.590  11.675  -2.158  0.00  0.00    +0.160 C 
ATOM     29  C   LIG    1        5.205  11.941  -3.615  0.00  0.00    +0.020 C 
ATOM     30  C   LIG    1        4.314  13.184  -3.683  0.00  0.00    +0.000 C 
ATOM     31  C   LIG    1        3.079  12.966  -2.804  0.00  0.00    +0.020 C 
ATOM     32  C   LIG    1        3.526  12.670  -1.371  0.00  0.00    +0.170 C 
ENDBRANCH  26  27
ENDBRANCH  23  26
ENDBRANCH   3  21
TORSDOF 6
