REMARK  Name = ZINCrD00000l0nM9.0
REMARK                            x       y       z     vdW  Elec       q    Type
REMARK                         _______ _______ _______ _____ _____    ______ ____
ROOT
ATOM      1  N   LIG    1       -2.639   4.338   1.402  0.00  0.00    -0.710 N 
ATOM      2  H   LIG    1       -3.501   4.050   1.061  0.00  0.00    +0.420 HD
ATOM      3  C   LIG    1       -2.077   3.693   2.443  0.00  0.00    +0.520 C 
ATOM      4  O   LIG    1       -1.000   4.053   2.869  0.00  0.00    -0.510 OA
ENDROOT
BRANCH   3   5
ATOM      5  C   LIG    1       -2.786   2.525   3.078  0.00  0.00    +0.190 C 
ATOM      6  C   LIG    1       -2.886   1.379   2.069  0.00  0.00    +0.080 C 
BRANCH   5   7
ATOM      7  O   LIG    1       -2.041   2.081   4.242  0.00  0.00    -0.320 OA
BRANCH   7   8
ATOM      8  C   LIG    1       -2.749   1.529   5.247  0.00  0.00    +0.510 C 
ATOM      9  O   LIG    1       -3.955   1.422   5.154  0.00  0.00    -0.500 OA
BRANCH   8  10
ATOM     10  C   LIG    1       -2.057   1.055   6.464  0.00  0.00    -0.120 A 
ATOM     11  C   LIG    1       -0.670   1.171   6.572  0.00  0.00    +0.110 A 
ATOM     12  C   LIG    1       -0.031   0.731   7.713  0.00  0.00    +0.020 A 
ATOM     13  C   LIG    1       -0.760   0.164   8.743  0.00  0.00    +0.090 A 
ATOM     14  C   LIG    1       -2.135   0.041   8.640  0.00  0.00    -0.110 A 
ATOM     15 BR   LIG    1       -3.122  -0.734  10.055  0.00  0.00    -0.030 Br
ATOM     16  C   LIG    1       -2.788   0.482   7.507  0.00  0.00    +0.120 A 
ENDBRANCH   8  10
ENDBRANCH   7   8
ENDBRANCH   5   7
ENDBRANCH   3   5
BRANCH   1  17
ATOM     17  C   LIG    1       -1.950   5.474   0.785  0.00  0.00    +0.320 C 
BRANCH  17  20
ATOM     18  N   LIG    1       -2.346   7.066  -1.067  0.00  0.00    -0.670 N 
ATOM     19  H   LIG    1       -1.519   7.510  -0.821  0.00  0.00    +0.410 HD
ATOM     20  C   LIG    1       -2.784   6.013  -0.349  0.00  0.00    +0.510 C 
ATOM     21  O   LIG    1       -3.849   5.498  -0.615  0.00  0.00    -0.510 OA
BRANCH  18  29
ATOM     22  C   LIG    1       -3.080   5.175  -3.062  0.00  0.00    +0.080 C 
ATOM     23  C   LIG    1       -3.462   6.629  -3.163  0.00  0.00    -0.070 A 
ATOM     24  C   LIG    1       -4.194   7.078  -4.245  0.00  0.00    +0.020 A 
ATOM     25  C   LIG    1       -4.540   8.413  -4.342  0.00  0.00    +0.020 A 
ATOM     26  C   LIG    1       -4.160   9.302  -3.353  0.00  0.00    +0.020 A 
ATOM     27  C   LIG    1       -3.432   8.859  -2.266  0.00  0.00    -0.090 A 
ATOM     28  C   LIG    1       -3.018   9.828  -1.190  0.00  0.00    +0.080 C 
ATOM     29  C   LIG    1       -3.083   7.518  -2.166  0.00  0.00    +0.130 A 
ENDBRANCH  18  29
ENDBRANCH  17  20
ENDBRANCH   1  17
TORSDOF 7
