REMARK  Name = ZINCpk00000P7tlD.0
REMARK                            x       y       z     vdW  Elec       q    Type
REMARK                         _______ _______ _______ _____ _____    ______ ____
ROOT
ATOM      1  C   LIG    1       -2.705   0.417  -1.258  0.00  0.00    +0.040 C 
ATOM      2  C   LIG    1       -2.522   1.245   0.015  0.00  0.00    +0.170 C 
ATOM      3  C   LIG    1       -3.562   2.385   0.058  0.00  0.00    +0.050 C 
ATOM      4  C   LIG    1       -2.755   3.573   0.645  0.00  0.00    +0.240 C 
ATOM      5  C   LIG    1       -1.356   3.335   0.026  0.00  0.00    +0.270 C 
ATOM      6  C   LIG    1       -2.680   0.352   1.247  0.00  0.00    +0.050 C 
ATOM      7  N   LIG    1       -1.191   1.870   0.018  0.00  0.00    -0.590 N 
ATOM      8  C   LIG    1       -0.014   1.212   0.009  0.00  0.00    +0.620 C 
ATOM      9  O   LIG    1        0.002  -0.004   0.002  0.00  0.00    -0.530 OA
ENDROOT
BRANCH   8  10
ATOM     10  C   LIG    1        1.253   1.967   0.001  0.00  0.00    +0.010 A 
ATOM     11  C   LIG    1        2.507   1.427  -0.014  0.00  0.00    +0.190 A 
ATOM     12  N   LIG    1        3.391   2.465  -0.018  0.00  0.00    -0.370 N 
ATOM     13  C   LIG    1        4.757   2.509  -0.031  0.00  0.00    +0.270 A 
ATOM     14  C   LIG    1        5.407   3.689  -0.031  0.00  0.00    +0.000 A 
ATOM     15  C   LIG    1        4.685   4.898  -0.018  0.00  0.00    +0.130 A 
ATOM     16  C   LIG    1        3.323   4.870  -0.005  0.00  0.00    +0.050 A 
ATOM     17  F   LIG    1        5.339   6.080  -0.018  0.00  0.00    -0.120 F 
ATOM     18  C   LIG    1        2.658   3.626  -0.005  0.00  0.00    +0.250 A 
ATOM     19  N   LIG    1        1.374   3.308   0.001  0.00  0.00    -0.460 NA
ENDBRANCH   8  10
BRANCH   4  20
ATOM     20  N   LIG    1       -3.313   4.854   0.206  0.00  0.00    -0.720 N 
ATOM     21  H   LIG    1       -3.896   4.890  -0.568  0.00  0.00    +0.410 HD
ATOM     22  C   LIG    1       -3.016   5.984   0.879  0.00  0.00    +0.520 C 
ATOM     23  O   LIG    1       -2.288   5.940   1.847  0.00  0.00    -0.520 OA
BRANCH  22  24
ATOM     24  C   LIG    1       -3.590   7.302   0.427  0.00  0.00    +0.240 C 
BRANCH  24  25
ATOM     25  C   LIG    1       -3.119   8.374   1.319  0.00  0.00    +0.210 C 
ATOM     26  N   LIG    1       -2.755   9.201   2.008  0.00  0.00    -0.410 NA
ENDBRANCH  24  25
ENDBRANCH  22  24
ENDBRANCH   4  20
TORSDOF 4
