REMARK  Name = ZINCvU000000090u.0
REMARK                            x       y       z     vdW  Elec       q    Type
REMARK                         _______ _______ _______ _____ _____    ______ ____
ROOT
ATOM      1  C   LIG    1       -6.275   6.027   0.588  0.00  0.00    +0.060 A 
ATOM      2  C   LIG    1       -6.548   7.390   0.711  0.00  0.00    -0.040 A 
ATOM      3  C   LIG    1       -5.426   8.335   0.731  0.00  0.00    +0.340 A 
ATOM      4  N   LIG    1       -5.392   9.651   0.836  0.00  0.00    -0.490 NA
ATOM      5  C   LIG    1       -4.106  10.077   0.806  0.00  0.00    +0.100 A 
ATOM      6  C   LIG    1       -3.515  11.343   0.879  0.00  0.00    +0.060 A 
ATOM      7  C   LIG    1       -2.145  11.461   0.820  0.00  0.00    +0.040 A 
ATOM      8  C   LIG    1       -1.345  10.335   0.690  0.00  0.00    +0.030 A 
ATOM      9  C   LIG    1       -1.912   9.079   0.617  0.00  0.00    +0.050 A 
ATOM     10  C   LIG    1       -3.290   8.939   0.674  0.00  0.00    +0.010 A 
ATOM     11  N   LIG    1       -4.145   7.850   0.629  0.00  0.00    -0.380 N 
ATOM     12  C   LIG    1       -3.919   6.507   0.509  0.00  0.00    +0.130 A 
ATOM     13  C   LIG    1       -4.959   5.602   0.482  0.00  0.00    -0.040 A 
ENDROOT
BRANCH   2  14
ATOM     14  C   LIG    1       -7.898   7.857   0.816  0.00  0.00    +0.270 C 
ATOM     15  N   LIG    1       -8.968   8.227   0.899  0.00  0.00    -0.400 NA
ENDBRANCH   2  14
BRANCH   1  16
ATOM     16  C   LIG    1       -7.401   5.026   0.564  0.00  0.00    +0.080 C 
BRANCH  16  18
ATOM     17  C   LIG    1       -8.913   3.691  -0.910  0.00  0.00    +0.030 C 
ATOM     18  C   LIG    1       -7.770   4.708  -0.886  0.00  0.00    +0.020 C 
ENDBRANCH  16  18
ENDBRANCH   1  16
BRANCH  12  19
ATOM     19  S   LIG    1       -2.263   5.920   0.380  0.00  0.00    +0.060 S 
BRANCH  19  20
ATOM     20  C   LIG    1       -2.569   4.141   0.252  0.00  0.00    +0.100 C 
BRANCH  20  21
ATOM     21  C   LIG    1       -1.255   3.413   0.128  0.00  0.00    +0.530 C 
ATOM     22  N   LIG    1       -1.237   2.069   0.019  0.00  0.00    -0.660 N 
ATOM     23  H   LIG    1       -2.070   1.577  -0.047  0.00  0.00    +0.410 HD
ATOM     24  O   LIG    1       -0.215   4.035   0.127  0.00  0.00    -0.500 OA
BRANCH  22  25
ATOM     25  C   LIG    1       -0.017   1.385   0.002  0.00  0.00    +0.130 A 
ATOM     26  C   LIG    1        1.091   1.953  -0.615  0.00  0.00    +0.020 A 
ATOM     27  C   LIG    1        2.292   1.273  -0.635  0.00  0.00    +0.030 A 
ATOM     28  C   LIG    1        2.394   0.028  -0.042  0.00  0.00    -0.090 A 
ATOM     29  C   LIG    1        1.293  -0.540   0.573  0.00  0.00    -0.070 A 
ATOM     30  C   LIG    1        1.408  -1.898   1.217  0.00  0.00    +0.090 C 
ATOM     31  C   LIG    1        3.707  -0.711  -0.066  0.00  0.00    +0.090 C 
ATOM     32  C   LIG    1        0.089   0.135   0.596  0.00  0.00    -0.010 A 
ENDBRANCH  22  25
ENDBRANCH  20  21
ENDBRANCH  19  20
ENDBRANCH  12  19
TORSDOF 7
