REMARK  Name = ZINCpe00000FUcW7.0
REMARK                            x       y       z     vdW  Elec       q    Type
REMARK                         _______ _______ _______ _____ _____    ______ ____
ROOT
ATOM      1  N   LIG    1       -1.575   2.565   1.263  0.00  0.00    -0.540 N 
ATOM      2  C   LIG    1       -1.991   3.285   0.066  0.00  0.00    +0.270 C 
ATOM      3  C   LIG    1       -0.985   3.070  -1.065  0.00  0.00    +0.030 C 
ATOM      4  C   LIG    1       -0.734   1.565  -1.220  0.00  0.00    +0.040 C 
ATOM      5  C   LIG    1       -0.001   1.067   0.029  0.00  0.00    +0.270 C 
ATOM      6  C   LIG    1       -0.705   1.556   1.262  0.00  0.00    +0.500 C 
ATOM      7  O   LIG    1       -0.467   1.004   2.315  0.00  0.00    -0.490 OA
ENDROOT
BRANCH   1  12
ATOM      8  N   LIG    1       -1.570   3.812   3.372  0.00  0.00    -0.360 N 
ATOM      9  N   LIG    1       -2.445   3.931   4.459  0.00  0.00    -0.280 NA
ATOM     10  C   LIG    1       -3.483   3.166   4.239  0.00  0.00    +0.240 A 
ATOM     11  C   LIG    1       -3.311   2.537   3.002  0.00  0.00    -0.100 A 
ATOM     12  C   LIG    1       -2.124   2.955   2.484  0.00  0.00    +0.300 A 
BRANCH   8  14
ATOM     13  C   LIG    1       -0.516   5.894   2.640  0.00  0.00    +0.040 C 
ATOM     14  C   LIG    1       -0.284   4.498   3.221  0.00  0.00    +0.320 C 
ENDBRANCH   8  14
ENDBRANCH   1  12
BRANCH   5  15
ATOM     15  N   LIG    1        1.374   1.572   0.020  0.00  0.00    -1.110 NA
ATOM     16  H   LIG    1        1.564   2.454  -0.336  0.00  0.00    +0.420 HD
BRANCH  15  17
ATOM     17  S   LIG    1        2.603   0.637   0.618  0.00  0.00    +2.590 S 
ATOM     18  O   LIG    1        2.146   0.238   1.903  0.00  0.00    -0.920 OA
ATOM     19  O   LIG    1        3.762   1.447   0.472  0.00  0.00    -0.950 OA
BRANCH  17  20
ATOM     20  C   LIG    1        2.675  -0.787  -0.502  0.00  0.00    -0.350 C 
BRANCH  20  21
ATOM     21  C   LIG    1        3.787  -1.736  -0.049  0.00  0.00    +0.050 C 
BRANCH  21  22
ATOM     22  C   LIG    1        3.848  -2.938  -0.995  0.00  0.00    +0.180 C 
ATOM     23  C   LIG    1        4.888  -3.956  -0.480  0.00  0.00    +0.010 C 
ATOM     24  C   LIG    1        5.555  -4.439  -1.797  0.00  0.00    +0.010 C 
ATOM     25  C   LIG    1        5.511  -3.142  -2.642  0.00  0.00    +0.200 C 
ATOM     26  O   LIG    1        4.267  -2.511  -2.296  0.00  0.00    -0.380 OA
ENDBRANCH  21  22
ENDBRANCH  20  21
ENDBRANCH  17  20
ENDBRANCH  15  17
ENDBRANCH   5  15
TORSDOF 7
