REMARK  Name = ZINCvU00000004tm.0
REMARK                            x       y       z     vdW  Elec       q    Type
REMARK                         _______ _______ _______ _____ _____    ______ ____
ROOT
ATOM      1  C   LIG    1       -1.900   8.263   0.830  0.00  0.00    +0.160 C 
ATOM      2  C   LIG    1       -1.679   7.098   1.760  0.00  0.00    +0.120 A 
ATOM      3  N   LIG    1       -1.846   7.111   3.062  0.00  0.00    -0.280 NA
ATOM      4  N   LIG    1       -1.539   5.836   3.564  0.00  0.00    -0.330 N 
ATOM      5  C   LIG    1       -1.186   5.060   2.518  0.00  0.00    +0.320 A 
ATOM      6  N   LIG    1       -0.803   3.725   2.464  0.00  0.00    -0.630 N 
ATOM      7  H   LIG    1       -0.544   3.250   3.269  0.00  0.00    +0.420 HD
ATOM      8  C   LIG    1       -0.801   3.095   1.245  0.00  0.00    +0.230 C 
ATOM      9  C   LIG    1       -0.740   1.585   1.258  0.00  0.00    +0.090 C 
ATOM     10  C   LIG    1       -0.013   1.086   0.008  0.00  0.00    +0.060 C 
ATOM     11  C   LIG    1       -0.765   1.599  -1.225  0.00  0.00    +0.030 C 
ATOM     12  C   LIG    1       -0.848   3.098  -1.153  0.00  0.00    +0.400 C 
ATOM     13  O   LIG    1       -0.910   3.739  -2.184  0.00  0.00    -0.460 OA
ATOM     14  C   LIG    1       -0.857   3.776   0.079  0.00  0.00    -0.270 C 
ATOM     15  C   LIG    1       -0.933   5.286   0.024  0.00  0.00    +0.210 C 
ATOM     16  C   LIG    1       -1.264   5.827   1.386  0.00  0.00    -0.250 A 
ENDROOT
BRANCH  15  17
ATOM     17  C   LIG    1        0.394   5.839  -0.426  0.00  0.00    -0.080 A 
ATOM     18  C   LIG    1        1.532   5.594   0.318  0.00  0.00    +0.040 A 
ATOM     19  C   LIG    1        2.752   6.097  -0.097  0.00  0.00    -0.030 A 
ATOM     20  C   LIG    1        2.834   6.855  -1.250  0.00  0.00    +0.040 A 
ATOM     21  C   LIG    1        1.698   7.107  -1.995  0.00  0.00    -0.060 A 
ATOM     22  C   LIG    1        0.474   6.599  -1.584  0.00  0.00    +0.120 A 
BRANCH  22  23
ATOM     23  O   LIG    1       -0.645   6.846  -2.314  0.00  0.00    -0.310 OA
BRANCH  23  24
ATOM     24  C   LIG    1       -0.488   7.636  -3.494  0.00  0.00    +0.590 C 
ATOM     25  F   LIG    1        0.397   6.998  -4.369  0.00  0.00    -0.200 F 
ATOM     26  F   LIG    1        0.021   8.893  -3.150  0.00  0.00    -0.200 F 
ENDBRANCH  23  24
ENDBRANCH  22  23
ENDBRANCH  15  17
BRANCH   4  27
ATOM     27  C   LIG    1       -1.590   5.441   4.908  0.00  0.00    +0.150 A 
ATOM     28  C   LIG    1       -1.985   4.152   5.239  0.00  0.00    -0.010 A 
ATOM     29  C   LIG    1       -2.030   3.764   6.564  0.00  0.00    +0.040 A 
ATOM     30  C   LIG    1       -1.692   4.661   7.561  0.00  0.00    +0.010 A 
ATOM     31  C   LIG    1       -1.303   5.947   7.234  0.00  0.00    +0.040 A 
ATOM     32  C   LIG    1       -1.251   6.340   5.910  0.00  0.00    +0.030 A 
ENDBRANCH   4  27
TORSDOF 4
