REMARK  Name = ZINCqH0000008aea.0
REMARK                            x       y       z     vdW  Elec       q    Type
REMARK                         _______ _______ _______ _____ _____    ______ ____
ROOT
ATOM      1  C   LIG    1        1.802   2.663   1.067  0.00  0.00    +0.030 C 
ATOM      2  C   LIG    1        1.324   1.811  -0.111  0.00  0.00    +0.180 C 
ENDROOT
BRANCH   2   3
ATOM      3  N   LIG    1        2.300   0.745  -0.373  0.00  0.00    -0.520 NA
ATOM      4  C   LIG    1        2.192  -0.325   0.629  0.00  0.00    +0.190 C 
ATOM      5  C   LIG    1        3.168  -1.450   0.277  0.00  0.00    +0.210 C 
ATOM      6  N   LIG    1        4.535  -0.912   0.229  0.00  0.00    -0.490 N 
ATOM      7  C   LIG    1        4.642   0.158  -0.773  0.00  0.00    +0.200 C 
ATOM      8  C   LIG    1        3.667   1.283  -0.421  0.00  0.00    +0.200 C 
BRANCH   6   9
ATOM      9  C   LIG    1        5.464  -1.927  -0.021  0.00  0.00    +0.100 A 
ATOM     10  C   LIG    1        6.323  -1.832  -1.108  0.00  0.00    +0.000 A 
ATOM     11  C   LIG    1        7.243  -2.833  -1.349  0.00  0.00    +0.010 A 
ATOM     12  C   LIG    1        7.303  -3.936  -0.514  0.00  0.00    +0.070 A 
ATOM     13  C   LIG    1        6.444  -4.035   0.568  0.00  0.00    +0.010 A 
ATOM     14  F   LIG    1        8.200  -4.917  -0.755  0.00  0.00    -0.140 F 
ATOM     15  C   LIG    1        5.526  -3.034   0.816  0.00  0.00    +0.020 A 
ENDBRANCH   6   9
ENDBRANCH   2   3
BRANCH   2  16
ATOM     16  C   LIG    1        1.187   2.679  -1.336  0.00  0.00    +0.530 C 
ATOM     17  N   LIG    1        0.166   3.554  -1.431  0.00  0.00    -0.670 N 
ATOM     18  H   LIG    1       -0.436   3.680  -0.682  0.00  0.00    +0.420 HD
ATOM     19  O   LIG    1        1.999   2.594  -2.233  0.00  0.00    -0.490 OA
BRANCH  17  20
ATOM     20  C   LIG    1       -0.025   4.281  -2.614  0.00  0.00    +0.130 A 
ATOM     21  C   LIG    1        0.531   3.832  -3.803  0.00  0.00    +0.070 A 
ATOM     22  C   LIG    1        0.336   4.547  -4.969  0.00  0.00    +0.060 A 
ATOM     23  C   LIG    1       -0.402   5.718  -4.950  0.00  0.00    -0.030 A 
ATOM     24  C   LIG    1       -0.953   6.172  -3.765  0.00  0.00    +0.030 A 
ATOM     25 CL   LIG    1       -0.638   6.617  -6.416  0.00  0.00    -0.050 Cl
ATOM     26  C   LIG    1       -0.766   5.457  -2.596  0.00  0.00    +0.080 A 
ATOM     27  F   LIG    1       -1.304   5.901  -1.438  0.00  0.00    -0.130 F 
ENDBRANCH  17  20
ENDBRANCH   2  16
TORSDOF 4
