REMARK  Name = ZINCrg000000oQr8.0
REMARK                            x       y       z     vdW  Elec       q    Type
REMARK                         _______ _______ _______ _____ _____    ______ ____
ROOT
ATOM      1  C   LIG    1       -3.553  -4.891   0.026  0.00  0.00    +0.230 C 
ENDROOT
BRANCH   1   2
ATOM      2  O   LIG    1       -4.193  -4.594   1.268  0.00  0.00    -0.530 OA
ATOM      3  H   LIG    1       -3.718  -4.922   2.044  0.00  0.00    +0.370 HD
ENDBRANCH   1   2
BRANCH   1   4
ATOM      4  C   LIG    1       -3.425  -6.408  -0.131  0.00  0.00    +0.160 C 
BRANCH   4   8
ATOM      5  N   LIG    1       -6.887  -8.678  -0.822  0.00  0.00    -1.010 NA
ATOM      6  C   LIG    1       -6.896  -7.285  -1.294  0.00  0.00    +0.300 C 
ATOM      7  C   LIG    1       -5.447  -6.798  -1.404  0.00  0.00    +0.170 C 
ATOM      8  N   LIG    1       -4.762  -7.016  -0.123  0.00  0.00    -0.520 NA
ATOM      9  C   LIG    1       -4.689  -8.445   0.206  0.00  0.00    +0.170 C 
ATOM     10  C   LIG    1       -6.106  -8.999   0.383  0.00  0.00    +0.300 C 
BRANCH   5  11
ATOM     11  S   LIG    1       -7.733  -9.853  -1.625  0.00  0.00    +2.780 S 
ATOM     12  O   LIG    1       -8.765  -9.187  -2.340  0.00  0.00    -0.970 OA
ATOM     13  O   LIG    1       -7.983 -10.884  -0.680  0.00  0.00    -0.970 OA
BRANCH  11  15
ATOM     14  C   LIG    1       -5.870 -11.644  -2.423  0.00  0.00    +0.290 C 
ATOM     15  N   LIG    1       -6.717 -10.498  -2.763  0.00  0.00    -1.020 NA
ATOM     16  C   LIG    1       -6.665  -9.921  -4.109  0.00  0.00    +0.290 C 
ENDBRANCH  11  15
ENDBRANCH   5  11
ENDBRANCH   4   8
ENDBRANCH   1   4
BRANCH   1  17
ATOM     17  C   LIG    1       -2.160  -4.257   0.005  0.00  0.00    +0.170 C 
BRANCH  17  18
ATOM     18  O   LIG    1       -2.285  -2.834   0.035  0.00  0.00    -0.300 OA
BRANCH  18  19
ATOM     19  C   LIG    1       -1.133  -2.114   0.022  0.00  0.00    +0.130 A 
ATOM     20  C   LIG    1       -1.190  -0.749   0.049  0.00  0.00    -0.010 A 
ATOM     21  C   LIG    1       -0.000  -0.004   0.035  0.00  0.00    -0.010 A 
ATOM     22  C   LIG    1       -0.020   1.401   0.061  0.00  0.00    +0.010 A 
ATOM     23  C   LIG    1        1.153   2.092   0.046  0.00  0.00    +0.020 A 
ATOM     24  C   LIG    1        2.376   1.427   0.004  0.00  0.00    -0.010 A 
ATOM     25  C   LIG    1        2.434   0.067  -0.022  0.00  0.00    +0.040 A 
ATOM     26  C   LIG    1        1.245  -0.680  -0.007  0.00  0.00    -0.080 A 
ATOM     27  C   LIG    1        1.267  -2.086  -0.034  0.00  0.00    +0.070 A 
ATOM     28  C   LIG    1        0.097  -2.779  -0.019  0.00  0.00    -0.060 A 
ENDBRANCH  18  19
ENDBRANCH  17  18
ENDBRANCH   1  17
TORSDOF 8
