REMARK  Name = ZINCnE000001Ub3z.0
REMARK                            x       y       z     vdW  Elec       q    Type
REMARK                         _______ _______ _______ _____ _____    ______ ____
ROOT
ATOM      1  N   LIG    1       -2.829   0.690  -1.415  0.00  0.00    -1.060 NA
ENDROOT
BRANCH   1   2
ATOM      2  C   LIG    1       -3.935  -0.119  -1.696  0.00  0.00    +0.240 A 
ATOM      3  C   LIG    1       -4.019  -0.805  -2.905  0.00  0.00    +0.020 A 
ATOM      4  C   LIG    1       -5.130  -1.598  -3.137  0.00  0.00    +0.010 A 
ATOM      5  C   LIG    1       -6.122  -1.673  -2.168  0.00  0.00    +0.200 A 
ATOM      6  N   LIG    1       -6.013  -1.003  -1.033  0.00  0.00    -0.450 NA
ATOM      7  C   LIG    1       -4.966  -0.243  -0.775  0.00  0.00    +0.120 A 
BRANCH   5   8
ATOM      8  N   LIG    1       -7.253  -2.466  -2.396  0.00  0.00    -0.380 N 
ATOM      9  C   LIG    1       -8.353  -2.572  -1.583  0.00  0.00    +0.140 A 
ATOM     10  C   LIG    1       -9.197  -3.434  -2.180  0.00  0.00    +0.120 A 
ATOM     11  N   LIG    1       -8.630  -3.855  -3.320  0.00  0.00    -0.490 NA
ATOM     12  C   LIG    1       -7.465  -3.283  -3.461  0.00  0.00    +0.380 A 
ENDBRANCH   5   8
ENDBRANCH   1   2
BRANCH   1  14
ATOM     13  O   LIG    1       -2.621   0.520   1.038  0.00  0.00    -1.000 OA
ATOM     14  S   LIG    1       -2.743   1.506   0.023  0.00  0.00    +2.600 S 
ATOM     15  O   LIG    1       -3.785   2.472  -0.002  0.00  0.00    -1.020 OA
BRANCH  14  16
ATOM     16  C   LIG    1       -1.229   2.408   0.021  0.00  0.00    -0.610 A 
ATOM     17  C   LIG    1       -1.247   3.789   0.034  0.00  0.00    +0.140 A 
ATOM     18  C   LIG    1       -0.059   4.497   0.027  0.00  0.00    +0.000 A 
ATOM     19  C   LIG    1        1.147   3.824   0.012  0.00  0.00    +0.100 A 
ATOM     20  C   LIG    1        1.167   2.441   0.004  0.00  0.00    -0.120 A 
ATOM     21 BR   LIG    1        2.818   1.518  -0.017  0.00  0.00    -0.030 Br
ATOM     22  C   LIG    1       -0.021   1.732   0.012  0.00  0.00    +0.080 A 
ATOM     23 CL   LIG    1        0.002  -0.004   0.002  0.00  0.00    -0.010 Cl
ENDBRANCH  14  16
ENDBRANCH   1  14
TORSDOF 4
