REMARK  Name = ZINCvU0000000HHb.0
REMARK                            x       y       z     vdW  Elec       q    Type
REMARK                         _______ _______ _______ _____ _____    ______ ____
ROOT
ATOM      1  C   LIG    1        1.872  -1.450   3.355  0.00  0.00    +0.160 A 
ATOM      2  N   LIG    1        2.036  -0.158   3.360  0.00  0.00    -0.270 NA
ATOM      3  N   LIG    1        1.506   0.358   2.309  0.00  0.00    -0.290 NA
ATOM      4  C   LIG    1        0.964  -0.585   1.574  0.00  0.00    +0.150 A 
ATOM      5  N   LIG    1        1.183  -1.769   2.217  0.00  0.00    -0.450 N 
ENDROOT
BRANCH   1   6
ATOM      6  C   LIG    1        2.353  -2.415   4.408  0.00  0.00    +0.270 C 
BRANCH   6   7
ATOM      7  N   LIG    1        1.823  -2.014   5.718  0.00  0.00    -0.520 NA
ATOM      8  C   LIG    1        0.363  -2.175   5.768  0.00  0.00    +0.190 C 
ATOM      9  C   LIG    1        2.212  -0.636   6.044  0.00  0.00    +0.210 C 
ENDBRANCH   6   7
BRANCH   6  11
ATOM     10  C   LIG    1        4.372  -3.450   5.454  0.00  0.00    +0.040 C 
ATOM     11  C   LIG    1        3.882  -2.403   4.451  0.00  0.00    +0.040 C 
ENDBRANCH   6  11
ENDBRANCH   1   6
BRANCH   4  12
ATOM     12  S   LIG    1        0.119  -0.366   0.043  0.00  0.00    +0.060 S 
BRANCH  12  13
ATOM     13  C   LIG    1        0.244   1.432  -0.129  0.00  0.00    +0.150 C 
ATOM     14  C   LIG    1        1.712   1.828  -0.294  0.00  0.00    +0.110 C 
BRANCH  13  15
ATOM     15  C   LIG    1       -0.535   1.875  -1.341  0.00  0.00    +0.170 A 
ATOM     16  N   LIG    1       -0.510   1.316  -2.518  0.00  0.00    -0.250 NA
ATOM     17  N   LIG    1       -1.297   1.951  -3.314  0.00  0.00    -0.260 NA
ATOM     18  C   LIG    1       -1.850   2.954  -2.667  0.00  0.00    +0.250 A 
ATOM     19  O   LIG    1       -1.377   2.923  -1.404  0.00  0.00    -0.210 OA
BRANCH  18  20
ATOM     20  C   LIG    1       -2.805   3.926  -3.218  0.00  0.00    -0.160 A 
ATOM     21  C   LIG    1       -3.269   3.937  -4.498  0.00  0.00    +0.110 A 
ATOM     22  C   LIG    1       -4.160   4.951  -4.774  0.00  0.00    +0.020 A 
ATOM     23  C   LIG    1       -4.431   5.764  -3.748  0.00  0.00    -0.010 A 
ATOM     24  S   LIG    1       -3.534   5.255  -2.324  0.00  0.00    +0.180 S 
ENDBRANCH  18  20
ENDBRANCH  13  15
ENDBRANCH  12  13
ENDBRANCH   4  12
BRANCH   5  25
ATOM     25  C   LIG    1        0.768  -3.104   1.780  0.00  0.00    +0.360 C 
BRANCH  25  26
ATOM     26  C   LIG    1        1.852  -3.714   0.930  0.00  0.00    -0.130 A 
ATOM     27  C   LIG    1        1.847  -3.523  -0.439  0.00  0.00    +0.040 A 
ATOM     28  C   LIG    1        2.845  -4.078  -1.219  0.00  0.00    +0.010 A 
ATOM     29  C   LIG    1        3.841  -4.834  -0.630  0.00  0.00    +0.030 A 
ATOM     30  C   LIG    1        3.844  -5.030   0.738  0.00  0.00    +0.010 A 
ATOM     31  C   LIG    1        2.849  -4.470   1.518  0.00  0.00    +0.020 A 
ENDBRANCH  25  26
ENDBRANCH   5  25
TORSDOF 9
