REMARK  Name = ZINCrH000004v8JW.0
REMARK                            x       y       z     vdW  Elec       q    Type
REMARK                         _______ _______ _______ _____ _____    ______ ____
ROOT
ATOM      1  C   LIG    1        6.218  -0.356   0.115  0.00  0.00    +0.210 A 
ATOM      2  C   LIG    1        6.357  -1.738   0.104  0.00  0.00    -0.030 A 
ATOM      3  C   LIG    1        7.614  -2.305   0.170  0.00  0.00    +0.150 A 
ATOM      4  C   LIG    1        8.734  -1.499   0.257  0.00  0.00    -0.690 A 
ATOM      5  C   LIG    1        8.600  -0.123   0.274  0.00  0.00    +0.150 A 
ATOM      6  C   LIG    1        7.345   0.451   0.203  0.00  0.00    +0.000 A 
ENDROOT
BRANCH   1   9
ATOM      7  O   LIG    1        5.697   1.883  -1.226  0.00  0.00    -0.500 OA
ATOM      8  C   LIG    1        4.772   1.385  -0.614  0.00  0.00    +0.570 C 
ATOM      9  N   LIG    1        4.947   0.221   0.043  0.00  0.00    -0.670 N 
ATOM     10  H   LIG    1        4.191  -0.216   0.465  0.00  0.00    +0.410 HD
BRANCH   8  11
ATOM     11  C   LIG    1        3.459   2.055  -0.589  0.00  0.00    -0.140 A 
ATOM     12  C   LIG    1        2.364   1.448   0.012  0.00  0.00    +0.070 A 
ATOM     13  C   LIG    1        1.129   2.081   0.035  0.00  0.00    -0.010 A 
ATOM     14  C   LIG    1        0.940   3.308  -0.525  0.00  0.00    +0.070 A 
ATOM     15  C   LIG    1        2.003   3.981  -1.150  0.00  0.00    -0.060 A 
ATOM     16  C   LIG    1        1.825   5.248  -1.732  0.00  0.00    +0.020 A 
ATOM     17  C   LIG    1        2.879   5.869  -2.329  0.00  0.00    +0.020 A 
ATOM     18  C   LIG    1        4.135   5.268  -2.373  0.00  0.00    +0.020 A 
ATOM     19  C   LIG    1        4.343   4.040  -1.819  0.00  0.00    +0.040 A 
ATOM     20  C   LIG    1        3.282   3.373  -1.196  0.00  0.00    -0.010 A 
ENDBRANCH   8  11
ENDBRANCH   1   9
BRANCH   4  21
ATOM     21  S   LIG    1       10.336  -2.227   0.348  0.00  0.00    +2.700 S 
ATOM     22  O   LIG    1       11.250  -1.244  -0.120  0.00  0.00    -0.960 OA
ATOM     23  O   LIG    1       10.223  -3.520  -0.229  0.00  0.00    -0.950 OA
BRANCH  21  24
ATOM     24  N   LIG    1       10.679  -2.459   1.952  0.00  0.00    -1.110 NA
ATOM     25  H   LIG    1       11.408  -1.972   2.367  0.00  0.00    +0.420 HD
BRANCH  24  26
ATOM     26  C   LIG    1        9.882  -3.400   2.743  0.00  0.00    +0.300 C 
BRANCH  26  27
ATOM     27  C   LIG    1       10.611  -3.711   4.051  0.00  0.00    -0.060 C 
ATOM     28  C   LIG    1       11.065  -5.154   4.281  0.00  0.00    +0.020 C 
ATOM     29  C   LIG    1        9.884  -4.588   5.073  0.00  0.00    +0.030 C 
ENDBRANCH  26  27
ENDBRANCH  24  26
ENDBRANCH  21  24
ENDBRANCH   4  21
TORSDOF 6
