REMARK  Name = ZINCtV000002Kmol.0
REMARK                            x       y       z     vdW  Elec       q    Type
REMARK                         _______ _______ _______ _____ _____    ______ ____
ROOT
ATOM      1  N   LIG    1       -8.106  -1.463  -2.607  0.00  0.00    -0.660 N 
ATOM      2  H   LIG    1       -8.476  -1.808  -3.434  0.00  0.00    +0.410 HD
ATOM      3  C   LIG    1       -8.735  -1.696  -1.438  0.00  0.00    +0.560 C 
ATOM      4  O   LIG    1       -8.224  -1.345  -0.392  0.00  0.00    -0.510 OA
ENDROOT
BRANCH   1  11
ATOM      5  C   LIG    1       -7.604   0.208  -4.853  0.00  0.00    +0.110 C 
ATOM      6  C   LIG    1       -6.633   0.106  -3.705  0.00  0.00    -0.090 A 
ATOM      7  C   LIG    1       -5.462   0.836  -3.725  0.00  0.00    +0.050 A 
ATOM      8  C   LIG    1       -4.566   0.741  -2.666  0.00  0.00    -0.090 A 
ATOM      9  C   LIG    1       -4.848  -0.093  -1.591  0.00  0.00    +0.010 A 
ATOM     10  C   LIG    1       -6.022  -0.818  -1.569  0.00  0.00    +0.050 A 
ATOM     11  C   LIG    1       -6.917  -0.723  -2.627  0.00  0.00    +0.130 A 
BRANCH   8  12
ATOM     12  S   LIG    1       -3.071   1.672  -2.691  0.00  0.00    -0.120 S 
BRANCH  12  13
ATOM     13  C   LIG    1       -2.265   1.192  -1.138  0.00  0.00    +0.020 C 
ATOM     14  C   LIG    1       -0.803   1.643  -1.162  0.00  0.00    +0.040 C 
ATOM     15  C   LIG    1       -0.124   1.238   0.148  0.00  0.00    +0.020 C 
ATOM     16  C   LIG    1       -0.844   1.904   1.323  0.00  0.00    +0.010 C 
ATOM     17  C   LIG    1       -2.306   1.453   1.346  0.00  0.00    +0.010 C 
ATOM     18  C   LIG    1       -2.985   1.858   0.036  0.00  0.00    +0.030 C 
ENDBRANCH  12  13
ENDBRANCH   8  12
ENDBRANCH   1  11
BRANCH   3  19
ATOM     19  C   LIG    1      -10.046  -2.379  -1.428  0.00  0.00    -0.110 A 
ATOM     20  C   LIG    1      -10.636  -2.777  -2.630  0.00  0.00    +0.050 A 
ATOM     21  C   LIG    1      -11.854  -3.419  -2.620  0.00  0.00    +0.080 A 
ATOM     22  C   LIG    1      -12.506  -3.660  -1.409  0.00  0.00    -0.000 A 
ATOM     23  C   LIG    1      -11.919  -3.256  -0.207  0.00  0.00    +0.070 A 
ATOM     24  C   LIG    1      -10.698  -2.621  -0.217  0.00  0.00    +0.090 A 
BRANCH  22  25
ATOM     25  C   LIG    1      -13.817  -4.343  -1.398  0.00  0.00    +0.220 A 
ATOM     26  N   LIG    1      -14.491  -4.773  -2.450  0.00  0.00    -0.470 NA
ATOM     27  C   LIG    1      -15.612  -5.324  -1.958  0.00  0.00    +0.180 A 
ATOM     28  N   LIG    1      -15.577  -5.200  -0.664  0.00  0.00    -0.380 NA
ATOM     29  C   LIG    1      -16.714  -5.964  -2.761  0.00  0.00    +0.200 C 
ATOM     30  O   LIG    1      -14.557  -4.640  -0.319  0.00  0.00    +0.090 OA
ENDBRANCH  22  25
ENDBRANCH   3  19
TORSDOF 5
