REMARK  Name = ZINCqH0000031ZwB.0
REMARK                            x       y       z     vdW  Elec       q    Type
REMARK                         _______ _______ _______ _____ _____    ______ ____
ROOT
ATOM      1  N   LIG    1       -2.822   0.101   0.016  0.00  0.00    -0.730 N 
ATOM      2  H   LIG    1       -2.102  -0.549   0.010  0.00  0.00    +0.390 HD
ATOM      3  C   LIG    1       -2.540   1.419   0.021  0.00  0.00    +0.590 C 
ATOM      4  O   LIG    1       -3.443   2.234   0.029  0.00  0.00    -0.520 OA
ENDROOT
BRANCH   3   5
ATOM      5  C   LIG    1       -1.139   1.872   0.017  0.00  0.00    -0.270 A 
ATOM      6  C   LIG    1       -0.013   1.076   0.008  0.00  0.00    +0.300 A 
ATOM      7  N   LIG    1        1.061   1.879   0.002  0.00  0.00    -0.460 N 
ATOM      8  H   LIG    1        1.984   1.579  -0.008  0.00  0.00    +0.450 HD
ATOM      9  N   LIG    1        0.651   3.216   0.012  0.00  0.00    -0.260 NA
ATOM     10  C   LIG    1       -0.664   3.261   0.025  0.00  0.00    +0.200 A 
BRANCH  10  11
ATOM     11  C   LIG    1       -1.502   4.476   0.037  0.00  0.00    +0.050 A 
ATOM     12  C   LIG    1       -1.209   5.641   0.676  0.00  0.00    -0.010 A 
ATOM     13  C   LIG    1       -2.276   6.524   0.419  0.00  0.00    -0.070 A 
ATOM     14  C   LIG    1       -3.163   5.860  -0.348  0.00  0.00    +0.190 A 
ATOM     15  O   LIG    1       -2.692   4.623  -0.577  0.00  0.00    -0.140 OA
ENDBRANCH  10  11
ENDBRANCH   3   5
BRANCH   1  16
ATOM     16  C   LIG    1       -4.215  -0.350   0.020  0.00  0.00    +0.280 C 
BRANCH  16  19
ATOM     17  C   LIG    1       -5.267  -3.512   0.924  0.00  0.00    +0.180 C 
ATOM     18  C   LIG    1       -4.213  -2.505   1.419  0.00  0.00    +0.010 C 
ATOM     19  C   LIG    1       -4.256  -1.880   0.013  0.00  0.00    -0.010 C 
ATOM     20  C   LIG    1       -5.668  -2.455  -0.105  0.00  0.00    -0.090 C 
ATOM     21  C   LIG    1       -6.248  -2.854  -1.463  0.00  0.00    +0.020 C 
ATOM     22  C   LIG    1       -7.630  -2.513  -0.875  0.00  0.00    +0.010 C 
ATOM     23  C   LIG    1       -6.901  -1.575   0.104  0.00  0.00    +0.050 C 
BRANCH  17  24
ATOM     24  O   LIG    1       -6.288  -3.795   1.884  0.00  0.00    -0.350 OA
BRANCH  24  26
ATOM     25  C   LIG    1       -4.917  -5.397   3.064  0.00  0.00    +0.000 C 
ATOM     26  C   LIG    1       -6.261  -5.133   2.383  0.00  0.00    +0.110 C 
ATOM     27  C   LIG    1       -6.447  -6.114   1.224  0.00  0.00    +0.010 C 
ATOM     28  C   LIG    1       -7.392  -5.322   3.397  0.00  0.00    +0.050 C 
ENDBRANCH  24  26
ENDBRANCH  17  24
ENDBRANCH  16  19
ENDBRANCH   1  16
TORSDOF 6
