REMARK  Name = ZINCtj00000nxPs9.0
REMARK                            x       y       z     vdW  Elec       q    Type
REMARK                         _______ _______ _______ _____ _____    ______ ____
ROOT
ATOM      1  O   LIG    1       -1.748   2.152  -3.538  0.00  0.00    -0.520 OA
ATOM      2  C   LIG    1       -0.808   1.395  -3.659  0.00  0.00    +0.520 C 
ATOM      3  N   LIG    1       -0.415   1.001  -4.887  0.00  0.00    -0.720 N 
ATOM      4  H   LIG    1        0.337   0.396  -4.984  0.00  0.00    +0.400 HD
ENDROOT
BRANCH   3   5
ATOM      5  C   LIG    1       -1.123   1.486  -6.074  0.00  0.00    +0.260 C 
ATOM      6  C   LIG    1       -0.921   0.504  -7.247  0.00  0.00    +0.050 C 
ATOM      7  C   LIG    1       -0.805   1.419  -8.492  0.00  0.00    +0.000 C 
ATOM      8  C   LIG    1        0.003   2.626  -7.954  0.00  0.00    +0.000 C 
ATOM      9  C   LIG    1       -0.535   2.835  -6.524  0.00  0.00    +0.160 C 
BRANCH   9  10
ATOM     10  O   LIG    1       -1.554   3.837  -6.525  0.00  0.00    -0.560 OA
ATOM     11  H   LIG    1       -1.245   4.711  -6.800  0.00  0.00    +0.380 HD
ENDBRANCH   9  10
BRANCH   7  12
ATOM     12  C   LIG    1       -0.044   0.715  -9.617  0.00  0.00    +0.330 C 
BRANCH  12  13
ATOM     13  N   LIG    1        0.050   1.607 -10.775  0.00  0.00    -0.370 N 
ATOM     14  C   LIG    1        1.187   1.982 -11.398  0.00  0.00    +0.220 A 
ATOM     15  C   LIG    1        0.847   2.804 -12.418  0.00  0.00    -0.120 A 
ATOM     16  C   LIG    1       -0.545   2.943 -12.412  0.00  0.00    +0.230 A 
ATOM     17  N   LIG    1       -1.024   2.226 -11.428  0.00  0.00    -0.290 NA
ENDBRANCH  12  13
ENDBRANCH   7  12
ENDBRANCH   3   5
BRANCH   2  18
ATOM     18  C   LIG    1       -0.080   0.896  -2.438  0.00  0.00    +0.070 C 
BRANCH  18  19
ATOM     19  C   LIG    1       -0.722   1.491  -1.183  0.00  0.00    +0.290 C 
BRANCH  19  20
ATOM     20  N   LIG    1       -0.012   1.005   0.008  0.00  0.00    -0.390 N 
ATOM     21  C   LIG    1       -0.701   1.478   1.215  0.00  0.00    +0.280 C 
ATOM     22  C   LIG    1        0.028   0.957   2.456  0.00  0.00    +0.230 C 
ATOM     23  N   LIG    1        1.417   1.437   2.443  0.00  0.00    -0.490 N 
ATOM     24  C   LIG    1        2.112   0.992   1.228  0.00  0.00    +0.220 C 
ATOM     25  C   LIG    1        1.367   1.513  -0.003  0.00  0.00    +0.270 C 
ATOM     26  H   LIG    1        0.002  -0.004   0.002  0.00  0.00    +0.420 HD
BRANCH  23  27
ATOM     27  C   LIG    1        2.099   1.025   3.590  0.00  0.00    +0.080 A 
ATOM     28  C   LIG    1        3.271   0.288   3.475  0.00  0.00    -0.030 A 
ATOM     29  C   LIG    1        3.946  -0.114   4.611  0.00  0.00    +0.040 A 
ATOM     30  C   LIG    1        3.451   0.207   5.862  0.00  0.00    +0.000 A 
ATOM     31  C   LIG    1        2.282   0.936   5.980  0.00  0.00    +0.040 A 
ATOM     32  C   LIG    1        1.605   1.346   4.848  0.00  0.00    +0.000 A 
ENDBRANCH  23  27
ENDBRANCH  19  20
ENDBRANCH  18  19
ENDBRANCH   2  18
TORSDOF 8
