REMARK  Name = ZINCrD00000hQ5D7.0
REMARK                            x       y       z     vdW  Elec       q    Type
REMARK                         _______ _______ _______ _____ _____    ______ ____
ROOT
ATOM      1  C   LIG    1        6.419   3.458  -0.191  0.00  0.00    +0.140 C 
ATOM      2  C   LIG    1        6.093   1.987  -0.178  0.00  0.00    +0.530 C 
ATOM      3  N   LIG    1        4.809   1.582  -0.113  0.00  0.00    -0.510 N 
ATOM      4  C   LIG    1        3.750   2.408  -0.169  0.00  0.00    +0.570 C 
ATOM      5  C   LIG    1        2.528   1.587  -0.066  0.00  0.00    +0.020 C 
ATOM      6  C   LIG    1        3.009   0.195   0.063  0.00  0.00    -0.120 A 
ATOM      7  C   LIG    1        2.361  -1.029   0.201  0.00  0.00    +0.130 A 
ATOM      8  C   LIG    1        3.103  -2.189   0.301  0.00  0.00    +0.010 A 
ATOM      9  C   LIG    1        4.486  -2.134   0.265  0.00  0.00    +0.080 A 
ATOM     10  C   LIG    1        5.138  -0.925   0.118  0.00  0.00    +0.040 A 
ATOM     11  C   LIG    1        1.218   2.025  -0.081  0.00  0.00    -0.170 C 
ATOM     12  S   LIG    1        0.622   3.694   0.005  0.00  0.00    +0.180 S 
ATOM     13  C   LIG    1       -1.089   3.241  -0.079  0.00  0.00    +0.240 C 
ATOM     14  N   LIG    1       -1.138   1.908  -0.170  0.00  0.00    -0.500 N 
ATOM     15  S   LIG    1       -2.426   4.309  -0.055  0.00  0.00    -0.320 S 
ATOM     16  C   LIG    1       -0.014   1.210  -0.172  0.00  0.00    +0.550 C 
ATOM     17  O   LIG    1        0.005  -0.003  -0.248  0.00  0.00    -0.430 OA
ATOM     18  O   LIG    1        3.791   3.618  -0.285  0.00  0.00    -0.430 OA
ATOM     19  C   LIG    1        4.410   0.254   0.022  0.00  0.00    +0.140 A 
ATOM     20  O   LIG    1        6.985   1.168  -0.227  0.00  0.00    -0.480 OA
ENDROOT
BRANCH  14  21
ATOM     21  C   LIG    1       -2.430   1.223  -0.262  0.00  0.00    +0.380 C 
BRANCH  21  22
ATOM     22  C   LIG    1       -2.926   0.899   1.124  0.00  0.00    -0.130 A 
ATOM     23  C   LIG    1       -2.596  -0.308   1.712  0.00  0.00    +0.040 A 
ATOM     24  C   LIG    1       -3.047  -0.604   2.984  0.00  0.00    +0.000 A 
ATOM     25  C   LIG    1       -3.837   0.303   3.666  0.00  0.00    +0.030 A 
ATOM     26  C   LIG    1       -4.171   1.508   3.076  0.00  0.00    +0.010 A 
ATOM     27  C   LIG    1       -3.716   1.806   1.805  0.00  0.00    +0.050 A 
ENDBRANCH  21  22
ENDBRANCH  14  21
TORSDOF 2
