REMARK  Name = ZINCpk00000e9CPB.1
REMARK                            x       y       z     vdW  Elec       q    Type
REMARK                         _______ _______ _______ _____ _____    ______ ____
ROOT
ATOM      1  N   LIG    1       -6.047   0.226   3.233  0.00  0.00    -0.520 NA
ATOM      2  C   LIG    1       -7.173   0.124   2.296  0.00  0.00    +0.170 C 
ATOM      3  C   LIG    1       -6.671  -0.403   0.949  0.00  0.00    +0.020 C 
ATOM      4  C   LIG    1       -5.608   0.551   0.398  0.00  0.00    +0.040 C 
ATOM      5  C   LIG    1       -4.470   0.677   1.414  0.00  0.00    +0.140 C 
ATOM      6  C   LIG    1       -5.035   1.173   2.747  0.00  0.00    +0.190 C 
ENDROOT
BRANCH   5   7
ATOM      7  N   LIG    1       -3.473   1.636   0.918  0.00  0.00    -0.660 NA
ATOM      8  H   LIG    1       -2.999   2.092   1.682  0.00  0.00    +0.350 HD
BRANCH   7   9
ATOM      9  C   LIG    1       -2.514   0.980   0.019  0.00  0.00    +0.200 C 
BRANCH   9  10
ATOM     10  C   LIG    1       -1.219   1.751   0.017  0.00  0.00    -0.100 A 
ATOM     11  C   LIG    1       -0.013   1.076   0.008  0.00  0.00    +0.010 A 
ATOM     12  C   LIG    1        1.175   1.783   0.000  0.00  0.00    +0.010 A 
ATOM     13  C   LIG    1        1.156   3.165   0.008  0.00  0.00    +0.010 A 
ATOM     14  C   LIG    1       -0.050   3.840   0.023  0.00  0.00    +0.010 A 
ATOM     15  C   LIG    1       -1.238   3.133   0.030  0.00  0.00    +0.040 A 
ENDBRANCH   9  10
BRANCH   9  16
ATOM     16  C   LIG    1       -3.078   0.942  -1.377  0.00  0.00    +0.520 C 
ATOM     17  O   LIG    1       -4.172   1.415  -1.602  0.00  0.00    -0.510 OA
ATOM     18  N   LIG    1       -2.368   0.383  -2.377  0.00  0.00    -0.860 N 
ATOM     19  H   LIG    1       -2.731   0.358  -3.276  0.00  0.00    +0.400 HD
ATOM     20  H   LIG    1       -1.493   0.004  -2.197  0.00  0.00    +0.400 HD
ENDBRANCH   9  16
ENDBRANCH   7   9
ENDBRANCH   5   7
BRANCH   1  21
ATOM     21  C   LIG    1       -6.512   0.596   4.577  0.00  0.00    +0.360 C 
BRANCH  21  24
ATOM     22  C   LIG    1       -7.279   4.096   4.634  0.00  0.00    +0.180 A 
ATOM     23  N   LIG    1       -6.400   3.132   4.762  0.00  0.00    -0.470 NA
ATOM     24  C   LIG    1       -7.079   1.991   4.545  0.00  0.00    +0.130 A 
ATOM     25  N   LIG    1       -8.316   2.314   4.309  0.00  0.00    -0.370 NA
ATOM     26  O   LIG    1       -8.452   3.518   4.356  0.00  0.00    +0.080 OA
BRANCH  22  28
ATOM     27  C   LIG    1       -6.638   6.161   3.420  0.00  0.00    +0.060 C 
ATOM     28  C   LIG    1       -7.019   5.573   4.780  0.00  0.00    +0.180 C 
ENDBRANCH  22  28
ENDBRANCH  21  24
ENDBRANCH   1  21
TORSDOF 7
