REMARK  Name = ZINCnE000001PeVO.1
REMARK                            x       y       z     vdW  Elec       q    Type
REMARK                         _______ _______ _______ _____ _____    ______ ____
ROOT
ATOM      1  C   LIG    1       -1.111   5.069   6.301  0.00  0.00    +0.250 A 
ATOM      2  C   LIG    1       -0.729   4.378   7.443  0.00  0.00    -0.060 A 
ATOM      3  C   LIG    1       -0.859   4.971   8.687  0.00  0.00    -0.010 A 
ATOM      4  C   LIG    1       -1.370   6.251   8.796  0.00  0.00    -0.070 A 
ATOM      5  C   LIG    1       -1.753   6.946   7.664  0.00  0.00    -0.020 A 
ATOM      6  F   LIG    1       -0.229   3.127   7.340  0.00  0.00    -0.140 F 
ATOM      7  C   LIG    1       -1.621   6.361   6.413  0.00  0.00    +0.050 A 
ENDROOT
BRANCH   7   8
ATOM      8  N   LIG    1       -2.004   7.066   5.265  0.00  0.00    -0.440 N 
ATOM      9  C   LIG    1       -2.360   8.470   5.596  0.00  0.00    +0.160 C 
ATOM     10  C   LIG    1       -2.232   9.198   4.234  0.00  0.00    +0.010 C 
ATOM     11  C   LIG    1       -1.007   8.511   3.588  0.00  0.00    -0.010 C 
ATOM     12  C   LIG    1       -0.889   7.150   4.298  0.00  0.00    +0.200 C 
ENDBRANCH   7   8
BRANCH   1  13
ATOM     13  N   LIG    1       -0.980   4.471   5.040  0.00  0.00    -1.080 NA
BRANCH  13  14
ATOM     14  S   LIG    1       -0.367   2.938   4.910  0.00  0.00    +2.640 S 
ATOM     15  O   LIG    1        0.992   3.013   5.317  0.00  0.00    -1.030 OA
ATOM     16  O   LIG    1       -1.315   2.074   5.522  0.00  0.00    -1.030 OA
BRANCH  14  20
ATOM     17  C   LIG    1        1.210   1.684  -0.033  0.00  0.00    +0.180 C 
ATOM     18  C   LIG    1        0.347   2.007   1.160  0.00  0.00    -0.050 A 
ATOM     19  C   LIG    1        0.790   2.285   2.399  0.00  0.00    +0.020 A 
ATOM     20  C   LIG    1       -0.352   2.526   3.197  0.00  0.00    -0.710 A 
ATOM     21  C   LIG    1       -1.424   2.380   2.398  0.00  0.00    +0.110 A 
ATOM     22  C   LIG    1       -2.863   2.540   2.816  0.00  0.00    +0.190 C 
ATOM     23  O   LIG    1       -0.994   2.071   1.164  0.00  0.00    -0.180 OA
ENDBRANCH  14  20
ENDBRANCH  13  14
ENDBRANCH   1  13
TORSDOF 4
