REMARK  Name = ZINCrH000004uETT.0
REMARK                            x       y       z     vdW  Elec       q    Type
REMARK                         _______ _______ _______ _____ _____    ______ ____
ROOT
ATOM      1  O   LIG    1       -4.729   3.071  -1.085  0.00  0.00    -0.530 OA
ATOM      2  C   LIG    1       -4.029   3.000  -2.077  0.00  0.00    +0.600 C 
ATOM      3  N   LIG    1       -4.506   3.409  -3.269  0.00  0.00    -0.710 N 
ATOM      4  H   LIG    1       -3.948   3.352  -4.060  0.00  0.00    +0.410 HD
ENDROOT
BRANCH   2   5
ATOM      5  C   LIG    1       -2.657   2.465  -1.975  0.00  0.00    +0.010 A 
ATOM      6  N   LIG    1       -1.792   2.330  -2.962  0.00  0.00    -0.250 NA
ATOM      7  N   LIG    1       -0.693   1.831  -2.522  0.00  0.00    -0.220 N 
ATOM      8  C   LIG    1       -0.785   1.607  -1.183  0.00  0.00    -0.020 A 
ATOM      9  C   LIG    1       -0.013   1.086   0.008  0.00  0.00    +0.130 C 
ATOM     10  C   LIG    1       -0.779   1.605   1.245  0.00  0.00    +0.050 C 
ATOM     11  C   LIG    1       -2.209   1.784   0.681  0.00  0.00    +0.110 C 
ATOM     12  C   LIG    1       -2.020   1.999  -0.801  0.00  0.00    -0.150 A 
BRANCH   7  13
ATOM     13  C   LIG    1        0.435   1.558  -3.305  0.00  0.00    +0.130 A 
ATOM     14  C   LIG    1        1.708   1.730  -2.777  0.00  0.00    +0.010 A 
ATOM     15  C   LIG    1        2.818   1.455  -3.551  0.00  0.00    +0.040 A 
ATOM     16  C   LIG    1        2.664   1.018  -4.854  0.00  0.00    +0.020 A 
ATOM     17  C   LIG    1        1.398   0.850  -5.385  0.00  0.00    +0.040 A 
ATOM     18  C   LIG    1        0.284   1.119  -4.614  0.00  0.00    +0.040 A 
ENDBRANCH   7  13
ENDBRANCH   2   5
BRANCH   3  19
ATOM     19  C   LIG    1       -5.868   3.940  -3.370  0.00  0.00    +0.320 C 
BRANCH  19  20
ATOM     20  C   LIG    1       -6.153   4.323  -4.799  0.00  0.00    -0.060 A 
ATOM     21  C   LIG    1       -6.505   3.344  -5.730  0.00  0.00    -0.090 A 
ATOM     22  C   LIG    1       -6.684   1.891  -5.661  0.00  0.00    -0.050 A 
ATOM     23  C   LIG    1       -7.029   1.480  -6.892  0.00  0.00    +0.220 A 
ATOM     24  N   LIG    1       -7.086   2.550  -7.743  0.00  0.00    -0.600 N 
ATOM     25  H   LIG    1       -7.314   2.502  -8.684  0.00  0.00    +0.420 HD
ATOM     26  C   LIG    1       -6.770   3.706  -7.063  0.00  0.00    +0.090 A 
ATOM     27  C   LIG    1       -6.678   5.042  -7.438  0.00  0.00    +0.000 A 
ATOM     28  C   LIG    1       -6.330   5.992  -6.503  0.00  0.00    +0.030 A 
ATOM     29  C   LIG    1       -6.074   5.631  -5.188  0.00  0.00    +0.010 A 
ENDBRANCH  19  20
ENDBRANCH   3  19
TORSDOF 4
