REMARK  Name = ZINCvU0000000Ali.0
REMARK                            x       y       z     vdW  Elec       q    Type
REMARK                         _______ _______ _______ _____ _____    ______ ____
ROOT
ATOM      1  O   LIG    1        2.424   5.539  -0.084  0.00  0.00    -0.490 OA
ATOM      2  C   LIG    1        2.456   4.328   0.002  0.00  0.00    +0.520 C 
ENDROOT
BRANCH   2   3
ATOM      3  C   LIG    1        1.197   3.554   0.009  0.00  0.00    -0.070 A 
ATOM      4  C   LIG    1        1.204   2.167  -0.011  0.00  0.00    +0.060 A 
ATOM      5  C   LIG    1       -0.018   1.471  -0.003  0.00  0.00    +0.230 A 
ATOM      6  N   LIG    1       -1.181   2.092   0.019  0.00  0.00    -0.440 NA
ATOM      7  C   LIG    1       -1.278   3.423   0.045  0.00  0.00    +0.130 A 
ATOM      8  C   LIG    1       -2.533   4.058   0.074  0.00  0.00    +0.050 A 
ATOM      9  C   LIG    1       -2.602   5.418   0.095  0.00  0.00    +0.040 A 
ATOM     10  C   LIG    1       -1.447   6.195   0.089  0.00  0.00    +0.030 A 
ATOM     11  C   LIG    1       -0.213   5.614   0.061  0.00  0.00    +0.050 A 
ATOM     12  C   LIG    1       -0.106   4.220   0.039  0.00  0.00    -0.060 A 
BRANCH   5  13
ATOM     13  C   LIG    1        0.002  -0.004  -0.026  0.00  0.00    -0.170 A 
ATOM     14  C   LIG    1       -1.090  -0.798  -0.015  0.00  0.00    +0.070 A 
ATOM     15  C   LIG    1       -0.819  -2.149  -0.044  0.00  0.00    +0.010 A 
ATOM     16  C   LIG    1        0.480  -2.466  -0.069  0.00  0.00    -0.030 A 
ATOM     17  S   LIG    1        1.451  -1.000  -0.063  0.00  0.00    +0.140 S 
ENDBRANCH   5  13
ENDBRANCH   2   3
BRANCH   2  18
ATOM     18  O   LIG    1        3.640   3.690   0.090  0.00  0.00    -0.330 OA
BRANCH  18  19
ATOM     19  C   LIG    1        4.835   4.514   0.076  0.00  0.00    +0.230 C 
BRANCH  19  20
ATOM     20  C   LIG    1        6.053   3.634   0.182  0.00  0.00    +0.360 C 
ATOM     21  O   LIG    1        5.927   2.436   0.261  0.00  0.00    -0.420 OA
BRANCH  20  22
ATOM     22  C   LIG    1        7.429   4.249   0.191  0.00  0.00    -0.090 C 
ATOM     23  C   LIG    1        7.647   5.027  -1.109  0.00  0.00    +0.040 C 
ATOM     24  C   LIG    1        9.044   5.652  -1.101  0.00  0.00    +0.000 C 
ATOM     25  C   LIG    1        9.171   6.603   0.091  0.00  0.00    +0.020 C 
ATOM     26  C   LIG    1        8.953   5.825   1.390  0.00  0.00    +0.000 C 
ATOM     27  C   LIG    1       10.005   4.720   1.506  0.00  0.00    +0.020 C 
ATOM     28  C   LIG    1        9.878   3.768   0.314  0.00  0.00    -0.010 C 
ATOM     29  C   LIG    1       10.096   4.547  -0.985  0.00  0.00    +0.020 C 
ATOM     30  C   LIG    1        7.556   5.200   1.382  0.00  0.00    +0.040 C 
ATOM     31  C   LIG    1        8.481   3.144   0.306  0.00  0.00    +0.050 C 
ENDBRANCH  20  22
ENDBRANCH  19  20
ENDBRANCH  18  19
ENDBRANCH   2  18
TORSDOF 6
