REMARK  Name = ZINCkj000005iFr2.1
REMARK                            x       y       z     vdW  Elec       q    Type
REMARK                         _______ _______ _______ _____ _____    ______ ____
ROOT
ATOM      1  C   LIG    1        2.015  -2.488   0.425  0.00  0.00    +0.570 C 
ATOM      2  N   LIG    1        2.162  -1.151   0.344  0.00  0.00    -0.740 N 
ATOM      3  H   LIG    1        2.796  -0.697   0.921  0.00  0.00    +0.400 HD
ATOM      4  O   LIG    1        1.220  -3.058  -0.298  0.00  0.00    -0.500 OA
ENDROOT
BRANCH   1   8
ATOM      5  C   LIG    1        4.328  -4.714   3.207  0.00  0.00    +0.190 A 
ATOM      6  C   LIG    1        4.479  -3.333   3.122  0.00  0.00    -0.090 A 
ATOM      7  C   LIG    1        3.735  -2.609   2.219  0.00  0.00    +0.100 A 
ATOM      8  C   LIG    1        2.817  -3.260   1.390  0.00  0.00    -0.220 A 
ATOM      9  C   LIG    1        2.666  -4.653   1.476  0.00  0.00    +0.220 A 
ATOM     10  C   LIG    1        3.423  -5.370   2.385  0.00  0.00    -0.040 A 
BRANCH   5  12
ATOM     11  C   LIG    1        5.981  -4.683   4.913  0.00  0.00    +0.250 C 
ATOM     12  O   LIG    1        5.069  -5.421   4.098  0.00  0.00    -0.310 OA
ENDBRANCH   5  12
BRANCH   9  13
ATOM     13  O   LIG    1        1.781  -5.293   0.672  0.00  0.00    -0.470 OA
ATOM     14  H   LIG    1        2.156  -5.585  -0.171  0.00  0.00    +0.400 HD
ENDBRANCH   9  13
ENDBRANCH   1   8
BRANCH   2  15
ATOM     15  C   LIG    1        1.364  -0.383  -0.615  0.00  0.00    +0.270 C 
ATOM     16  C   LIG    1        0.002  -0.004   0.002  0.00  0.00    +0.060 C 
ATOM     17  C   LIG    1       -0.019   1.540   0.011  0.00  0.00    +0.270 C 
ATOM     18  N   LIG    1        1.413   1.933  -0.001  0.00  0.00    -0.370 N 
ATOM     19  H   LIG    1        1.810   1.851   0.923  0.00  0.00    +0.420 HD
ATOM     20  C   LIG    1        2.051   0.963  -0.928  0.00  0.00    +0.280 C 
BRANCH  18  21
ATOM     21  C   LIG    1        1.565   3.304  -0.507  0.00  0.00    +0.100 C 
ATOM     22  C   LIG    1        2.410   4.274   0.322  0.00  0.00    +0.100 C 
ATOM     23  C   LIG    1        0.888   4.427   0.281  0.00  0.00    +0.100 C 
ENDBRANCH  18  21
ENDBRANCH   2  15
TORSDOF 5
