REMARK  Name = ZINCkj000005iFr2.0
REMARK                            x       y       z     vdW  Elec       q    Type
REMARK                         _______ _______ _______ _____ _____    ______ ____
ROOT
ATOM      1  C   LIG    1        1.591  -2.792   0.402  0.00  0.00    +0.580 C 
ATOM      2  N   LIG    1        1.730  -1.543   0.889  0.00  0.00    -0.730 N 
ATOM      3  H   LIG    1        1.982  -1.408   1.816  0.00  0.00    +0.410 HD
ATOM      4  O   LIG    1        1.275  -2.960  -0.760  0.00  0.00    -0.510 OA
ENDROOT
BRANCH   1   8
ATOM      5  C   LIG    1        2.259  -6.141   2.929  0.00  0.00    +0.190 A 
ATOM      6  C   LIG    1        2.402  -4.850   3.430  0.00  0.00    -0.090 A 
ATOM      7  C   LIG    1        2.192  -3.763   2.613  0.00  0.00    +0.100 A 
ATOM      8  C   LIG    1        1.823  -3.953   1.278  0.00  0.00    -0.220 A 
ATOM      9  C   LIG    1        1.680  -5.255   0.775  0.00  0.00    +0.220 A 
ATOM     10  C   LIG    1        1.899  -6.341   1.605  0.00  0.00    -0.040 A 
BRANCH   5  12
ATOM     11  C   LIG    1        2.841  -6.931   5.093  0.00  0.00    +0.250 C 
ATOM     12  O   LIG    1        2.473  -7.208   3.740  0.00  0.00    -0.310 OA
ENDBRANCH   5  12
BRANCH   9  13
ATOM     13  O   LIG    1        1.328  -5.449  -0.521  0.00  0.00    -0.470 OA
ATOM     14  H   LIG    1        2.078  -5.510  -1.128  0.00  0.00    +0.400 HD
ENDBRANCH   9  13
ENDBRANCH   1   8
BRANCH   2  15
ATOM     15  C   LIG    1        1.500  -0.388   0.018  0.00  0.00    +0.250 C 
ATOM     16  C   LIG    1        0.002  -0.004   0.002  0.00  0.00    +0.060 C 
ATOM     17  C   LIG    1       -0.019   1.536   0.011  0.00  0.00    +0.270 C 
ATOM     18  N   LIG    1        1.389   1.989  -0.001  0.00  0.00    -0.360 N 
ATOM     19  H   LIG    1        1.692   2.159  -0.948  0.00  0.00    +0.430 HD
ATOM     20  C   LIG    1        2.176   0.880   0.598  0.00  0.00    +0.270 C 
BRANCH  18  21
ATOM     21  C   LIG    1        1.536   3.207   0.807  0.00  0.00    +0.100 C 
ATOM     22  C   LIG    1        1.884   4.503   0.074  0.00  0.00    +0.100 C 
ATOM     23  C   LIG    1        2.938   3.805   0.936  0.00  0.00    +0.090 C 
ENDBRANCH  18  21
ENDBRANCH   2  15
TORSDOF 5
