REMARK  Name = ZINCpe00000MJLGz.0
REMARK                            x       y       z     vdW  Elec       q    Type
REMARK                         _______ _______ _______ _____ _____    ______ ____
ROOT
ATOM      1  C   LIG    1       -1.187   2.136   0.019  0.00  0.00    +0.520 C 
ATOM      2  N   LIG    1       -0.018   1.465   0.010  0.00  0.00    -0.600 N 
ATOM      3  C   LIG    1        1.261   2.189   0.002  0.00  0.00    +0.270 C 
ATOM      4  C   LIG    1        2.103   1.689  -1.177  0.00  0.00    +0.030 C 
ATOM      5  C   LIG    1        2.242   0.168  -1.090  0.00  0.00    +0.070 C 
ATOM      6  C   LIG    1        0.858  -0.479  -1.176  0.00  0.00    +0.130 C 
ATOM      7  C   LIG    1        0.002  -0.004   0.002  0.00  0.00    +0.250 C 
ATOM      8  O   LIG    1       -2.236   1.527   0.021  0.00  0.00    -0.520 OA
ENDROOT
BRANCH   6   9
ATOM      9  O   LIG    1        0.231  -0.102  -2.404  0.00  0.00    -0.540 OA
ATOM     10  H   LIG    1       -0.653  -0.475  -2.525  0.00  0.00    +0.380 HD
ENDBRANCH   6   9
BRANCH   1  11
ATOM     11  C   LIG    1       -1.191   3.643   0.028  0.00  0.00    +0.150 C 
BRANCH  11  17
ATOM     12  C   LIG    1       -2.880   4.475  -2.435  0.00  0.00    +0.340 C 
ATOM     13  N   LIG    1       -3.337   4.500  -1.044  0.00  0.00    -0.370 N 
ATOM     14  N   LIG    1       -4.604   4.902  -0.600  0.00  0.00    -0.290 NA
ATOM     15  C   LIG    1       -4.636   4.786   0.704  0.00  0.00    +0.230 A 
ATOM     16  C   LIG    1       -3.394   4.304   1.130  0.00  0.00    -0.100 A 
ATOM     17  C   LIG    1       -2.613   4.141   0.037  0.00  0.00    +0.100 A 
ENDBRANCH  11  17
ENDBRANCH   1  11
BRANCH   6  18
ATOM     18  C   LIG    1        1.002  -2.001  -1.122  0.00  0.00    +0.190 C 
BRANCH  18  19
ATOM     19  C   LIG    1       -0.362  -2.638  -1.204  0.00  0.00    +0.170 A 
ATOM     20  N   LIG    1       -0.992  -2.997  -2.296  0.00  0.00    -0.470 NA
ATOM     21  C   LIG    1       -2.164  -3.514  -1.885  0.00  0.00    +0.200 A 
ATOM     22  N   LIG    1       -2.186  -3.443  -0.588  0.00  0.00    -0.370 NA
ATOM     23  O   LIG    1       -1.158  -2.948  -0.176  0.00  0.00    +0.080 OA
BRANCH  21  24
ATOM     24  C   LIG    1       -3.251  -4.072  -2.767  0.00  0.00    +0.060 C 
ATOM     25  C   LIG    1       -4.585  -4.424  -2.106  0.00  0.00    +0.050 C 
ATOM     26  C   LIG    1       -3.642  -5.537  -2.565  0.00  0.00    +0.060 C 
ENDBRANCH  21  24
ENDBRANCH  18  19
ENDBRANCH   6  18
TORSDOF 6
