REMARK  Name = ZINCtV00000L6joD.0
REMARK                            x       y       z     vdW  Elec       q    Type
REMARK                         _______ _______ _______ _____ _____    ______ ____
ROOT
ATOM      1  C   LIG    1       -1.199   6.372  -2.096  0.00  0.00    +0.280 A 
ATOM      2  N   LIG    1       -0.852   6.799  -3.275  0.00  0.00    -0.460 NA
ATOM      3  C   LIG    1        0.503   6.844  -3.363  0.00  0.00    +0.040 A 
ATOM      4  C   LIG    1        1.390   7.217  -4.376  0.00  0.00    +0.070 A 
ATOM      5  C   LIG    1        2.738   7.152  -4.158  0.00  0.00    +0.000 A 
ATOM      6  C   LIG    1        3.237   6.719  -2.938  0.00  0.00    +0.040 A 
ATOM      7  C   LIG    1        2.380   6.346  -1.924  0.00  0.00    +0.010 A 
ATOM      8  C   LIG    1        1.008   6.411  -2.126  0.00  0.00    +0.060 A 
ATOM      9  N   LIG    1       -0.093   6.114  -1.348  0.00  0.00    -0.470 N 
ENDROOT
BRANCH   1  10
ATOM     10  C   LIG    1       -2.620   6.190  -1.629  0.00  0.00    +0.320 C 
BRANCH  10  11
ATOM     11  O   LIG    1       -3.082   7.400  -1.025  0.00  0.00    -0.300 OA
BRANCH  11  17
ATOM     12  C   LIG    1       -7.291   5.041  -0.289  0.00  0.00    +0.090 C 
ATOM     13  C   LIG    1       -6.435   6.276  -0.170  0.00  0.00    -0.050 A 
ATOM     14  C   LIG    1       -6.943   7.415   0.426  0.00  0.00    -0.030 A 
ATOM     15  C   LIG    1       -6.160   8.549   0.537  0.00  0.00    +0.060 A 
ATOM     16  C   LIG    1       -4.867   8.547   0.051  0.00  0.00    -0.110 A 
ATOM     17  C   LIG    1       -4.354   7.405  -0.547  0.00  0.00    +0.130 A 
ATOM     18  C   LIG    1       -5.143   6.270  -0.661  0.00  0.00    -0.080 A 
BRANCH  16  19
ATOM     19  C   LIG    1       -4.015   9.784   0.171  0.00  0.00    +0.030 C 
ATOM     20  C   LIG    1       -3.854  10.151   1.648  0.00  0.00    +0.030 C 
ATOM     21  C   LIG    1       -4.686  10.940  -0.572  0.00  0.00    +0.040 C 
ENDBRANCH  16  19
ENDBRANCH  11  17
ENDBRANCH  10  11
ENDBRANCH   1  10
BRANCH   9  22
ATOM     22  C   LIG    1       -0.074   5.619   0.031  0.00  0.00    +0.370 C 
BRANCH  22  23
ATOM     23  C   LIG    1       -0.054   4.112   0.023  0.00  0.00    -0.130 A 
ATOM     24  C   LIG    1        1.153   3.438   0.009  0.00  0.00    +0.060 A 
ATOM     25  C   LIG    1        1.173   2.056   0.002  0.00  0.00    -0.010 A 
ATOM     26  C   LIG    1       -0.016   1.347   0.009  0.00  0.00    +0.110 A 
ATOM     27  C   LIG    1       -1.224   2.023   0.019  0.00  0.00    -0.010 A 
ATOM     28  F   LIG    1        0.002  -0.004   0.002  0.00  0.00    -0.130 F 
ATOM     29  C   LIG    1       -1.242   3.405   0.031  0.00  0.00    +0.060 A 
ENDBRANCH  22  23
ENDBRANCH   9  22
TORSDOF 6
