REMARK  Name = ZINCrD000000CCIj.0
REMARK                            x       y       z     vdW  Elec       q    Type
REMARK                         _______ _______ _______ _____ _____    ______ ____
ROOT
ATOM      1  C   LIG    1        4.766   0.010   1.125  0.00  0.00    -0.130 A 
ATOM      2  C   LIG    1        4.638   1.352   0.756  0.00  0.00    +0.060 A 
ATOM      3  C   LIG    1        5.761   2.137   0.623  0.00  0.00    +0.010 A 
ATOM      4  C   LIG    1        7.022   1.594   0.845  0.00  0.00    +0.110 A 
ATOM      5  C   LIG    1        7.153   0.259   1.208  0.00  0.00    +0.010 A 
ATOM      6  C   LIG    1        6.035  -0.532   1.348  0.00  0.00    +0.090 A 
ENDROOT
BRANCH   1   8
ATOM      7  O   LIG    1        3.585  -1.992   0.905  0.00  0.00    -0.530 OA
ATOM      8  C   LIG    1        3.564  -0.834   1.274  0.00  0.00    +0.560 C 
ATOM      9  N   LIG    1        2.444  -0.320   1.820  0.00  0.00    -0.610 N 
ATOM     10  C   LIG    1        2.440   1.037   2.384  0.00  0.00    +0.270 C 
ATOM     11  C   LIG    1        1.954   0.962   3.837  0.00  0.00    +0.290 C 
ATOM     12  N   LIG    1        0.714   0.175   3.877  0.00  0.00    -0.610 N 
ATOM     13  C   LIG    1        0.717  -1.182   3.313  0.00  0.00    +0.270 C 
ATOM     14  C   LIG    1       -0.405   0.687   4.427  0.00  0.00    +0.550 C 
ATOM     15  O   LIG    1       -0.395   1.806   4.894  0.00  0.00    -0.540 OA
ATOM     16  C   LIG    1        1.203  -1.107   1.860  0.00  0.00    +0.290 C 
BRANCH  14  17
ATOM     17  C   LIG    1       -1.670  -0.132   4.462  0.00  0.00    -0.070 C 
ATOM     18  C   LIG    1       -2.833   0.328   3.581  0.00  0.00    +0.060 C 
ATOM     19  C   LIG    1       -2.906   0.504   5.099  0.00  0.00    +0.070 C 
ENDBRANCH  14  17
ENDBRANCH   1   8
BRANCH   4  20
ATOM     20  O   LIG    1        8.127   2.370   0.708  0.00  0.00    -0.260 OA
BRANCH  20  21
ATOM     21  C   LIG    1        8.720   2.426  -0.514  0.00  0.00    +0.110 A 
ATOM     22  C   LIG    1        8.188   1.710  -1.577  0.00  0.00    -0.030 A 
ATOM     23  C   LIG    1        8.790   1.770  -2.819  0.00  0.00    +0.030 A 
ATOM     24  C   LIG    1        9.928   2.538  -3.001  0.00  0.00    +0.070 A 
ATOM     25  C   LIG    1       10.462   3.249  -1.939  0.00  0.00    +0.040 A 
ATOM     26  F   LIG    1       10.518   2.592  -4.215  0.00  0.00    -0.140 F 
ATOM     27  C   LIG    1        9.860   3.194  -0.697  0.00  0.00    +0.040 A 
ENDBRANCH  20  21
ENDBRANCH   4  20
TORSDOF 4
