REMARK  Name = ZINCpe00000yutsP.0
REMARK                            x       y       z     vdW  Elec       q    Type
REMARK                         _______ _______ _______ _____ _____    ______ ____
ROOT
ATOM      1  C   LIG    1       -1.035   4.093   1.355  0.00  0.00    +0.590 C 
ATOM      2  N   LIG    1       -1.074   2.757   1.178  0.00  0.00    -0.620 N 
ATOM      3  C   LIG    1       -1.760   1.925   0.132  0.00  0.00    +0.240 C 
ATOM      4  C   LIG    1       -0.567   1.077  -0.405  0.00  0.00    +0.020 C 
ATOM      5  C   LIG    1        0.329   0.885   0.843  0.00  0.00    +0.020 C 
ATOM      6  C   LIG    1       -2.583   0.946   1.022  0.00  0.00    +0.230 C 
ATOM      7  C   LIG    1       -1.687   0.754   2.271  0.00  0.00    +0.040 C 
ATOM      8  C   LIG    1       -0.440   1.644   1.966  0.00  0.00    +0.250 C 
ATOM      9  O   LIG    1       -1.700   4.818   0.646  0.00  0.00    -0.530 OA
ENDROOT
BRANCH   6  10
ATOM     10  N   LIG    1       -2.788  -0.330   0.333  0.00  0.00    -0.700 N 
ATOM     11  H   LIG    1       -2.163  -1.060   0.467  0.00  0.00    +0.410 HD
ATOM     12  C   LIG    1       -3.846  -0.492  -0.486  0.00  0.00    +0.600 C 
ATOM     13  O   LIG    1       -4.631   0.423  -0.653  0.00  0.00    -0.530 OA
BRANCH  12  14
ATOM     14  C   LIG    1       -4.053  -1.775  -1.179  0.00  0.00    -0.000 A 
ATOM     15  C   LIG    1       -5.094  -2.007  -2.009  0.00  0.00    -0.030 A 
ATOM     16  S   LIG    1       -4.974  -3.603  -2.611  0.00  0.00    +0.230 S 
ATOM     17  C   LIG    1       -3.547  -3.870  -1.712  0.00  0.00    +0.210 A 
ATOM     18  N   LIG    1       -3.232  -2.819  -1.040  0.00  0.00    -0.440 NA
ENDBRANCH  12  14
ENDBRANCH   6  10
BRANCH   1  19
ATOM     19  C   LIG    1       -0.165   4.684   2.434  0.00  0.00    -0.200 C 
ATOM     20  C   LIG    1       -0.856   5.174   3.709  0.00  0.00    +0.110 C 
ATOM     21  C   LIG    1       -0.298   6.185   2.705  0.00  0.00    +0.100 C 
BRANCH  19  24
ATOM     22  C   LIG    1        3.404   3.528   1.681  0.00  0.00    +0.290 C 
ATOM     23  N   LIG    1        2.110   4.210   1.589  0.00  0.00    -0.610 N 
ATOM     24  C   LIG    1        1.203   4.070   2.576  0.00  0.00    +0.560 C 
ATOM     25  O   LIG    1        1.489   3.450   3.578  0.00  0.00    -0.530 OA
ATOM     26  C   LIG    1        1.803   5.044   0.425  0.00  0.00    +0.280 C 
ENDBRANCH  19  24
ENDBRANCH   1  19
TORSDOF 4
