REMARK  Name = ZINCkj000005iCbg.0
REMARK                            x       y       z     vdW  Elec       q    Type
REMARK                         _______ _______ _______ _____ _____    ______ ____
ROOT
ATOM      1  C   LIG    1       -0.686   1.059  -3.607  0.00  0.00    +0.520 C 
ATOM      2  N   LIG    1       -0.030   1.188  -2.438  0.00  0.00    -0.740 N 
ATOM      3  H   LIG    1        0.923   1.012  -2.394  0.00  0.00    +0.410 HD
ATOM      4  O   LIG    1       -1.878   1.279  -3.662  0.00  0.00    -0.500 OA
ENDROOT
BRANCH   2   5
ATOM      5  C   LIG    1       -0.755   1.594  -1.231  0.00  0.00    +0.230 C 
ATOM      6  C   LIG    1       -0.013   1.086   0.008  0.00  0.00    +0.080 C 
ATOM      7  C   LIG    1       -0.731   1.580   1.266  0.00  0.00    +0.280 C 
ATOM      8  N   LIG    1       -0.755   3.048   1.274  0.00  0.00    -0.500 N 
ATOM      9  C   LIG    1       -1.527   3.541   0.127  0.00  0.00    +0.260 C 
ATOM     10  H   LIG    1       -1.183   3.370   2.130  0.00  0.00    +0.440 HD
ATOM     11  H   LIG    1        0.189   3.399   1.219  0.00  0.00    +0.430 HD
ATOM     12  C   LIG    1       -0.839   3.122  -1.173  0.00  0.00    +0.180 C 
ATOM     13  F   LIG    1       -1.577   3.591  -2.265  0.00  0.00    -0.160 F 
ENDBRANCH   2   5
BRANCH   1  14
ATOM     14  C   LIG    1        0.060   0.642  -4.848  0.00  0.00    +0.120 C 
BRANCH  14  17
ATOM     15  C   LIG    1       -2.439  -0.670  -7.361  0.00  0.00    +0.130 A 
ATOM     16  C   LIG    1       -1.554  -0.609  -6.295  0.00  0.00    -0.070 A 
ATOM     17  C   LIG    1       -0.897   0.573  -6.011  0.00  0.00    -0.050 A 
ATOM     18  C   LIG    1       -1.112   1.691  -6.795  0.00  0.00    -0.020 A 
ATOM     19  C   LIG    1       -1.988   1.631  -7.863  0.00  0.00    +0.050 A 
ATOM     20  C   LIG    1       -2.652   0.453  -8.148  0.00  0.00    -0.110 A 
ATOM     21  C   LIG    1       -3.608   0.388  -9.312  0.00  0.00    +0.100 C 
BRANCH  15  23
ATOM     22  C   LIG    1       -2.822  -2.945  -6.788  0.00  0.00    +0.240 C 
ATOM     23  O   LIG    1       -3.090  -1.829  -7.639  0.00  0.00    -0.310 OA
ENDBRANCH  15  23
ENDBRANCH  14  17
ENDBRANCH   1  14
TORSDOF 4
