REMARK  Name = ZINCrD00000e77aH.0
REMARK                            x       y       z     vdW  Elec       q    Type
REMARK                         _______ _______ _______ _____ _____    ______ ____
ROOT
ATOM      1  C   LIG    1       -1.161  -1.607   7.003  0.00  0.00    +0.520 C 
ATOM      2  N   LIG    1       -0.374  -0.743   6.330  0.00  0.00    -0.600 N 
ATOM      3  C   LIG    1        0.286  -1.200   5.128  0.00  0.00    +0.290 C 
ATOM      4  C   LIG    1       -0.631  -0.954   3.905  0.00  0.00    +0.010 C 
ATOM      5  C   LIG    1       -0.713   0.485   3.609  0.00  0.00    +0.240 C 
ATOM      6  C   LIG    1       -1.338   1.318   4.724  0.00  0.00    +0.040 C 
ATOM      7  C   LIG    1       -0.272   1.684   5.730  0.00  0.00    -0.070 C 
ATOM      8  C   LIG    1        1.087   1.744   5.029  0.00  0.00    +0.030 C 
ATOM      9  C   LIG    1       -0.592   3.053   6.334  0.00  0.00    +0.040 C 
ATOM     10  C   LIG    1       -0.223   0.630   6.851  0.00  0.00    +0.270 C 
ATOM     11  O   LIG    1       -1.225  -2.766   6.654  0.00  0.00    -0.530 OA
ENDROOT
BRANCH   5  12
ATOM     12  N   LIG    1       -1.509   0.665   2.392  0.00  0.00    -0.720 N 
ATOM     13  H   LIG    1       -2.451   0.886   2.457  0.00  0.00    +0.400 HD
ATOM     14  C   LIG    1       -0.931   0.524   1.182  0.00  0.00    +0.530 C 
ATOM     15  O   LIG    1        0.247   0.247   1.101  0.00  0.00    -0.530 OA
BRANCH  14  16
ATOM     16  C   LIG    1       -1.749   0.709  -0.070  0.00  0.00    -0.080 C 
ATOM     17  C   LIG    1       -2.894  -0.306  -0.086  0.00  0.00    +0.060 C 
ATOM     18  C   LIG    1       -2.325   2.126  -0.098  0.00  0.00    +0.050 C 
BRANCH  16  19
ATOM     19  C   LIG    1       -0.860   0.495  -1.296  0.00  0.00    +0.090 C 
BRANCH  19  20
ATOM     20  C   LIG    1       -1.651   0.826  -2.563  0.00  0.00    +0.450 C 
ATOM     21  F   LIG    1       -2.806   0.038  -2.612  0.00  0.00    -0.180 F 
ATOM     22  F   LIG    1       -0.861   0.566  -3.688  0.00  0.00    -0.180 F 
ATOM     23  F   LIG    1       -2.010   2.179  -2.548  0.00  0.00    -0.180 F 
ENDBRANCH  19  20
ENDBRANCH  16  19
ENDBRANCH  14  16
ENDBRANCH   5  12
BRANCH   1  24
ATOM     24  C   LIG    1       -1.959  -1.131   8.189  0.00  0.00    -0.010 C 
ATOM     25  C   LIG    1       -1.007  -0.743   9.322  0.00  0.00    +0.060 C 
BRANCH  24  26
ATOM     26  C   LIG    1       -2.885  -2.253   8.664  0.00  0.00    +0.200 C 
BRANCH  26  28
ATOM     27  C   LIG    1       -4.633  -2.740  10.229  0.00  0.00    +0.200 C 
ATOM     28  O   LIG    1       -3.724  -1.766   9.713  0.00  0.00    -0.390 OA
ENDBRANCH  26  28
ENDBRANCH  24  26
ENDBRANCH   1  24
TORSDOF 7
