REMARK  Name = ZINCqH0000034ekM.0
REMARK                            x       y       z     vdW  Elec       q    Type
REMARK                         _______ _______ _______ _____ _____    ______ ____
ROOT
ATOM      1  N   LIG    1       -2.526  -0.711  -2.181  0.00  0.00    -0.690 N 
ATOM      2  H   LIG    1       -1.828  -0.112  -2.490  0.00  0.00    +0.400 HD
ATOM      3  C   LIG    1       -3.424  -1.205  -3.056  0.00  0.00    +0.720 C 
ATOM      4  N   LIG    1       -3.302  -0.938  -4.371  0.00  0.00    -0.630 N 
ATOM      5  C   LIG    1       -4.263  -1.468  -5.353  0.00  0.00    +0.330 C 
ATOM      6  C   LIG    1       -4.946  -0.276  -6.037  0.00  0.00    +0.270 C 
ATOM      7  N   LIG    1       -3.963   0.718  -6.445  0.00  0.00    -0.600 N 
ATOM      8  C   LIG    1       -2.744   0.839  -5.917  0.00  0.00    +0.510 C 
ATOM      9  O   LIG    1       -2.042   1.756  -6.286  0.00  0.00    -0.520 OA
ATOM     10  C   LIG    1       -2.200  -0.111  -4.885  0.00  0.00    +0.320 C 
ATOM     11  O   LIG    1       -4.345  -1.893  -2.658  0.00  0.00    -0.550 OA
ENDROOT
BRANCH   1  18
ATOM     12  C   LIG    1       -3.226  -0.214   0.076  0.00  0.00    -0.060 A 
ATOM     13  C   LIG    1       -3.303  -0.565   1.410  0.00  0.00    +0.030 A 
ATOM     14  C   LIG    1       -2.753  -1.756   1.846  0.00  0.00    +0.040 A 
ATOM     15  C   LIG    1       -2.124  -2.601   0.948  0.00  0.00    -0.040 A 
ATOM     16  C   LIG    1       -2.043  -2.254  -0.388  0.00  0.00    -0.060 A 
ATOM     17 CL   LIG    1       -1.434  -4.095   1.500  0.00  0.00    -0.060 Cl
ATOM     18  C   LIG    1       -2.600  -1.061  -0.829  0.00  0.00    +0.160 A 
BRANCH  12  20
ATOM     19  C   LIG    1       -5.240   0.832  -0.923  0.00  0.00    +0.030 C 
ATOM     20  C   LIG    1       -3.825   1.085  -0.397  0.00  0.00    +0.070 C 
ENDBRANCH  12  20
BRANCH  16  21
ATOM     21  C   LIG    1       -1.357  -3.174  -1.365  0.00  0.00    +0.060 C 
ATOM     22  C   LIG    1       -2.399  -4.066  -2.043  0.00  0.00    +0.030 C 
ENDBRANCH  16  21
ENDBRANCH   1  18
BRANCH   7  23
ATOM     23  C   LIG    1       -4.339   1.649  -7.511  0.00  0.00    +0.330 C 
BRANCH  23  24
ATOM     24  C   LIG    1       -3.951   1.056  -8.868  0.00  0.00    +0.440 C 
ATOM     25  F   LIG    1       -2.570   0.839  -8.904  0.00  0.00    -0.170 F 
ATOM     26  F   LIG    1       -4.310   1.946  -9.886  0.00  0.00    -0.180 F 
ATOM     27  F   LIG    1       -4.620  -0.159  -9.053  0.00  0.00    -0.180 F 
ENDBRANCH  23  24
ENDBRANCH   7  23
TORSDOF 5
