REMARK  Name = ZINCqH0000050to8.0
REMARK                            x       y       z     vdW  Elec       q    Type
REMARK                         _______ _______ _______ _____ _____    ______ ____
ROOT
ATOM      1  C   LIG    1        1.429   4.500   5.898  0.00  0.00    +0.550 C 
ATOM      2  N   LIG    1        1.401   5.674   6.560  0.00  0.00    -0.670 N 
ATOM      3  H   LIG    1        0.599   6.219   6.547  0.00  0.00    +0.420 HD
ATOM      4  O   LIG    1        2.460   3.865   5.835  0.00  0.00    -0.510 OA
ENDROOT
BRANCH   2   5
ATOM      5  C   LIG    1        2.530   6.107   7.266  0.00  0.00    +0.180 A 
ATOM      6  C   LIG    1        2.816   7.463   7.354  0.00  0.00    +0.020 A 
ATOM      7  C   LIG    1        3.929   7.891   8.050  0.00  0.00    +0.100 A 
ATOM      8  C   LIG    1        4.763   6.966   8.663  0.00  0.00    +0.100 A 
ATOM      9  C   LIG    1        4.477   5.607   8.575  0.00  0.00    +0.110 A 
ATOM     10  F   LIG    1        5.288   4.706   9.172  0.00  0.00    -0.120 F 
ATOM     11  C   LIG    1        3.360   5.180   7.883  0.00  0.00    +0.030 A 
BRANCH   8  12
ATOM     12  N   LIG    1        5.894   7.401   9.370  0.00  0.00    -0.330 N 
ATOM     13  C   LIG    1        6.788   6.629  10.017  0.00  0.00    +0.490 A 
ATOM     14  N   LIG    1        7.693   7.413  10.545  0.00  0.00    -0.540 NA
ATOM     15  C   LIG    1        7.408   8.685  10.266  0.00  0.00    +0.440 A 
ATOM     16  N   LIG    1        6.316   8.729   9.549  0.00  0.00    -0.320 NA
ENDBRANCH   8  12
ENDBRANCH   2   5
BRANCH   1  19
ATOM     17  C   LIG    1        0.276   2.639   4.503  0.00  0.00    +0.060 C 
ATOM     18  C   LIG    1       -0.466   2.727   5.838  0.00  0.00    +0.080 C 
ATOM     19  C   LIG    1        0.179   3.977   5.238  0.00  0.00    -0.050 C 
BRANCH  17  24
ATOM     20  C   LIG    1       -2.902   2.000  -0.281  0.00  0.00    +0.090 C 
ATOM     21  C   LIG    1       -2.074   2.163   0.967  0.00  0.00    -0.090 A 
ATOM     22  C   LIG    1       -2.690   2.421   2.177  0.00  0.00    +0.010 A 
ATOM     23  C   LIG    1       -1.930   2.576   3.321  0.00  0.00    +0.000 A 
ATOM     24  C   LIG    1       -0.553   2.469   3.256  0.00  0.00    -0.060 A 
ATOM     25  C   LIG    1        0.063   2.206   2.046  0.00  0.00    +0.020 A 
ATOM     26  C   LIG    1       -0.697   2.050   0.903  0.00  0.00    -0.080 A 
ATOM     27  C   LIG    1       -0.025   1.764  -0.416  0.00  0.00    +0.090 C 
ENDBRANCH  17  24
ENDBRANCH   1  19
TORSDOF 4
