REMARK  Name = ZINCvU0000000Hho.1
REMARK                            x       y       z     vdW  Elec       q    Type
REMARK                         _______ _______ _______ _____ _____    ______ ____
ROOT
ATOM      1  C   LIG    1        7.300   1.071  -0.064  0.00  0.00    -0.010 A 
ATOM      2  C   LIG    1        8.522   1.664  -0.077  0.00  0.00    -0.050 A 
ATOM      3  C   LIG    1        9.499   0.576  -0.089  0.00  0.00    -0.130 A 
ATOM      4  C   LIG    1       10.895   0.521  -0.103  0.00  0.00    +0.080 A 
ATOM      5  C   LIG    1       11.525  -0.691  -0.116  0.00  0.00    +0.010 A 
ATOM      6  C   LIG    1       10.788  -1.867  -0.116  0.00  0.00    +0.060 A 
ATOM      7  C   LIG    1        9.410  -1.835  -0.102  0.00  0.00    +0.030 A 
ATOM      8  C   LIG    1        8.746  -0.613  -0.088  0.00  0.00    +0.080 A 
ATOM      9  O   LIG    1        7.444  -0.271  -0.073  0.00  0.00    -0.180 OA
ENDROOT
BRANCH   1  12
ATOM     10  N   LIG    1        4.859   1.090  -0.040  0.00  0.00    -0.510 N 
ATOM     11  H   LIG    1        4.876   0.120  -0.045  0.00  0.00    +0.440 HD
ATOM     12  C   LIG    1        6.014   1.784  -0.047  0.00  0.00    +0.600 C 
ATOM     13  O   LIG    1        5.993   3.000  -0.040  0.00  0.00    -0.500 OA
BRANCH  10  15
ATOM     14  C   LIG    1        2.479   1.075  -0.016  0.00  0.00    +0.570 C 
ATOM     15  N   LIG    1        3.634   1.769  -0.024  0.00  0.00    -0.520 N 
ATOM     16  H   LIG    1        3.617   2.739  -0.018  0.00  0.00    +0.430 HD
ATOM     17  O   LIG    1        2.500  -0.141  -0.024  0.00  0.00    -0.530 OA
BRANCH  14  22
ATOM     18  C   LIG    1       -2.554   3.865   0.048  0.00  0.00    +0.100 C 
ATOM     19  C   LIG    1       -1.236   3.134   0.031  0.00  0.00    -0.050 A 
ATOM     20  C   LIG    1       -1.216   1.751   0.017  0.00  0.00    +0.000 A 
ATOM     21  C   LIG    1       -0.013   1.076   0.008  0.00  0.00    +0.090 A 
ATOM     22  C   LIG    1        1.186   1.792   0.000  0.00  0.00    -0.140 A 
ATOM     23  C   LIG    1        1.158   3.187   0.008  0.00  0.00    +0.050 A 
ATOM     24  C   LIG    1       -0.052   3.850   0.023  0.00  0.00    +0.000 A 
ENDBRANCH  14  22
ENDBRANCH  10  15
ENDBRANCH   1  12
BRANCH   2  25
ATOM     25  C   LIG    1        8.811   3.143  -0.079  0.00  0.00    +0.170 C 
BRANCH  25  26
ATOM     26  S   LIG    1        8.949   3.733   1.631  0.00  0.00    -0.220 S 
BRANCH  26  27
ATOM     27  C   LIG    1        9.293   5.502   1.425  0.00  0.00    +0.130 C 
BRANCH  27  28
ATOM     28  C   LIG    1        9.437   6.147   2.779  0.00  0.00    -0.080 A 
ATOM     29  C   LIG    1        8.329   6.678   3.413  0.00  0.00    +0.020 A 
ATOM     30  C   LIG    1        8.460   7.266   4.658  0.00  0.00    +0.000 A 
ATOM     31  C   LIG    1        9.701   7.331   5.264  0.00  0.00    +0.010 A 
ATOM     32  C   LIG    1       10.810   6.805   4.628  0.00  0.00    +0.000 A 
ATOM     33  C   LIG    1       10.678   6.213   3.385  0.00  0.00    +0.020 A 
ENDBRANCH  27  28
ENDBRANCH  26  27
ENDBRANCH  25  26
ENDBRANCH   2  25
TORSDOF 7
