REMARK  Name = ZINCkj000005eVP1.0
REMARK                            x       y       z     vdW  Elec       q    Type
REMARK                         _______ _______ _______ _____ _____    ______ ____
ROOT
ATOM      1  C   LIG    1       -0.014   1.211   0.009  0.00  0.00    +0.560 C 
ATOM      2  N   LIG    1       -0.164   0.110   0.771  0.00  0.00    -0.620 N 
ATOM      3  C   LIG    1        0.916  -0.280   1.654  0.00  0.00    +0.320 C 
ATOM      4  C   LIG    1        1.875  -1.243   0.915  0.00  0.00    +0.240 C 
ATOM      5  N   LIG    1        1.252  -2.494   0.714  0.00  0.00    -0.480 N 
ATOM      6  C   LIG    1        0.076  -2.465  -0.152  0.00  0.00    +0.280 C 
ATOM      7  C   LIG    1       -1.151  -2.171   0.682  0.00  0.00    +0.160 C 
ATOM      8  H   LIG    1        0.974  -2.859   1.613  0.00  0.00    +0.420 HD
ATOM      9  H   LIG    1        1.928  -3.126   0.312  0.00  0.00    +0.440 HD
ATOM     10  C   LIG    1       -1.425  -0.652   0.681  0.00  0.00    +0.270 C 
ATOM     11  O   LIG    1       -0.865   1.504  -0.809  0.00  0.00    -0.500 OA
ENDROOT
BRANCH   1  15
ATOM     12  C   LIG    1        3.419   3.668   0.475  0.00  0.00    -0.030 A 
ATOM     13  C   LIG    1        3.532   2.295   0.603  0.00  0.00    +0.010 A 
ATOM     14  C   LIG    1        2.421   1.491   0.453  0.00  0.00    +0.000 A 
ATOM     15  C   LIG    1        1.181   2.066   0.171  0.00  0.00    -0.150 A 
ATOM     16  C   LIG    1        1.075   3.452   0.038  0.00  0.00    +0.090 A 
ATOM     17  C   LIG    1        2.193   4.244   0.197  0.00  0.00    +0.020 A 
BRANCH  12  19
ATOM     18  C   LIG    1        5.686   4.154  -0.404  0.00  0.00    +0.050 C 
ATOM     19  C   LIG    1        4.638   4.539   0.641  0.00  0.00    -0.040 C 
ATOM     20  C   LIG    1        5.218   4.342   2.043  0.00  0.00    +0.050 C 
ATOM     21  C   LIG    1        4.245   6.006   0.453  0.00  0.00    +0.040 C 
ENDBRANCH  12  19
ENDBRANCH   1  15
BRANCH   7  22
ATOM     22  O   LIG    1       -2.277  -2.858   0.131  0.00  0.00    -0.540 OA
ATOM     23  H   LIG    1       -3.101  -2.715   0.617  0.00  0.00    +0.410 HD
ENDBRANCH   7  22
TORSDOF 3
