REMARK  Name = ZINCvU00000004KQ.0
REMARK                            x       y       z     vdW  Elec       q    Type
REMARK                         _______ _______ _______ _____ _____    ______ ____
ROOT
ATOM      1  O   LIG    1        2.363  -2.701  -0.126  0.00  0.00    -0.490 OA
ATOM      2  C   LIG    1        1.289  -2.144  -0.021  0.00  0.00    +0.520 C 
ENDROOT
BRANCH   2   3
ATOM      3  C   LIG    1        1.219  -0.668  -0.013  0.00  0.00    -0.060 A 
ATOM      4  C   LIG    1        0.002  -0.004  -0.012  0.00  0.00    +0.060 A 
ATOM      5  C   LIG    1       -0.017   1.402  -0.003  0.00  0.00    +0.230 A 
ATOM      6  N   LIG    1        1.089   2.120   0.003  0.00  0.00    -0.440 NA
ATOM      7  C   LIG    1        2.301   1.563   0.002  0.00  0.00    +0.130 A 
ATOM      8  C   LIG    1        3.464   2.355   0.009  0.00  0.00    +0.050 A 
ATOM      9  C   LIG    1        4.688   1.758   0.008  0.00  0.00    +0.040 A 
ATOM     10  C   LIG    1        4.810   0.371  -0.000  0.00  0.00    +0.030 A 
ATOM     11  C   LIG    1        3.705  -0.429  -0.007  0.00  0.00    +0.050 A 
ATOM     12  C   LIG    1        2.433   0.151  -0.006  0.00  0.00    -0.060 A 
BRANCH   5  13
ATOM     13  C   LIG    1       -1.318   2.097  -0.008  0.00  0.00    -0.170 A 
ATOM     14  C   LIG    1       -1.487   3.437   0.004  0.00  0.00    +0.070 A 
ATOM     15  C   LIG    1       -2.800   3.852  -0.007  0.00  0.00    +0.010 A 
ATOM     16  C   LIG    1       -3.706   2.868  -0.018  0.00  0.00    -0.030 A 
ATOM     17  S   LIG    1       -2.891   1.310  -0.023  0.00  0.00    +0.140 S 
ENDBRANCH   5  13
ENDBRANCH   2   3
BRANCH   2  18
ATOM     18  O   LIG    1        0.161  -2.872   0.088  0.00  0.00    -0.340 OA
BRANCH  18  19
ATOM     19  C   LIG    1        0.304  -4.317   0.072  0.00  0.00    +0.320 C 
BRANCH  19  20
ATOM     20  C   LIG    1       -1.053  -4.959   0.204  0.00  0.00    +0.210 A 
ATOM     21  C   LIG    1       -1.565  -5.709  -0.837  0.00  0.00    -0.130 A 
ATOM     22  C   LIG    1       -2.828  -6.295  -0.691  0.00  0.00    +0.510 A 
ATOM     23  N   LIG    1       -3.506  -6.109   0.462  0.00  0.00    -0.430 N 
ATOM     24  C   LIG    1       -4.736  -6.672   0.619  0.00  0.00    +0.330 A 
ATOM     25  C   LIG    1       -5.435  -6.499   1.764  0.00  0.00    -0.150 A 
ATOM     26  C   LIG    1       -4.896  -5.733   2.808  0.00  0.00    +0.150 A 
ATOM     27  C   LIG    1       -3.666  -5.166   2.661  0.00  0.00    +0.060 A 
ATOM     28 BR   LIG    1       -7.141  -7.291   1.957  0.00  0.00    +0.010 Br
ATOM     29  C   LIG    1       -2.955  -5.357   1.462  0.00  0.00    +0.400 A 
ATOM     30  O   LIG    1       -3.309  -6.964  -1.592  0.00  0.00    -0.520 OA
ATOM     31  N   LIG    1       -1.751  -4.807   1.318  0.00  0.00    -0.520 NA
ENDBRANCH  19  20
ENDBRANCH  18  19
ENDBRANCH   2  18
TORSDOF 5
