REMARK  Name = ZINCqH0000051tPg.0
REMARK                            x       y       z     vdW  Elec       q    Type
REMARK                         _______ _______ _______ _____ _____    ______ ____
ROOT
ATOM      1  O   LIG    1        5.628  -0.631  -1.083  0.00  0.00    -0.550 OA
ATOM      2  C   LIG    1        4.648  -0.160  -0.538  0.00  0.00    +0.700 C 
ATOM      3  N   LIG    1        3.464  -0.799  -0.612  0.00  0.00    -0.680 N 
ATOM      4  H   LIG    1        2.669  -0.392  -0.233  0.00  0.00    +0.410 HD
ATOM      5  N   LIG    1        4.747   1.000   0.140  0.00  0.00    -0.680 N 
ATOM      6  H   LIG    1        3.983   1.342   0.630  0.00  0.00    +0.410 HD
ENDROOT
BRANCH   3   7
ATOM      7  C   LIG    1        3.380  -2.051  -1.236  0.00  0.00    +0.140 A 
ATOM      8  C   LIG    1        2.518  -2.983  -0.743  0.00  0.00    +0.050 A 
ATOM      9  C   LIG    1        2.434  -4.248  -1.364  0.00  0.00    -0.190 A 
ATOM     10  C   LIG    1        1.698  -5.396  -1.137  0.00  0.00    +0.270 A 
ATOM     11  N   LIG    1        2.044  -6.298  -2.067  0.00  0.00    -0.430 N 
ATOM     12  H   LIG    1        1.676  -7.193  -2.139  0.00  0.00    +0.440 HD
ATOM     13  N   LIG    1        3.006  -5.753  -2.925  0.00  0.00    -0.300 NA
ATOM     14  C   LIG    1        3.277  -4.519  -2.538  0.00  0.00    +0.100 A 
ATOM     15  C   LIG    1        4.148  -3.506  -2.995  0.00  0.00    +0.040 A 
ATOM     16  C   LIG    1        4.186  -2.314  -2.353  0.00  0.00    +0.080 A 
ENDBRANCH   3   7
BRANCH   5  17
ATOM     17  C   LIG    1        5.952   1.712   0.137  0.00  0.00    +0.200 A 
ATOM     18  C   LIG    1        5.939   3.101   0.141  0.00  0.00    -0.050 A 
ATOM     19  C   LIG    1        7.129   3.803   0.143  0.00  0.00    +0.070 A 
ATOM     20  C   LIG    1        8.334   3.127   0.132  0.00  0.00    -0.100 A 
ATOM     21  C   LIG    1        8.352   1.739   0.122  0.00  0.00    +0.150 A 
ATOM     22  C   LIG    1        7.161   1.031   0.125  0.00  0.00    +0.000 A 
BRANCH  21  23
ATOM     23  O   LIG    1        9.538   1.075   0.111  0.00  0.00    -0.300 OA
BRANCH  23  24
ATOM     24  C   LIG    1       10.726   1.869   0.109  0.00  0.00    +0.210 C 
BRANCH  24  25
ATOM     25  C   LIG    1       11.952   0.954   0.096  0.00  0.00    +0.160 C 
ATOM     26  C   LIG    1       13.235   1.798  -0.025  0.00  0.00    +0.010 C 
ATOM     27  C   LIG    1       14.053   1.428   1.236  0.00  0.00    +0.000 C 
ATOM     28  C   LIG    1       13.435   0.063   1.635  0.00  0.00    +0.200 C 
ATOM     29  O   LIG    1       12.031   0.225   1.333  0.00  0.00    -0.360 OA
ENDBRANCH  24  25
ENDBRANCH  23  24
ENDBRANCH  21  23
ENDBRANCH   5  17
TORSDOF 5
