REMARK  Name = ZINCnE000001SCNR.0
REMARK                            x       y       z     vdW  Elec       q    Type
REMARK                         _______ _______ _______ _____ _____    ______ ____
ROOT
ATOM      1  O   LIG    1       -1.122   2.961  -3.578  0.00  0.00    -0.530 OA
ATOM      2  C   LIG    1       -0.961   3.809  -2.725  0.00  0.00    +0.520 C 
ATOM      3  N   LIG    1       -1.012   5.115  -3.055  0.00  0.00    -0.720 N 
ATOM      4  H   LIG    1       -0.883   5.793  -2.374  0.00  0.00    +0.400 HD
ENDROOT
BRANCH   2   5
ATOM      5  C   LIG    1       -0.703   3.402  -1.297  0.00  0.00    +0.010 C 
ATOM      6  C   LIG    1       -1.797   3.937  -0.414  0.00  0.00    +0.020 C 
ATOM      7  C   LIG    1       -1.288   4.323   0.988  0.00  0.00    +0.020 C 
ATOM      8  C   LIG    1       -0.290   3.300   1.564  0.00  0.00    +0.020 C 
ATOM      9  C   LIG    1       -0.710   1.878   1.300  0.00  0.00    +0.040 C 
ATOM     10  C   LIG    1       -0.017   1.395   0.010  0.00  0.00    +0.300 C 
ATOM     11  F   LIG    1        1.301   1.865  -0.000  0.00  0.00    -0.200 F 
ATOM     12  F   LIG    1        0.002  -0.004   0.002  0.00  0.00    -0.200 F 
ATOM     13  C   LIG    1       -0.694   1.864  -1.190  0.00  0.00    +0.040 C 
ENDBRANCH   2   5
BRANCH   3  14
ATOM     14  C   LIG    1       -1.263   5.510  -4.444  0.00  0.00    +0.180 C 
ATOM     15  C   LIG    1       -0.161   4.944  -5.342  0.00  0.00    +0.010 C 
ATOM     16  C   LIG    1       -0.423   5.357  -6.792  0.00  0.00    +0.040 C 
ATOM     17  C   LIG    1       -1.699   6.198  -6.860  0.00  0.00    -0.130 C 
ATOM     18  C   LIG    1       -2.881   5.375  -6.343  0.00  0.00    +0.030 C 
ATOM     19  C   LIG    1       -1.532   7.449  -5.995  0.00  0.00    +0.050 C 
ATOM     20  C   LIG    1       -2.619   4.962  -4.893  0.00  0.00    +0.010 C 
ATOM     21  C   LIG    1       -1.271   7.037  -4.546  0.00  0.00    +0.000 C 
BRANCH  17  22
ATOM     22  C   LIG    1       -1.957   6.605  -8.288  0.00  0.00    +0.500 C 
ATOM     23  O   LIG    1       -2.531   7.653  -8.529  0.00  0.00    -0.700 OA
ATOM     24  O   LIG    1       -1.593   5.885  -9.202  0.00  0.00    -0.700 OA
ENDBRANCH  17  22
ENDBRANCH   3  14
TORSDOF 3
