REMARK  Name = ZINCqH0000038tpW.0
REMARK                            x       y       z     vdW  Elec       q    Type
REMARK                         _______ _______ _______ _____ _____    ______ ____
ROOT
ATOM      1  S   LIG    1       -1.739   2.531   1.735  0.00  0.00    +1.280 S 
ATOM      2  O   LIG    1       -2.091   1.312   2.375  0.00  0.00    -0.810 OA
ENDROOT
BRANCH   1   3
ATOM      3  C   LIG    1       -1.252   2.193   0.020  0.00  0.00    -0.120 C 
BRANCH   3  11
ATOM      4  C   LIG    1        0.952  -2.934  -0.023  0.00  0.00    +0.120 C 
ATOM      5  C   LIG    1        1.832  -1.710  -0.025  0.00  0.00    -0.040 A 
ATOM      6  C   LIG    1        3.186  -1.838  -0.038  0.00  0.00    +0.030 A 
ATOM      7  C   LIG    1        3.993  -0.688  -0.040  0.00  0.00    +0.020 A 
ATOM      8  C   LIG    1        3.431   0.539  -0.028  0.00  0.00    +0.210 A 
ATOM      9  N   LIG    1        2.074   0.681  -0.014  0.00  0.00    -0.360 N 
ATOM     10  C   LIG    1        1.258   1.780  -0.000  0.00  0.00    +0.100 A 
ATOM     11  C   LIG    1       -0.016   1.331   0.009  0.00  0.00    +0.070 A 
ATOM     12  N   LIG    1        0.002  -0.004   0.002  0.00  0.00    -0.480 NA
ATOM     13  C   LIG    1        1.260  -0.422  -0.012  0.00  0.00    +0.230 A 
ENDBRANCH   3  11
ENDBRANCH   1   3
BRANCH   1  14
ATOM     14  C   LIG    1       -3.218   3.563   1.543  0.00  0.00    -0.100 C 
BRANCH  14  15
ATOM     15  C   LIG    1       -3.752   3.933   2.903  0.00  0.00    +0.190 A 
ATOM     16  N   LIG    1       -4.628   3.264   3.592  0.00  0.00    -0.370 NA
ATOM     17  O   LIG    1       -4.850   3.818   4.648  0.00  0.00    +0.090 OA
ATOM     18  C   LIG    1       -4.117   4.939   4.734  0.00  0.00    +0.230 A 
ATOM     19  N   LIG    1       -3.412   5.016   3.619  0.00  0.00    -0.460 NA
BRANCH  18  20
ATOM     20  C   LIG    1       -4.101   5.899   5.857  0.00  0.00    -0.030 A 
ATOM     21  C   LIG    1       -3.276   7.024   5.806  0.00  0.00    +0.100 A 
ATOM     22  C   LIG    1       -3.270   7.919   6.855  0.00  0.00    +0.040 A 
ATOM     23  C   LIG    1       -4.071   7.698   7.963  0.00  0.00    -0.010 A 
ATOM     24  C   LIG    1       -4.887   6.581   8.022  0.00  0.00    +0.040 A 
ATOM     25 CL   LIG    1       -4.052   8.826   9.282  0.00  0.00    -0.050 Cl
ATOM     26  C   LIG    1       -4.906   5.681   6.977  0.00  0.00    +0.090 A 
ENDBRANCH  18  20
ENDBRANCH  14  15
ENDBRANCH   1  14
TORSDOF 5
