REMARK  Name = ZINCkj00000hbtUD.0
REMARK                            x       y       z     vdW  Elec       q    Type
REMARK                         _______ _______ _______ _____ _____    ______ ____
ROOT
ATOM      1  C   LIG    1       -0.513  -4.123   0.997  0.00  0.00    -0.150 C 
ATOM      2  C   LIG    1       -0.739  -4.291  -0.507  0.00  0.00    +0.080 C 
ATOM      3  C   LIG    1       -1.618  -5.051   0.488  0.00  0.00    +0.080 C 
ENDROOT
BRANCH   1   4
ATOM      4  C   LIG    1        0.714  -4.763   1.592  0.00  0.00    +0.570 C 
ATOM      5  N   LIG    1        0.678  -5.252   2.847  0.00  0.00    -0.620 N 
ATOM      6  C   LIG    1       -0.461  -5.380   3.819  0.00  0.00    +0.260 C 
ATOM      7  C   LIG    1       -0.379  -6.901   4.170  0.00  0.00    +0.010 C 
ATOM      8  C   LIG    1        1.137  -7.205   4.096  0.00  0.00    +0.010 C 
ATOM      9  C   LIG    1        0.124  -4.645   5.063  0.00  0.00    +0.010 C 
ATOM     10  C   LIG    1        1.634  -4.952   4.987  0.00  0.00    +0.020 C 
ATOM     11  C   LIG    1        1.764  -5.832   3.708  0.00  0.00    +0.250 C 
ATOM     12  O   LIG    1        1.735  -4.838   0.942  0.00  0.00    -0.530 OA
ENDBRANCH   1   4
BRANCH   1  17
ATOM     13  C   LIG    1       -1.075   1.423   2.202  0.00  0.00    +0.330 C 
ATOM     14  N   LIG    1       -0.741   0.092   1.677  0.00  0.00    -0.390 N 
ATOM     15  C   LIG    1       -1.963  -0.563   1.197  0.00  0.00    +0.260 C 
ATOM     16  C   LIG    1       -1.610  -1.916   0.574  0.00  0.00    +0.060 C 
ATOM     17  C   LIG    1       -0.940  -2.798   1.631  0.00  0.00    +0.180 C 
ATOM     18  C   LIG    1        0.292  -2.072   2.181  0.00  0.00    +0.040 C 
ATOM     19  C   LIG    1       -0.132  -0.714   2.742  0.00  0.00    +0.260 C 
ATOM     20  H   LIG    1       -0.089   0.186   0.913  0.00  0.00    +0.430 HD
BRANCH  17  21
ATOM     21  O   LIG    1       -1.859  -3.052   2.696  0.00  0.00    -0.530 OA
ATOM     22  H   LIG    1       -2.174  -2.254   3.143  0.00  0.00    +0.370 HD
ENDBRANCH  17  21
ENDBRANCH   1  17
TORSDOF 3
