REMARK  Name = ZINCzw0000000aa2.1
REMARK                            x       y       z     vdW  Elec       q    Type
REMARK                         _______ _______ _______ _____ _____    ______ ____
ROOT
ATOM      1  C   LIG    1        1.233   4.443   0.690  0.00  0.00    +0.540 C 
ATOM      2  N   LIG    1        0.637   3.582   1.539  0.00  0.00    -0.600 N 
ATOM      3  C   LIG    1        1.348   3.093   2.729  0.00  0.00    +0.280 C 
ATOM      4  C   LIG    1        1.348   1.560   2.704  0.00  0.00    +0.270 C 
ATOM      5  N   LIG    1       -0.024   1.094   2.456  0.00  0.00    -0.610 N 
ATOM      6  C   LIG    1       -0.734   1.583   1.266  0.00  0.00    +0.250 C 
ATOM      7  C   LIG    1       -0.022   1.090   0.005  0.00  0.00    +0.020 C 
ATOM      8  C   LIG    1       -0.620   0.233   3.305  0.00  0.00    +0.500 C 
ATOM      9  O   LIG    1       -1.752  -0.145   3.091  0.00  0.00    -0.500 OA
ATOM     10  C   LIG    1       -0.734   3.116   1.292  0.00  0.00    +0.290 C 
ATOM     11  O   LIG    1        0.673   4.767  -0.340  0.00  0.00    -0.520 OA
ENDROOT
BRANCH   1  13
ATOM     12  C   LIG    1        3.106   5.914   0.223  0.00  0.00    +0.000 C 
ATOM     13  C   LIG    1        2.561   4.990   1.009  0.00  0.00    +0.010 C 
BRANCH  12  14
ATOM     14  C   LIG    1        4.466   6.475   0.549  0.00  0.00    +0.320 C 
BRANCH  14  15
ATOM     15  N   LIG    1        5.355   6.308  -0.608  0.00  0.00    -0.390 N 
ATOM     16  C   LIG    1        4.859   7.119  -1.728  0.00  0.00    +0.330 C 
ATOM     17  H   LIG    1        5.375   5.336  -0.880  0.00  0.00    +0.430 HD
BRANCH  15  18
ATOM     18  C   LIG    1        6.711   6.744  -0.250  0.00  0.00    +0.430 C 
BRANCH  18  20
ATOM     19  C   LIG    1        8.358   6.244  -2.260  0.00  0.00    +0.190 C 
ATOM     20  C   LIG    1        7.627   6.466  -1.369  0.00  0.00    -0.300 C 
ENDBRANCH  18  20
ENDBRANCH  15  18
ENDBRANCH  14  15
ENDBRANCH  12  14
ENDBRANCH   1  13
BRANCH   8  21
ATOM     21  C   LIG    1        0.121  -0.260   4.522  0.00  0.00    +0.340 C 
BRANCH  21  22
ATOM     22  N   LIG    1       -0.736  -1.177   5.277  0.00  0.00    -0.480 N 
ATOM     23  C   LIG    1       -0.819  -2.547   5.111  0.00  0.00    +0.070 A 
ATOM     24  C   LIG    1       -0.193  -3.452   4.266  0.00  0.00    +0.000 A 
ATOM     25  C   LIG    1       -0.500  -4.795   4.348  0.00  0.00    +0.040 A 
ATOM     26  C   LIG    1       -1.431  -5.248   5.272  0.00  0.00    +0.020 A 
ATOM     27  C   LIG    1       -2.062  -4.365   6.119  0.00  0.00    +0.080 A 
ATOM     28  C   LIG    1       -1.763  -3.001   6.049  0.00  0.00    +0.050 A 
ATOM     29  N   LIG    1       -2.206  -1.916   6.730  0.00  0.00    -0.460 NA
ATOM     30  C   LIG    1       -1.601  -0.839   6.285  0.00  0.00    +0.370 A 
BRANCH  30  31
ATOM     31  C   LIG    1       -1.823   0.526   6.788  0.00  0.00    -0.180 A 
ATOM     32  C   LIG    1       -2.672   0.882   7.781  0.00  0.00    +0.140 A 
ATOM     33  N   LIG    1       -2.683   2.168   8.042  0.00  0.00    -0.460 NA
ATOM     34  C   LIG    1       -1.904   2.924   7.340  0.00  0.00    +0.250 A 
ATOM     35  C   LIG    1       -3.529  -0.111   8.521  0.00  0.00    +0.170 C 
ATOM     36  S   LIG    1       -1.025   1.988   6.212  0.00  0.00    +0.110 S 
ENDBRANCH  30  31
ENDBRANCH  21  22
ENDBRANCH   8  21
TORSDOF 8
