REMARK  Name = ZINCvU0000000H4G.0
REMARK                            x       y       z     vdW  Elec       q    Type
REMARK                         _______ _______ _______ _____ _____    ______ ____
ROOT
ATOM      1  N   LIG    1        3.462   2.696  -0.043  0.00  0.00    -0.470 N 
ATOM      2  C   LIG    1        2.348   1.883  -0.104  0.00  0.00    +0.070 A 
ATOM      3  C   LIG    1        2.156   0.510  -0.182  0.00  0.00    +0.010 A 
ATOM      4  C   LIG    1        0.876   0.001  -0.228  0.00  0.00    +0.040 A 
ATOM      5  C   LIG    1       -0.220   0.851  -0.196  0.00  0.00    +0.000 A 
ATOM      6  C   LIG    1       -0.051   2.205  -0.119  0.00  0.00    +0.070 A 
ATOM      7  C   LIG    1        1.237   2.743  -0.072  0.00  0.00    +0.050 A 
ATOM      8  N   LIG    1        1.720   4.010   0.005  0.00  0.00    -0.460 NA
ATOM      9  C   LIG    1        3.021   3.982   0.022  0.00  0.00    +0.280 A 
ENDROOT
BRANCH   1  10
ATOM     10  C   LIG    1        4.859   2.257  -0.048  0.00  0.00    +0.350 C 
BRANCH  10  13
ATOM     11  N   LIG    1        6.626   1.801  -1.719  0.00  0.00    -0.670 N 
ATOM     12  H   LIG    1        7.239   1.645  -0.984  0.00  0.00    +0.410 HD
ATOM     13  C   LIG    1        5.358   2.185  -1.468  0.00  0.00    +0.490 C 
ATOM     14  O   LIG    1        4.619   2.472  -2.386  0.00  0.00    -0.480 OA
BRANCH  11  19
ATOM     15  C   LIG    1        6.608   0.995  -5.318  0.00  0.00    -0.150 A 
ATOM     16  C   LIG    1        7.933   1.289  -5.654  0.00  0.00    +0.050 A 
ATOM     17  C   LIG    1        8.804   1.747  -4.687  0.00  0.00    +0.030 A 
ATOM     18  C   LIG    1        8.370   1.922  -3.386  0.00  0.00    +0.020 A 
ATOM     19  C   LIG    1        7.057   1.627  -3.039  0.00  0.00    +0.130 A 
ATOM     20  C   LIG    1        6.172   1.166  -4.001  0.00  0.00    +0.080 A 
BRANCH  15  22
ATOM     21  C   LIG    1        6.149   0.322  -7.765  0.00  0.00    +0.080 C 
ATOM     22  C   LIG    1        5.676   0.505  -6.346  0.00  0.00    +0.390 C 
ATOM     23  O   LIG    1        4.528   0.250  -6.052  0.00  0.00    -0.450 OA
ENDBRANCH  15  22
ENDBRANCH  11  19
ENDBRANCH  10  13
ENDBRANCH   1  10
BRANCH   9  24
ATOM     24  C   LIG    1        3.910   5.196   0.101  0.00  0.00    +0.330 C 
BRANCH  24  25
ATOM     25  O   LIG    1        4.209   5.654  -1.220  0.00  0.00    -0.300 OA
BRANCH  25  26
ATOM     26  C   LIG    1        5.006   6.750  -1.327  0.00  0.00    +0.140 A 
ATOM     27  C   LIG    1        5.486   7.374  -0.185  0.00  0.00    -0.060 A 
ATOM     28  C   LIG    1        6.299   8.485  -0.296  0.00  0.00    +0.070 A 
ATOM     29  C   LIG    1        6.628   8.981  -1.545  0.00  0.00    -0.070 A 
ATOM     30  C   LIG    1        6.146   8.362  -2.686  0.00  0.00    +0.070 A 
ATOM     31 CL   LIG    1        7.646  10.380  -1.682  0.00  0.00    -0.070 Cl
ATOM     32  C   LIG    1        5.336   7.248  -2.579  0.00  0.00    +0.010 A 
ENDBRANCH  25  26
ENDBRANCH  24  25
ENDBRANCH   9  24
TORSDOF 7
