REMARK  Name = ZINCrD00000l7Zfj.0
REMARK                            x       y       z     vdW  Elec       q    Type
REMARK                         _______ _______ _______ _____ _____    ______ ____
ROOT
ATOM      1  C   LIG    1       -0.013   1.086   0.008  0.00  0.00    +0.100 C 
ENDROOT
BRANCH   1  11
ATOM      2  C   LIG    1       -0.915   1.710   3.693  0.00  0.00    +0.340 C 
ATOM      3  C   LIG    1        0.168   2.168   4.644  0.00  0.00    +0.000 A 
ATOM      4  C   LIG    1        0.016   2.844   5.793  0.00  0.00    -0.040 A 
ATOM      5  C   LIG    1        1.302   3.041   6.337  0.00  0.00    -0.060 A 
ATOM      6  C   LIG    1        2.190   2.476   5.492  0.00  0.00    +0.150 A 
ATOM      7  N   LIG    1        1.502   1.941   4.446  0.00  0.00    -0.450 N 
ATOM      8  C   LIG    1        2.066   1.240   3.287  0.00  0.00    +0.280 C 
ATOM      9  C   LIG    1        0.961   0.412   2.610  0.00  0.00    +0.290 C 
ATOM     10  N   LIG    1       -0.242   1.246   2.466  0.00  0.00    -0.610 N 
ATOM     11  C   LIG    1       -0.718   1.572   1.248  0.00  0.00    +0.520 C 
ATOM     12  O   LIG    1       -1.714   2.256   1.150  0.00  0.00    -0.530 OA
BRANCH   2  14
ATOM     13  C   LIG    1       -2.839   0.148   3.376  0.00  0.00    +0.020 C 
ATOM     14  C   LIG    1       -1.708   0.561   4.320  0.00  0.00    +0.020 C 
ENDBRANCH   2  14
ENDBRANCH   1  11
BRANCH   1  15
ATOM     15  C   LIG    1       -0.753   1.593  -1.232  0.00  0.00    +0.150 C 
BRANCH  15  16
ATOM     16  C   LIG    1       -0.047   1.107  -2.471  0.00  0.00    +0.450 A 
ATOM     17  N   LIG    1        1.025   0.377  -2.336  0.00  0.00    -0.580 NA
ATOM     18  C   LIG    1        1.694  -0.090  -3.403  0.00  0.00    +0.550 A 
ATOM     19  C   LIG    1        1.202   0.247  -4.754  0.00  0.00    -0.220 A 
ATOM     20  C   LIG    1        0.061   1.030  -4.836  0.00  0.00    +0.050 A 
ATOM     21  S   LIG    1       -0.347   1.309  -6.522  0.00  0.00    +0.170 S 
ATOM     22  C   LIG    1        1.024   0.368  -7.077  0.00  0.00    -0.200 A 
ATOM     23  C   LIG    1        1.365   0.132  -8.526  0.00  0.00    +0.150 C 
ATOM     24  C   LIG    1        1.718  -0.108  -6.060  0.00  0.00    -0.030 A 
ATOM     25  C   LIG    1        2.951  -0.955  -6.243  0.00  0.00    +0.130 C 
ATOM     26  O   LIG    1        2.694  -0.775  -3.259  0.00  0.00    -0.490 OA
ATOM     27  N   LIG    1       -0.545   1.447  -3.671  0.00  0.00    -0.590 N 
ATOM     28  H   LIG    1       -1.343   1.995  -3.718  0.00  0.00    +0.420 HD
ENDBRANCH  15  16
ENDBRANCH   1  15
TORSDOF 4
