REMARK  Name = ZINCrg000009DEFT.0
REMARK                            x       y       z     vdW  Elec       q    Type
REMARK                         _______ _______ _______ _____ _____    ______ ____
ROOT
ATOM      1  N   LIG    1        2.343  -2.932   4.473  0.00  0.00    -0.710 N 
ATOM      2  H   LIG    1        2.430  -1.972   4.578  0.00  0.00    +0.410 HD
ATOM      3  C   LIG    1        1.717  -3.660   5.418  0.00  0.00    +0.590 C 
ATOM      4  O   LIG    1        1.528  -4.849   5.245  0.00  0.00    -0.520 OA
ENDROOT
BRANCH   3   5
ATOM      5  C   LIG    1        1.260  -3.015   6.665  0.00  0.00    -0.240 A 
ATOM      6  C   LIG    1        2.157  -2.725   7.674  0.00  0.00    +0.240 A 
ATOM      7  N   LIG    1        1.700  -2.130   8.809  0.00  0.00    -0.320 N 
ATOM      8  N   LIG    1        2.342  -1.718   9.982  0.00  0.00    -0.310 NA
ATOM      9  C   LIG    1        1.452  -1.190  10.790  0.00  0.00    +0.300 A 
ATOM     10  C   LIG    1        0.205  -1.236  10.180  0.00  0.00    -0.090 A 
ATOM     11  C   LIG    1        0.367  -1.827   8.935  0.00  0.00    +0.270 A 
ATOM     12  N   LIG    1       -0.501  -2.111   7.952  0.00  0.00    -0.470 NA
ATOM     13  C   LIG    1        3.617  -3.063   7.521  0.00  0.00    +0.160 C 
ATOM     14  C   LIG    1       -0.104  -2.678   6.841  0.00  0.00    +0.250 A 
ATOM     15  C   LIG    1       -1.100  -2.978   5.751  0.00  0.00    +0.160 C 
ENDBRANCH   3   5
BRANCH   1  16
ATOM     16  C   LIG    1        2.892  -3.591   3.285  0.00  0.00    +0.280 C 
BRANCH  16  23
ATOM     17  C   LIG    1       -0.637  -0.379  -0.008  0.00  0.00    +0.570 C 
ATOM     18  N   LIG    1        0.607  -0.895  -0.064  0.00  0.00    -0.640 N 
ATOM     19  C   LIG    1        1.973  -0.354  -0.163  0.00  0.00    +0.300 C 
ATOM     20  C   LIG    1        2.458  -1.627   0.525  0.00  0.00    +0.070 C 
ATOM     21  C   LIG    1        3.785  -2.202  -0.001  0.00  0.00    +0.050 C 
ATOM     22  C   LIG    1        4.120  -3.230   1.118  0.00  0.00    +0.030 C 
ATOM     23  C   LIG    1        3.545  -2.547   2.378  0.00  0.00    +0.170 C 
ATOM     24  O   LIG    1        2.561  -1.595   1.945  0.00  0.00    -0.340 OA
ATOM     25  C   LIG    1        1.194  -2.246  -0.058  0.00  0.00    +0.280 C 
ATOM     26  O   LIG    1       -1.599  -1.119   0.067  0.00  0.00    -0.540 OA
BRANCH  17  28
ATOM     27  C   LIG    1       -2.059   1.587   0.009  0.00  0.00    +0.150 C 
ATOM     28  C   LIG    1       -0.831   1.078  -0.040  0.00  0.00    -0.090 C 
ENDBRANCH  17  28
ENDBRANCH  16  23
ENDBRANCH   1  16
TORSDOF 4
