REMARK  Name = ZINCqH0000007ape.0
REMARK                            x       y       z     vdW  Elec       q    Type
REMARK                         _______ _______ _______ _____ _____    ______ ____
ROOT
ATOM      1  N   LIG    1       -1.817   2.526  -0.272  0.00  0.00    -0.620 N 
ATOM      2  C   LIG    1       -1.659   1.191  -0.183  0.00  0.00    +0.710 C 
ATOM      3  N   LIG    1       -0.423   0.655  -0.201  0.00  0.00    -0.680 N 
ATOM      4  H   LIG    1        0.356   1.234  -0.213  0.00  0.00    +0.410 HD
ATOM      5  O   LIG    1       -2.633   0.469  -0.088  0.00  0.00    -0.570 OA
ATOM      6  C   LIG    1       -0.644   3.396  -0.387  0.00  0.00    +0.280 C 
ENDROOT
BRANCH   3   7
ATOM      7  C   LIG    1       -0.262  -0.735  -0.206  0.00  0.00    +0.180 A 
ATOM      8  C   LIG    1       -1.147  -1.540   0.500  0.00  0.00    +0.010 A 
ATOM      9  C   LIG    1       -0.992  -2.913   0.491  0.00  0.00    +0.050 A 
ATOM     10  C   LIG    1        0.050  -3.489  -0.210  0.00  0.00    -0.030 A 
ATOM     11  C   LIG    1        0.942  -2.689  -0.913  0.00  0.00    +0.160 A 
ATOM     12  C   LIG    1        0.786  -1.310  -0.911  0.00  0.00    -0.010 A 
BRANCH  11  13
ATOM     13  N   LIG    1        1.997  -3.273  -1.623  0.00  0.00    -0.670 N 
ATOM     14  H   LIG    1        1.872  -4.129  -2.061  0.00  0.00    +0.410 HD
ATOM     15  C   LIG    1        3.187  -2.645  -1.698  0.00  0.00    +0.540 C 
ATOM     16  O   LIG    1        3.320  -1.537  -1.224  0.00  0.00    -0.520 OA
BRANCH  15  17
ATOM     17  C   LIG    1        4.354  -3.320  -2.373  0.00  0.00    -0.070 C 
ATOM     18  C   LIG    1        5.525  -3.756  -1.490  0.00  0.00    +0.060 C 
ATOM     19  C   LIG    1        5.678  -2.556  -2.426  0.00  0.00    +0.070 C 
ENDBRANCH  15  17
ENDBRANCH  11  13
ENDBRANCH   3   7
BRANCH   1  20
ATOM     20  C   LIG    1       -3.161   3.108  -0.253  0.00  0.00    +0.370 C 
BRANCH  20  24
ATOM     21  C   LIG    1       -4.289   3.961   3.780  0.00  0.00    +0.130 A 
ATOM     22  C   LIG    1       -3.631   4.921   3.024  0.00  0.00    -0.030 A 
ATOM     23  C   LIG    1       -3.268   4.643   1.721  0.00  0.00    +0.060 A 
ATOM     24  C   LIG    1       -3.559   3.409   1.169  0.00  0.00    -0.150 A 
ATOM     25  C   LIG    1       -4.219   2.452   1.918  0.00  0.00    +0.080 A 
ATOM     26  C   LIG    1       -4.579   2.723   3.224  0.00  0.00    -0.080 A 
BRANCH  21  28
ATOM     27  C   LIG    1       -5.322   3.197   5.780  0.00  0.00    +0.250 C 
ATOM     28  O   LIG    1       -4.648   4.232   5.062  0.00  0.00    -0.320 OA
ENDBRANCH  21  28
ENDBRANCH  20  24
ENDBRANCH   1  20
TORSDOF 6
