REMARK  Name = ZINCpk00000jgTUL.0
REMARK                            x       y       z     vdW  Elec       q    Type
REMARK                         _______ _______ _______ _____ _____    ______ ____
ROOT
ATOM      1  C   LIG    1       -1.760   4.196  -1.385  0.00  0.00    +0.500 C 
ATOM      2  N   LIG    1       -0.653   3.434  -1.277  0.00  0.00    -0.610 N 
ATOM      3  C   LIG    1        0.677   4.052  -1.202  0.00  0.00    +0.270 C 
ATOM      4  C   LIG    1        1.399   3.521   0.041  0.00  0.00    +0.030 C 
ATOM      5  C   LIG    1        1.418   1.991  -0.001  0.00  0.00    +0.010 C 
ATOM      6  C   LIG    1       -0.018   1.461   0.010  0.00  0.00    +0.240 C 
ATOM      7  C   LIG    1       -0.755   1.969  -1.233  0.00  0.00    +0.280 C 
ATOM      8  O   LIG    1       -2.853   3.674  -1.446  0.00  0.00    -0.510 OA
ENDROOT
BRANCH   1  14
ATOM      9  N   LIG    1       -2.967   6.311  -1.548  0.00  0.00    -0.590 N 
ATOM     10  C   LIG    1       -3.389   6.794  -0.367  0.00  0.00    +0.520 C 
ATOM     11  C   LIG    1       -2.342   6.553   0.698  0.00  0.00    +0.060 C 
ATOM     12  C   LIG    1       -1.058   6.227  -0.099  0.00  0.00    +0.070 C 
ATOM     13  O   LIG    1       -4.454   7.344  -0.182  0.00  0.00    -0.520 OA
ATOM     14  C   LIG    1       -1.639   5.698  -1.429  0.00  0.00    +0.230 C 
BRANCH   9  16
ATOM     15  C   LIG    1       -5.065   5.652  -2.619  0.00  0.00    +0.030 C 
ATOM     16  C   LIG    1       -3.734   6.387  -2.794  0.00  0.00    +0.240 C 
ATOM     17  C   LIG    1       -4.002   7.853  -3.139  0.00  0.00    +0.030 C 
ENDBRANCH   9  16
ENDBRANCH   1  14
BRANCH   6  18
ATOM     18  N   LIG    1        0.002  -0.004   0.002  0.00  0.00    -0.610 N 
ATOM     19  C   LIG    1       -0.563  -0.691   1.015  0.00  0.00    +0.550 C 
ATOM     20  O   LIG    1       -1.087  -0.097   1.933  0.00  0.00    -0.530 OA
ATOM     21  C   LIG    1        0.636  -0.722  -1.107  0.00  0.00    +0.280 C 
BRANCH  19  22
ATOM     22  C   LIG    1       -0.542  -2.198   1.006  0.00  0.00    -0.070 C 
ATOM     23  C   LIG    1       -1.876  -2.922   0.809  0.00  0.00    +0.060 C 
ATOM     24  C   LIG    1       -1.202  -2.920   2.183  0.00  0.00    +0.000 C 
ATOM     25  C   LIG    1       -0.563  -4.227   2.658  0.00  0.00    +0.070 C 
ENDBRANCH  19  22
ENDBRANCH   6  18
TORSDOF 4
