REMARK  Name = ZINCpe00000zqxml.1
REMARK                            x       y       z     vdW  Elec       q    Type
REMARK                         _______ _______ _______ _____ _____    ______ ____
ROOT
ATOM      1  O   LIG    1        0.002  -0.004   0.002  0.00  0.00    -0.530 OA
ATOM      2  C   LIG    1       -0.014   1.212   0.009  0.00  0.00    +0.610 C 
ATOM      3  N   LIG    1        1.143   1.902   0.001  0.00  0.00    -0.710 N 
ATOM      4  H   LIG    1        1.130   2.872   0.007  0.00  0.00    +0.410 HD
ENDROOT
BRANCH   2   5
ATOM      5  C   LIG    1       -1.301   1.932   0.019  0.00  0.00    -0.080 A 
ATOM      6  C   LIG    1       -2.541   1.371   0.022  0.00  0.00    +0.250 A 
ATOM      7  O   LIG    1       -3.427   2.380   0.032  0.00  0.00    -0.190 OA
ATOM      8  C   LIG    1       -2.747   3.535   0.034  0.00  0.00    +0.160 A 
ATOM      9  N   LIG    1       -1.472   3.281   0.032  0.00  0.00    -0.450 NA
BRANCH   8  10
ATOM     10  C   LIG    1       -3.362   4.910   0.043  0.00  0.00    +0.380 C 
BRANCH  10  11
ATOM     11  N   LIG    1       -3.569   5.363  -1.339  0.00  0.00    -0.490 NA
ATOM     12  C   LIG    1       -4.645   4.589  -1.995  0.00  0.00    +0.180 C 
ATOM     13  C   LIG    1       -4.259   4.449  -3.480  0.00  0.00    -0.010 C 
ATOM     14  C   LIG    1       -2.893   5.162  -3.611  0.00  0.00    +0.180 C 
ATOM     15  C   LIG    1       -2.351   5.141  -2.160  0.00  0.00    +0.200 C 
BRANCH  14  16
ATOM     16  O   LIG    1       -2.028   4.438  -4.488  0.00  0.00    -0.560 OA
ATOM     17  H   LIG    1       -2.362   4.357  -5.392  0.00  0.00    +0.380 HD
ENDBRANCH  14  16
ENDBRANCH  10  11
ENDBRANCH   8  10
ENDBRANCH   2   5
BRANCH   3  18
ATOM     18  C   LIG    1        2.422   1.187  -0.015  0.00  0.00    +0.340 C 
BRANCH  18  19
ATOM     19  C   LIG    1        3.554   2.181  -0.020  0.00  0.00    -0.120 A 
ATOM     20  C   LIG    1        4.130   2.543   1.142  0.00  0.00    +0.240 A 
ATOM     21  N   LIG    1        5.164   3.443   1.157  0.00  0.00    -0.370 N 
ATOM     22  C   LIG    1        5.913   3.971   2.149  0.00  0.00    +0.360 A 
ATOM     23  N   LIG    1        6.785   4.803   1.638  0.00  0.00    -0.450 NA
ATOM     24  C   LIG    1        6.643   4.851   0.312  0.00  0.00    +0.170 A 
ATOM     25  C   LIG    1        5.616   3.994  -0.025  0.00  0.00    -0.000 A 
ATOM     26  C   LIG    1        5.016   3.626  -1.247  0.00  0.00    +0.080 A 
ATOM     27  C   LIG    1        3.996   2.728  -1.240  0.00  0.00    +0.020 A 
ENDBRANCH  18  19
ENDBRANCH   3  18
TORSDOF 6
