REMARK  Name = ZINCrg000000s0fG.0
REMARK                            x       y       z     vdW  Elec       q    Type
REMARK                         _______ _______ _______ _____ _____    ______ ____
ROOT
ATOM      1  N   LIG    1       -1.234   1.650   0.017  0.00  0.00    -0.520 N 
ATOM      2  H   LIG    1       -1.247   2.620   0.022  0.00  0.00    +0.430 HD
ATOM      3  C   LIG    1       -2.392   0.960   0.019  0.00  0.00    +0.520 C 
ATOM      4  O   LIG    1       -2.375  -0.253   0.012  0.00  0.00    -0.530 OA
ENDROOT
BRANCH   1   6
ATOM      5  C   LIG    1        1.147   1.655   0.000  0.00  0.00    +0.500 C 
ATOM      6  N   LIG    1       -0.011   0.966   0.007  0.00  0.00    -0.520 N 
ATOM      7  H   LIG    1        0.002  -0.004   0.002  0.00  0.00    +0.430 HD
ATOM      8  O   LIG    1        1.130   2.868   0.007  0.00  0.00    -0.520 OA
BRANCH   5   9
ATOM      9  C   LIG    1        2.462   0.920  -0.017  0.00  0.00    +0.390 C 
BRANCH   9  16
ATOM     10  C   LIG    1        3.796   2.110  -2.549  0.00  0.00    +0.150 C 
ATOM     11  C   LIG    1        4.152   2.413  -1.116  0.00  0.00    +0.090 A 
ATOM     12  C   LIG    1        5.117   3.263  -0.696  0.00  0.00    -0.120 A 
ATOM     13  C   LIG    1        5.124   3.249   0.703  0.00  0.00    +0.080 A 
ATOM     14  N   LIG    1        4.193   2.425   1.108  0.00  0.00    -0.290 NA
ATOM     15  C   LIG    1        6.046   4.046   1.590  0.00  0.00    +0.160 C 
ATOM     16  N   LIG    1        3.562   1.887  -0.022  0.00  0.00    -0.360 N 
ENDBRANCH   9  16
ENDBRANCH   5   9
ENDBRANCH   1   6
BRANCH   3  17
ATOM     17  C   LIG    1       -3.707   1.696   0.029  0.00  0.00    +0.090 C 
BRANCH  17  18
ATOM     18  C   LIG    1       -4.856   0.686   0.029  0.00  0.00    +0.030 C 
BRANCH  18  19
ATOM     19  C   LIG    1       -6.191   1.433   0.039  0.00  0.00    +0.330 C 
BRANCH  19  20
ATOM     20  N   LIG    1       -7.292   0.466   0.039  0.00  0.00    -0.550 N 
ATOM     21  C   LIG    1       -7.886  -0.066   1.126  0.00  0.00    +0.640 A 
ATOM     22  O   LIG    1       -8.853  -0.912   0.738  0.00  0.00    -0.240 OA
ATOM     23  C   LIG    1       -8.902  -0.942  -0.616  0.00  0.00    +0.030 A 
ATOM     24  C   LIG    1       -9.697  -1.631  -1.518  0.00  0.00    +0.060 A 
ATOM     25  C   LIG    1       -9.510  -1.454  -2.876  0.00  0.00    +0.030 A 
ATOM     26  C   LIG    1       -8.533  -0.592  -3.340  0.00  0.00    +0.040 A 
ATOM     27  C   LIG    1       -7.736   0.100  -2.448  0.00  0.00    +0.030 A 
ATOM     28  O   LIG    1       -7.591   0.183   2.279  0.00  0.00    -0.480 OA
ATOM     29  C   LIG    1       -7.920  -0.068  -1.085  0.00  0.00    +0.070 A 
ENDBRANCH  19  20
ENDBRANCH  18  19
ENDBRANCH  17  18
ENDBRANCH   3  17
TORSDOF 7
