REMARK  Name = ZINCqH0000033Lnf.0
REMARK                            x       y       z     vdW  Elec       q    Type
REMARK                         _______ _______ _______ _____ _____    ______ ____
ROOT
ATOM      1  C   LIG    1       -1.251   6.581  -0.054  0.00  0.00    +0.610 C 
ATOM      2  N   LIG    1       -0.078   5.923   0.034  0.00  0.00    -0.670 N 
ATOM      3  H   LIG    1        0.752   6.418   0.106  0.00  0.00    +0.420 HD
ATOM      4  O   LIG    1       -2.298   5.962  -0.048  0.00  0.00    -0.480 OA
ENDROOT
BRANCH   1  10
ATOM      5  C   LIG    1       -1.807  12.590  -0.493  0.00  0.00    +0.120 A 
ATOM      6  C   LIG    1       -0.417  12.524  -0.440  0.00  0.00    -0.010 A 
ATOM      7  C   LIG    1        0.225  11.310  -0.333  0.00  0.00    +0.070 A 
ATOM      8  C   LIG    1       -0.513  10.134  -0.276  0.00  0.00    +0.050 A 
ATOM      9  O   LIG    1       -0.169   8.834  -0.173  0.00  0.00    -0.180 OA
ATOM     10  C   LIG    1       -1.265   8.047  -0.157  0.00  0.00    -0.040 A 
ATOM     11  C   LIG    1       -2.382   8.813  -0.255  0.00  0.00    -0.060 A 
ATOM     12  C   LIG    1       -3.810   8.333  -0.279  0.00  0.00    +0.140 C 
ATOM     13  C   LIG    1       -1.918  10.198  -0.330  0.00  0.00    -0.110 A 
ATOM     14  C   LIG    1       -2.560  11.434  -0.439  0.00  0.00    +0.040 A 
BRANCH   5  15
ATOM     15  O   LIG    1       -2.425  13.797  -0.599  0.00  0.00    -0.310 OA
BRANCH  15  17
ATOM     16  C   LIG    1       -2.453  16.207  -0.769  0.00  0.00    +0.070 C 
ATOM     17  C   LIG    1       -1.586  14.953  -0.650  0.00  0.00    +0.170 C 
ENDBRANCH  15  17
ENDBRANCH   5  15
ENDBRANCH   1  10
BRANCH   2  18
ATOM     18  C   LIG    1       -0.059   4.524   0.020  0.00  0.00    +0.200 A 
ATOM     19  C   LIG    1        0.899   3.835   0.753  0.00  0.00    -0.020 A 
ATOM     20  C   LIG    1        0.915   2.454   0.738  0.00  0.00    +0.150 A 
ATOM     21  C   LIG    1       -0.021   1.758  -0.006  0.00  0.00    -0.680 A 
ATOM     22  C   LIG    1       -0.972   2.442  -0.740  0.00  0.00    +0.150 A 
ATOM     23  C   LIG    1       -0.997   3.822  -0.725  0.00  0.00    +0.010 A 
BRANCH  21  24
ATOM     24  S   LIG    1        0.004  -0.004  -0.023  0.00  0.00    +2.500 S 
ATOM     25  O   LIG    1        1.356  -0.338   0.257  0.00  0.00    -0.940 OA
ATOM     26  O   LIG    1       -0.595  -0.351  -1.264  0.00  0.00    -0.940 OA
ATOM     27  C   LIG    1       -1.070  -0.485   1.358  0.00  0.00    -0.260 C 
ENDBRANCH  21  24
ENDBRANCH   2  18
TORSDOF 5
