REMARK  Name = ZINCqH0000001FHc.0
REMARK                            x       y       z     vdW  Elec       q    Type
REMARK                         _______ _______ _______ _____ _____    ______ ____
ROOT
ATOM      1  N   LIG    1       -1.891  -1.127   7.696  0.00  0.00    -0.740 N 
ATOM      2  H   LIG    1       -2.794  -0.786   7.597  0.00  0.00    +0.390 HD
ATOM      3  C   LIG    1       -0.965  -0.863   6.754  0.00  0.00    +0.710 C 
ATOM      4  N   LIG    1       -1.292  -0.124   5.675  0.00  0.00    -0.750 N 
ATOM      5  H   LIG    1       -2.195   0.217   5.576  0.00  0.00    +0.400 HD
ATOM      6  O   LIG    1        0.167  -1.290   6.877  0.00  0.00    -0.580 OA
ENDROOT
BRANCH   1   7
ATOM      7  C   LIG    1       -1.536  -1.929   8.869  0.00  0.00    +0.310 C 
BRANCH   7   8
ATOM      8  C   LIG    1       -2.773  -2.588   9.421  0.00  0.00    -0.100 A 
ATOM      9  C   LIG    1       -3.964  -1.888   9.473  0.00  0.00    +0.040 A 
ATOM     10  C   LIG    1       -5.101  -2.493   9.973  0.00  0.00    -0.010 A 
ATOM     11  C   LIG    1       -5.045  -3.797  10.434  0.00  0.00    +0.100 A 
ATOM     12  C   LIG    1       -3.850  -4.496  10.387  0.00  0.00    -0.010 A 
ATOM     13  F   LIG    1       -6.154  -4.388  10.930  0.00  0.00    -0.140 F 
ATOM     14  C   LIG    1       -2.716  -3.891   9.880  0.00  0.00    +0.060 A 
ENDBRANCH   7   8
BRANCH   7  16
ATOM     15  C   LIG    1       -0.548  -1.863  11.163  0.00  0.00    +0.030 C 
ATOM     16  C   LIG    1       -0.920  -1.025   9.938  0.00  0.00    -0.030 C 
ATOM     17  C   LIG    1        0.337  -0.356   9.377  0.00  0.00    +0.020 C 
ENDBRANCH   7  16
ENDBRANCH   1   7
BRANCH   4  18
ATOM     18  C   LIG    1       -0.284   0.163   4.651  0.00  0.00    +0.290 C 
BRANCH  18  19
ATOM     19  C   LIG    1       -0.911   1.012   3.543  0.00  0.00    -0.010 C 
ATOM     20  C   LIG    1       -1.990   0.209   2.771  0.00  0.00    +0.010 C 
ATOM     21  C   LIG    1       -2.001   0.885   1.383  0.00  0.00    +0.190 C 
ATOM     22  N   LIG    1       -0.700   1.560   1.217  0.00  0.00    -0.520 NA
ATOM     23  C   LIG    1        0.117   1.311   2.423  0.00  0.00    +0.200 C 
BRANCH  22  24
ATOM     24  C   LIG    1       -0.013   1.086   0.008  0.00  0.00    +0.200 C 
BRANCH  24  25
ATOM     25  C   LIG    1       -0.753   1.593  -1.232  0.00  0.00    +0.460 C 
ATOM     26  F   LIG    1       -2.065   1.108  -1.222  0.00  0.00    -0.180 F 
ATOM     27  F   LIG    1       -0.098   1.141  -2.382  0.00  0.00    -0.180 F 
ATOM     28  F   LIG    1       -0.772   2.991  -1.224  0.00  0.00    -0.170 F 
ENDBRANCH  24  25
ENDBRANCH  22  24
ENDBRANCH  18  19
ENDBRANCH   4  18
TORSDOF 7
