REMARK  Name = ZINCvU0000000JwN.0
REMARK                            x       y       z     vdW  Elec       q    Type
REMARK                         _______ _______ _______ _____ _____    ______ ____
ROOT
ATOM      1  C   LIG    1       -2.550   3.962  -0.016  0.00  0.00    +0.110 A 
ATOM      2  C   LIG    1       -1.337   3.301  -0.015  0.00  0.00    -0.040 A 
ATOM      3  C   LIG    1       -1.290   1.922  -0.242  0.00  0.00    -0.100 A 
ATOM      4  C   LIG    1       -2.468   1.213  -0.476  0.00  0.00    +0.080 A 
ATOM      5  C   LIG    1       -3.688   1.878  -0.471  0.00  0.00    -0.030 A 
ATOM      6  C   LIG    1       -3.729   3.258  -0.243  0.00  0.00    +0.100 A 
ENDROOT
BRANCH   5   7
ATOM      7  C   LIG    1       -4.945   1.128  -0.713  0.00  0.00    -0.060 A 
ATOM      8  C   LIG    1       -6.025   1.273   0.156  0.00  0.00    +0.050 A 
ATOM      9  C   LIG    1       -7.193   0.576  -0.076  0.00  0.00    +0.010 A 
ATOM     10  C   LIG    1       -7.289  -0.274  -1.163  0.00  0.00    +0.010 A 
ATOM     11  C   LIG    1       -6.218  -0.427  -2.026  0.00  0.00    +0.010 A 
ATOM     12  C   LIG    1       -5.047   0.270  -1.806  0.00  0.00    +0.020 A 
ENDBRANCH   5   7
BRANCH   3  13
ATOM     13  C   LIG    1        0.007   1.217  -0.240  0.00  0.00    +0.550 C 
ATOM     14  N   LIG    1        1.147   1.904  -0.025  0.00  0.00    -0.660 N 
ATOM     15  H   LIG    1        1.123   2.870   0.059  0.00  0.00    +0.410 HD
ATOM     16  O   LIG    1        0.048   0.018  -0.437  0.00  0.00    -0.460 OA
BRANCH  14  17
ATOM     17  C   LIG    1        2.362   1.225   0.076  0.00  0.00    +0.360 A 
ATOM     18  C   LIG    1        3.515   1.927   0.407  0.00  0.00    -0.060 A 
ATOM     19  C   LIG    1        4.714   1.244   0.510  0.00  0.00    +0.060 A 
ATOM     20  C   LIG    1        4.719  -0.128   0.266  0.00  0.00    +0.000 A 
ATOM     21  C   LIG    1        3.529  -0.761  -0.066  0.00  0.00    +0.330 A 
ATOM     22  N   LIG    1        2.404  -0.078  -0.150  0.00  0.00    -0.470 NA
BRANCH  20  23
ATOM     23  N   LIG    1        5.909  -0.859   0.354  0.00  0.00    -0.470 N 
ATOM     24  C   LIG    1        6.890  -0.404  -0.665  0.00  0.00    +0.180 C 
ATOM     25  C   LIG    1        8.244  -0.903  -0.102  0.00  0.00    +0.030 C 
ATOM     26  C   LIG    1        8.084  -0.693   1.421  0.00  0.00    +0.020 C 
ATOM     27  C   LIG    1        6.563  -0.651   1.664  0.00  0.00    +0.170 C 
ENDBRANCH  20  23
ENDBRANCH  14  17
ENDBRANCH   3  13
BRANCH   6  28
ATOM     28  O   LIG    1       -4.920   3.910  -0.243  0.00  0.00    -0.320 OA
ATOM     29  C   LIG    1       -5.373   4.432  -1.494  0.00  0.00    +0.240 C 
ENDBRANCH   6  28
BRANCH   1  30
ATOM     30  O   LIG    1       -2.592   5.303   0.205  0.00  0.00    -0.300 OA
BRANCH  30  32
ATOM     31  C   LIG    1       -1.591   7.455   0.660  0.00  0.00    +0.070 C 
ATOM     32  C   LIG    1       -1.344   5.963   0.432  0.00  0.00    +0.170 C 
ENDBRANCH  30  32
ENDBRANCH   1  30
TORSDOF 7
