REMARK  Name = ZINCpk00000ebHVD.0
REMARK                            x       y       z     vdW  Elec       q    Type
REMARK                         _______ _______ _______ _____ _____    ______ ____
ROOT
ATOM      1  C   LIG    1       -0.013   1.086   0.008  0.00  0.00    +0.030 C 
ATOM      2  C   LIG    1        1.423   1.616  -0.003  0.00  0.00    +0.050 C 
ATOM      3  C   LIG    1        2.152   1.095  -1.244  0.00  0.00    +0.030 C 
ATOM      4  C   LIG    1        1.439   1.603  -2.501  0.00  0.00    +0.270 C 
ATOM      5  N   LIG    1        0.022   1.221  -2.428  0.00  0.00    -0.610 N 
ATOM      6  C   LIG    1       -0.559   0.542  -3.437  0.00  0.00    +0.520 C 
ATOM      7  O   LIG    1       -1.729   0.232  -3.365  0.00  0.00    -0.520 OA
ATOM      8  C   LIG    1       -0.750   1.594  -1.235  0.00  0.00    +0.310 C 
ENDROOT
BRANCH   1  10
ATOM      9  O   LIG    1       -0.135   2.271   2.041  0.00  0.00    -0.480 OA
ATOM     10  C   LIG    1       -0.719   1.573   1.247  0.00  0.00    +0.470 C 
BRANCH  10  11
ATOM     11  O   LIG    1       -1.998   1.230   1.468  0.00  0.00    -0.330 OA
BRANCH  11  12
ATOM     12  C   LIG    1       -2.615   1.735   2.682  0.00  0.00    +0.160 C 
ATOM     13  C   LIG    1       -3.747   0.789   3.143  0.00  0.00    +0.070 C 
ATOM     14  C   LIG    1       -4.887   1.781   3.468  0.00  0.00    +0.270 C 
ATOM     15  O   LIG    1       -4.620   2.934   2.615  0.00  0.00    -0.330 OA
ATOM     16  C   LIG    1       -3.300   3.057   2.414  0.00  0.00    +0.470 C 
ATOM     17  O   LIG    1       -2.742   4.072   2.069  0.00  0.00    -0.430 OA
ENDBRANCH  11  12
ENDBRANCH  10  11
ENDBRANCH   1  10
BRANCH   6  18
ATOM     18  C   LIG    1        0.247   0.167  -4.655  0.00  0.00    +0.120 C 
BRANCH  18  19
ATOM     19  C   LIG    1       -0.630  -0.580  -5.626  0.00  0.00    -0.080 A 
ATOM     20  C   LIG    1       -0.722  -1.958  -5.554  0.00  0.00    +0.050 A 
ATOM     21  C   LIG    1       -1.530  -2.644  -6.441  0.00  0.00    -0.010 A 
ATOM     22  C   LIG    1       -2.239  -1.952  -7.408  0.00  0.00    +0.100 A 
ATOM     23  C   LIG    1       -2.142  -0.573  -7.483  0.00  0.00    -0.010 A 
ATOM     24  F   LIG    1       -3.025  -2.623  -8.279  0.00  0.00    -0.140 F 
ATOM     25  C   LIG    1       -1.337   0.111  -6.592  0.00  0.00    +0.060 A 
ENDBRANCH  18  19
ENDBRANCH   6  18
TORSDOF 5
