REMARK  Name = ZINCkj000005lon8.0
REMARK                            x       y       z     vdW  Elec       q    Type
REMARK                         _______ _______ _______ _____ _____    ______ ____
ROOT
ATOM      1  C   LIG    1        0.884  -2.002  -1.110  0.00  0.00    -0.020 C 
ATOM      2  C   LIG    1       -0.527  -2.594  -1.182  0.00  0.00    +0.050 C 
ATOM      3  C   LIG    1       -1.364  -2.038  -0.027  0.00  0.00    +0.070 C 
ATOM      4  C   LIG    1       -1.372  -0.510  -0.099  0.00  0.00    +0.250 C 
ATOM      5  N   LIG    1        0.002  -0.004   0.002  0.00  0.00    -0.380 N 
ATOM      6  H   LIG    1        0.419  -0.339   0.858  0.00  0.00    +0.420 HD
ATOM      7  C   LIG    1        0.792  -0.475  -1.142  0.00  0.00    +0.270 C 
ENDROOT
BRANCH   1   8
ATOM      8  C   LIG    1        1.706  -2.490  -2.304  0.00  0.00    +0.300 C 
BRANCH   8   9
ATOM      9  N   LIG    1        1.894  -3.940  -2.207  0.00  0.00    -1.120 NA
ATOM     10  H   LIG    1        1.714  -4.398  -1.372  0.00  0.00    +0.420 HD
BRANCH   9  11
ATOM     11  S   LIG    1        2.415  -4.796  -3.525  0.00  0.00    +2.800 S 
ATOM     12  O   LIG    1        1.602  -4.388  -4.617  0.00  0.00    -0.980 OA
ATOM     13  O   LIG    1        2.529  -6.149  -3.105  0.00  0.00    -0.970 OA
BRANCH  11  14
ATOM     14  N   LIG    1        3.952  -4.282  -3.868  0.00  0.00    -1.260 NA
ATOM     15  H   LIG    1        4.437  -4.668  -4.615  0.00  0.00    +0.430 HD
ATOM     16  H   LIG    1        4.366  -3.596  -3.323  0.00  0.00    +0.410 HD
ENDBRANCH  11  14
ENDBRANCH   9  11
ENDBRANCH   8   9
ENDBRANCH   1   8
BRANCH   5  17
ATOM     17  C   LIG    1       -0.018   1.465   0.010  0.00  0.00    +0.320 C 
BRANCH  17  18
ATOM     18  C   LIG    1       -0.723   1.951   1.250  0.00  0.00    -0.150 A 
ATOM     19  C   LIG    1       -2.040   2.365   1.179  0.00  0.00    +0.060 A 
ATOM     20  C   LIG    1       -2.689   2.806   2.317  0.00  0.00    +0.040 A 
ATOM     21  C   LIG    1       -2.018   2.844   3.525  0.00  0.00    +0.080 A 
ATOM     22  C   LIG    1       -0.699   2.434   3.596  0.00  0.00    +0.050 A 
ATOM     23  C   LIG    1       -0.051   1.988   2.459  0.00  0.00    -0.020 A 
ATOM     24 CL   LIG    1        1.605   1.473   2.548  0.00  0.00    -0.060 Cl
ENDBRANCH  17  18
ENDBRANCH   5  17
TORSDOF 6
