REMARK  Name = ZINCkj000005lon8.1
REMARK                            x       y       z     vdW  Elec       q    Type
REMARK                         _______ _______ _______ _____ _____    ______ ____
ROOT
ATOM      1  C   LIG    1       -2.654   1.190   3.272  0.00  0.00    -0.020 C 
ATOM      2  C   LIG    1       -1.771   0.512   4.324  0.00  0.00    +0.050 C 
ATOM      3  C   LIG    1       -2.241   0.934   5.720  0.00  0.00    +0.060 C 
ATOM      4  C   LIG    1       -3.719   0.575   5.884  0.00  0.00    +0.260 C 
ATOM      5  N   LIG    1       -4.513   1.274   4.866  0.00  0.00    -0.380 N 
ATOM      6  H   LIG    1       -5.492   1.077   5.011  0.00  0.00    +0.420 HD
ATOM      7  C   LIG    1       -4.116   0.820   3.528  0.00  0.00    +0.260 C 
ENDROOT
BRANCH   1   8
ATOM      8  C   LIG    1       -2.242   0.714   1.877  0.00  0.00    +0.300 C 
BRANCH   8   9
ATOM      9  N   LIG    1       -0.879   1.167   1.589  0.00  0.00    -1.130 NA
ATOM     10  H   LIG    1       -0.472   1.856   2.136  0.00  0.00    +0.420 HD
BRANCH   9  11
ATOM     11  S   LIG    1       -0.035   0.501   0.330  0.00  0.00    +2.800 S 
ATOM     12  O   LIG    1        1.220   1.167   0.291  0.00  0.00    -0.970 OA
ATOM     13  O   LIG    1       -0.163  -0.908   0.460  0.00  0.00    -0.970 OA
BRANCH  11  14
ATOM     14  N   LIG    1       -0.827   0.916  -1.065  0.00  0.00    -1.250 NA
ATOM     15  H   LIG    1       -0.942   1.850  -1.297  0.00  0.00    +0.420 HD
ATOM     16  H   LIG    1       -1.175   0.224  -1.649  0.00  0.00    +0.420 HD
ENDBRANCH  11  14
ENDBRANCH   9  11
ENDBRANCH   8   9
ENDBRANCH   1   8
BRANCH   5  17
ATOM     17  C   LIG    1       -4.284   2.720   4.978  0.00  0.00    +0.320 C 
BRANCH  17  18
ATOM     18  C   LIG    1       -5.207   3.449   4.035  0.00  0.00    -0.150 A 
ATOM     19  C   LIG    1       -4.717   3.964   2.850  0.00  0.00    +0.060 A 
ATOM     20  C   LIG    1       -5.565   4.628   1.982  0.00  0.00    +0.030 A 
ATOM     21  C   LIG    1       -6.900   4.786   2.304  0.00  0.00    +0.080 A 
ATOM     22  C   LIG    1       -7.389   4.276   3.492  0.00  0.00    +0.050 A 
ATOM     23  C   LIG    1       -6.543   3.607   4.358  0.00  0.00    -0.030 A 
ATOM     24 CL   LIG    1       -7.157   2.966   5.850  0.00  0.00    -0.050 Cl
ENDBRANCH  17  18
ENDBRANCH   5  17
TORSDOF 6
