REMARK  Name = ZINCpk00000xJkaY.0
REMARK                            x       y       z     vdW  Elec       q    Type
REMARK                         _______ _______ _______ _____ _____    ______ ____
ROOT
ATOM      1  C   LIG    1        3.534   1.307   2.387  0.00  0.00    +0.520 C 
ATOM      2  N   LIG    1        4.214   1.912   3.381  0.00  0.00    -0.670 N 
ATOM      3  H   LIG    1        3.836   2.688   3.825  0.00  0.00    +0.420 HD
ATOM      4  O   LIG    1        3.960   0.282   1.898  0.00  0.00    -0.510 OA
ENDROOT
BRANCH   1  10
ATOM      5  C   LIG    1       -0.679   1.036   0.106  0.00  0.00    +0.520 C 
ATOM      6  N   LIG    1        0.496   1.690   0.196  0.00  0.00    -0.620 N 
ATOM      7  C   LIG    1        0.620   3.075  -0.277  0.00  0.00    +0.280 C 
ATOM      8  C   LIG    1        1.196   3.930   0.862  0.00  0.00    +0.020 C 
ATOM      9  C   LIG    1        2.510   3.311   1.343  0.00  0.00    +0.040 C 
ATOM     10  C   LIG    1        2.245   1.904   1.884  0.00  0.00    -0.010 C 
ATOM     11  C   LIG    1        1.680   1.028   0.761  0.00  0.00    +0.310 C 
ATOM     12  O   LIG    1       -1.671   1.621  -0.275  0.00  0.00    -0.530 OA
BRANCH   5  14
ATOM     13  C   LIG    1       -2.231  -0.830   0.616  0.00  0.00    +0.060 C 
ATOM     14  C   LIG    1       -0.762  -0.420   0.487  0.00  0.00    -0.030 C 
ATOM     15  C   LIG    1       -0.089  -1.268  -0.594  0.00  0.00    +0.040 C 
ENDBRANCH   5  14
ENDBRANCH   1  10
BRANCH   2  16
ATOM     16  C   LIG    1        5.465   1.421   3.773  0.00  0.00    +0.090 A 
ATOM     17  C   LIG    1        6.317   0.833   2.840  0.00  0.00    +0.100 A 
ATOM     18  C   LIG    1        7.544   0.362   3.273  0.00  0.00    +0.020 A 
ATOM     19  C   LIG    1        7.884   0.490   4.614  0.00  0.00    +0.340 A 
ATOM     20  N   LIG    1        7.050   1.054   5.473  0.00  0.00    -0.480 NA
ATOM     21  C   LIG    1        5.876   1.519   5.096  0.00  0.00    +0.280 A 
BRANCH  19  22
ATOM     22  N   LIG    1        9.122   0.016   5.061  0.00  0.00    -0.330 N 
ATOM     23  C   LIG    1        9.601   0.069   6.320  0.00  0.00    +0.520 A 
ATOM     24  N   LIG    1       10.788  -0.480   6.325  0.00  0.00    -0.540 NA
ATOM     25  C   LIG    1       11.104  -0.886   5.095  0.00  0.00    +0.450 A 
ATOM     26  N   LIG    1       10.116  -0.604   4.287  0.00  0.00    -0.310 NA
ENDBRANCH  19  22
ENDBRANCH   2  16
TORSDOF 4
