REMARK  Name = ZINCrH000004vDPV.0
REMARK                            x       y       z     vdW  Elec       q    Type
REMARK                         _______ _______ _______ _____ _____    ______ ____
ROOT
ATOM      1  O   LIG    1       -2.484   5.101  -0.054  0.00  0.00    -0.520 OA
ATOM      2  C   LIG    1       -2.509   3.890   0.046  0.00  0.00    +0.560 C 
ATOM      3  N   LIG    1       -3.681   3.231  -0.048  0.00  0.00    -0.600 N 
ATOM      4  C   LIG    1       -4.928   4.014  -0.142  0.00  0.00    +0.280 C 
ATOM      5  C   LIG    1       -5.903   3.430  -1.180  0.00  0.00    +0.060 C 
ATOM      6  C   LIG    1       -5.147   2.977  -2.405  0.00  0.00    +0.070 C 
ATOM      7  C   LIG    1       -4.773   1.506  -2.252  0.00  0.00    +0.120 C 
ATOM      8  C   LIG    1       -3.526   1.272  -1.507  0.00  0.00    +0.010 C 
ATOM      9  C   LIG    1       -3.663   1.785  -0.059  0.00  0.00    +0.310 C 
ENDROOT
BRANCH   2  10
ATOM     10  C   LIG    1       -1.252   3.139   0.271  0.00  0.00    -0.050 A 
ATOM     11  C   LIG    1       -1.050   1.885  -0.316  0.00  0.00    -0.050 A 
ATOM     12  C   LIG    1        0.133   1.215  -0.077  0.00  0.00    +0.310 A 
ATOM     13  N   LIG    1        1.071   1.744   0.684  0.00  0.00    -0.520 NA
ATOM     14  C   LIG    1        0.926   2.927   1.254  0.00  0.00    +0.330 A 
ATOM     15  C   LIG    1       -0.236   3.666   1.070  0.00  0.00    +0.010 A 
BRANCH  14  16
ATOM     16  O   LIG    1        1.922   3.426   2.028  0.00  0.00    -0.300 OA
BRANCH  16  17
ATOM     17  C   LIG    1        3.092   2.619   2.179  0.00  0.00    +0.180 C 
ATOM     18  C   LIG    1        2.925   1.702   3.392  0.00  0.00    +0.010 C 
ATOM     19  C   LIG    1        4.178   0.838   3.554  0.00  0.00    +0.020 C 
ATOM     20  C   LIG    1        5.396   1.740   3.761  0.00  0.00    +0.010 C 
ATOM     21  C   LIG    1        5.563   2.658   2.548  0.00  0.00    +0.020 C 
ATOM     22  C   LIG    1        4.311   3.522   2.386  0.00  0.00    +0.020 C 
ENDBRANCH  16  17
ENDBRANCH  14  16
ENDBRANCH   2  10
BRANCH   7  23
ATOM     23  C   LIG    1       -4.628   0.894  -3.647  0.00  0.00    +0.420 C 
ATOM     24  F   LIG    1       -5.840   1.009  -4.335  0.00  0.00    -0.170 F 
ATOM     25  F   LIG    1       -4.284  -0.457  -3.530  0.00  0.00    -0.180 F 
ATOM     26  F   LIG    1       -3.626   1.571  -4.351  0.00  0.00    -0.180 F 
ENDBRANCH   7  23
BRANCH   7  27
ATOM     27  O   LIG    1       -5.836   0.835  -1.573  0.00  0.00    -0.530 OA
ATOM     28  H   LIG    1       -5.680  -0.109  -1.433  0.00  0.00    +0.390 HD
ENDBRANCH   7  27
TORSDOF 5
