REMARK  Name = ZINCpe00000gMNQ5.0
REMARK                            x       y       z     vdW  Elec       q    Type
REMARK                         _______ _______ _______ _____ _____    ______ ____
ROOT
ATOM      1  C   LIG    1        2.905   0.845   1.394  0.00  0.00    +0.520 C 
ATOM      2  N   LIG    1        4.055   0.181   1.624  0.00  0.00    -0.720 N 
ATOM      3  H   LIG    1        4.630  -0.065   0.882  0.00  0.00    +0.400 HD
ATOM      4  O   LIG    1        2.186   1.152   2.321  0.00  0.00    -0.530 OA
ENDROOT
BRANCH   2   5
ATOM      5  C   LIG    1        4.437  -0.169   2.994  0.00  0.00    +0.260 C 
ATOM      6  C   LIG    1        5.204   0.991   3.664  0.00  0.00    +0.080 C 
ATOM      7  C   LIG    1        6.665   0.714   3.384  0.00  0.00    -0.080 A 
ATOM      8  C   LIG    1        7.767   1.550   3.459  0.00  0.00    +0.000 A 
ATOM      9  C   LIG    1        9.027   1.073   3.152  0.00  0.00    +0.030 A 
ATOM     10  C   LIG    1        9.193  -0.244   2.770  0.00  0.00    -0.020 A 
ATOM     11  C   LIG    1        8.093  -1.085   2.695  0.00  0.00    +0.120 A 
ATOM     12  C   LIG    1        6.826  -0.604   3.003  0.00  0.00    -0.130 A 
ATOM     13  C   LIG    1        5.484  -1.304   2.999  0.00  0.00    +0.100 C 
BRANCH  11  14
ATOM     14  O   LIG    1        8.254  -2.381   2.318  0.00  0.00    -0.500 OA
ATOM     15  H   LIG    1        8.183  -2.525   1.365  0.00  0.00    +0.390 HD
ENDBRANCH  11  14
ENDBRANCH   2   5
BRANCH   1  16
ATOM     16  C   LIG    1        2.512   1.205  -0.016  0.00  0.00    +0.160 C 
BRANCH  16  19
ATOM     17  C   LIG    1        2.463   4.066   0.001  0.00  0.00    +0.160 C 
ATOM     18  C   LIG    1        1.171   3.289   0.009  0.00  0.00    +0.230 A 
ATOM     19  C   LIG    1        1.195   1.937   0.001  0.00  0.00    -0.260 A 
ATOM     20  C   LIG    1       -0.014   1.214   0.009  0.00  0.00    +0.580 A 
ATOM     21  N   LIG    1       -1.189   1.873   0.018  0.00  0.00    -0.360 N 
ATOM     22  N   LIG    1       -2.518   1.432   0.033  0.00  0.00    -0.260 NA
ATOM     23  C   LIG    1       -3.303   2.480   0.045  0.00  0.00    +0.290 A 
ATOM     24  C   LIG    1       -2.511   3.630   0.044  0.00  0.00    -0.120 A 
ATOM     25  C   LIG    1       -1.206   3.239   0.031  0.00  0.00    +0.300 A 
ATOM     26  O   LIG    1        0.002  -0.004   0.002  0.00  0.00    -0.490 OA
ATOM     27  N   LIG    1       -0.021   3.949   0.024  0.00  0.00    -0.600 N 
ATOM     28  H   LIG    1       -0.037   4.919   0.029  0.00  0.00    +0.430 HD
ENDBRANCH  16  19
ENDBRANCH   1  16
TORSDOF 4
