REMARK  Name = ZINCpe000000V28e.1
REMARK                            x       y       z     vdW  Elec       q    Type
REMARK                         _______ _______ _______ _____ _____    ______ ____
ROOT
ATOM      1  S   LIG    1       -1.322   6.048   0.764  0.00  0.00    +2.690 S 
ATOM      2  O   LIG    1       -2.513   5.374   0.380  0.00  0.00    -0.940 OA
ATOM      3  O   LIG    1       -1.102   7.432   0.530  0.00  0.00    -0.940 OA
ENDROOT
BRANCH   1   8
ATOM      4  C   LIG    1       -1.627   4.531   4.473  0.00  0.00    -0.700 A 
ATOM      5  C   LIG    1       -0.883   5.420   5.226  0.00  0.00    +0.190 A 
ATOM      6  C   LIG    1       -0.274   6.501   4.617  0.00  0.00    +0.000 A 
ATOM      7  C   LIG    1       -0.408   6.693   3.254  0.00  0.00    +0.190 A 
ATOM      8  C   LIG    1       -1.151   5.803   2.501  0.00  0.00    -0.700 A 
ATOM      9  C   LIG    1       -1.765   4.725   3.111  0.00  0.00    +0.240 A 
BRANCH   4  10
ATOM     10  S   LIG    1       -2.404   3.153   5.249  0.00  0.00    +2.700 S 
ATOM     11  O   LIG    1       -1.677   2.903   6.444  0.00  0.00    -0.950 OA
ATOM     12  O   LIG    1       -2.594   2.176   4.235  0.00  0.00    -0.940 OA
BRANCH  10  14
ATOM     13  C   LIG    1       -4.911   4.011   4.706  0.00  0.00    +0.300 C 
ATOM     14  N   LIG    1       -3.916   3.642   5.716  0.00  0.00    -1.120 NA
ATOM     15  H   LIG    1       -4.143   3.683   6.658  0.00  0.00    +0.420 HD
ENDBRANCH  10  14
ENDBRANCH   4  10
ENDBRANCH   1   8
BRANCH   1  16
ATOM     16  N   LIG    1       -0.073   5.245   0.031  0.00  0.00    -1.050 N 
ATOM     17  H   LIG    1        0.565   5.734  -0.511  0.00  0.00    +0.430 HD
BRANCH  16  18
ATOM     18  C   LIG    1        0.061   3.862   0.194  0.00  0.00    +0.130 A 
ATOM     19  C   LIG    1       -1.067   3.062   0.276  0.00  0.00    +0.020 A 
ATOM     20  C   LIG    1       -0.941   1.694   0.432  0.00  0.00    +0.040 A 
ATOM     21  C   LIG    1        0.316   1.122   0.516  0.00  0.00    +0.060 A 
ATOM     22  C   LIG    1        1.442   1.914   0.434  0.00  0.00    -0.120 A 
ATOM     23  C   LIG    1        2.920   1.605   0.483  0.00  0.00    +0.140 C 
ATOM     24  C   LIG    1        3.585   2.956   0.332  0.00  0.00    +0.530 C 
ATOM     25  O   LIG    1        4.778   3.175   0.316  0.00  0.00    -0.500 OA
ATOM     26  N   LIG    1        2.604   3.868   0.216  0.00  0.00    -0.660 N 
ATOM     27  H   LIG    1        2.760   4.819   0.106  0.00  0.00    +0.410 HD
ATOM     28  C   LIG    1        1.334   3.287   0.273  0.00  0.00    +0.120 A 
ENDBRANCH  16  18
ENDBRANCH   1  16
TORSDOF 5
