REMARK  Name = ZINCqH0000007YPm.0
REMARK                            x       y       z     vdW  Elec       q    Type
REMARK                         _______ _______ _______ _____ _____    ______ ____
ROOT
ATOM      1  C   LIG    1        2.716   3.852  -0.377  0.00  0.00    +0.550 C 
ATOM      2  N   LIG    1        3.037   2.612   0.044  0.00  0.00    -0.650 N 
ATOM      3  H   LIG    1        3.940   2.419   0.341  0.00  0.00    +0.420 HD
ATOM      4  O   LIG    1        1.568   4.114  -0.676  0.00  0.00    -0.510 OA
ENDROOT
BRANCH   1   8
ATOM      5  C   LIG    1        5.721   6.841  -0.657  0.00  0.00    -0.640 A 
ATOM      6  C   LIG    1        4.415   7.143  -0.999  0.00  0.00    +0.120 A 
ATOM      7  C   LIG    1        3.434   6.177  -0.910  0.00  0.00    +0.070 A 
ATOM      8  C   LIG    1        3.762   4.892  -0.474  0.00  0.00    -0.080 A 
ATOM      9  C   LIG    1        5.081   4.595  -0.126  0.00  0.00    +0.030 A 
ATOM     10  C   LIG    1        6.053   5.569  -0.224  0.00  0.00    +0.120 A 
BRANCH   5  12
ATOM     11  C   LIG    1        6.964   8.880   0.855  0.00  0.00    -0.250 C 
ATOM     12  S   LIG    1        6.967   8.081  -0.774  0.00  0.00    +2.500 S 
ATOM     13  O   LIG    1        6.482   8.973  -1.768  0.00  0.00    -0.930 OA
ATOM     14  O   LIG    1        8.171   7.351  -0.969  0.00  0.00    -0.930 OA
ENDBRANCH   5  12
ENDBRANCH   1   8
BRANCH   2  15
ATOM     15  C   LIG    1        2.065   1.603   0.054  0.00  0.00    +0.160 A 
ATOM     16  C   LIG    1        0.723   1.931   0.167  0.00  0.00    +0.030 A 
ATOM     17  C   LIG    1       -0.235   0.934   0.176  0.00  0.00    +0.030 A 
ATOM     18  C   LIG    1        0.142  -0.392   0.073  0.00  0.00    -0.010 A 
ATOM     19  C   LIG    1        1.478  -0.729  -0.039  0.00  0.00    +0.000 A 
ATOM     20  C   LIG    1        2.445   0.265  -0.049  0.00  0.00    +0.060 A 
BRANCH  20  21
ATOM     21  N   LIG    1        3.798  -0.074  -0.163  0.00  0.00    -0.520 N 
ATOM     22  C   LIG    1        4.067  -0.759  -1.446  0.00  0.00    +0.180 C 
ATOM     23  C   LIG    1        5.436  -1.381  -1.500  0.00  0.00    +0.030 C 
ATOM     24  C   LIG    1        5.322  -2.855  -1.057  0.00  0.00    +0.000 C 
ATOM     25  C   LIG    1        5.231  -2.989   0.393  0.00  0.00    +0.000 C 
ATOM     26  C   LIG    1        3.984  -2.281   0.966  0.00  0.00    -0.010 C 
ATOM     27  C   LIG    1        4.264  -0.805   1.037  0.00  0.00    +0.210 C 
ENDBRANCH  20  21
ENDBRANCH   2  15
TORSDOF 4
