REMARK  Name = ZINCrg00000fSjsm.0
REMARK                            x       y       z     vdW  Elec       q    Type
REMARK                         _______ _______ _______ _____ _____    ______ ____
ROOT
ATOM      1  C   LIG    1        4.964   1.341   3.568  0.00  0.00    +0.510 C 
ATOM      2  O   LIG    1        5.566   2.218   4.155  0.00  0.00    -0.490 OA
ENDROOT
BRANCH   1   9
ATOM      3  C   LIG    1        6.404   0.730   6.002  0.00  0.00    +0.120 C 
ATOM      4  C   LIG    1        5.536  -0.310   5.343  0.00  0.00    +0.040 A 
ATOM      5  C   LIG    1        5.417  -1.566   5.901  0.00  0.00    +0.000 A 
ATOM      6  C   LIG    1        4.624  -2.524   5.294  0.00  0.00    +0.170 A 
ATOM      7  C   LIG    1        3.942  -2.228   4.127  0.00  0.00    -0.700 A 
ATOM      8  C   LIG    1        4.048  -0.975   3.562  0.00  0.00    +0.200 A 
ATOM      9  C   LIG    1        4.845  -0.003   4.169  0.00  0.00    -0.150 A 
BRANCH   7  10
ATOM     10  S   LIG    1        2.935  -3.456   3.363  0.00  0.00    +2.700 S 
ATOM     11  O   LIG    1        1.978  -2.758   2.578  0.00  0.00    -0.950 OA
ATOM     12  O   LIG    1        2.579  -4.377   4.385  0.00  0.00    -0.960 OA
BRANCH  10  13
ATOM     13  N   LIG    1        3.897  -4.286   2.300  0.00  0.00    -1.250 NA
ATOM     14  H   LIG    1        4.643  -3.839   1.871  0.00  0.00    +0.420 HD
ATOM     15  H   LIG    1        3.713  -5.218   2.107  0.00  0.00    +0.420 HD
ENDBRANCH  10  13
ENDBRANCH   7  10
ENDBRANCH   1   9
BRANCH   1  16
ATOM     16  O   LIG    1        4.404   1.595   2.369  0.00  0.00    -0.350 OA
BRANCH  16  17
ATOM     17  C   LIG    1        4.560   2.938   1.840  0.00  0.00    +0.230 C 
BRANCH  17  18
ATOM     18  C   LIG    1        3.864   3.035   0.482  0.00  0.00    +0.340 C 
BRANCH  18  19
ATOM     19  N   LIG    1        2.421   2.854   0.659  0.00  0.00    -0.580 N 
ATOM     20  C   LIG    1        1.792   1.665   0.611  0.00  0.00    +0.570 C 
ATOM     21  C   LIG    1        0.347   1.888   0.835  0.00  0.00    -0.140 A 
ATOM     22  C   LIG    1       -0.761   1.059   0.894  0.00  0.00    +0.110 A 
ATOM     23  C   LIG    1       -2.015   1.605   1.122  0.00  0.00    +0.050 A 
ATOM     24  C   LIG    1       -2.165   2.967   1.302  0.00  0.00    +0.040 A 
ATOM     25  C   LIG    1       -1.064   3.808   1.245  0.00  0.00    +0.100 A 
ATOM     26  C   LIG    1        0.194   3.278   1.012  0.00  0.00    -0.150 A 
ATOM     27  O   LIG    1        2.322   0.590   0.418  0.00  0.00    -0.440 OA
ATOM     28  C   LIG    1        1.551   3.853   0.890  0.00  0.00    +0.580 C 
ATOM     29  O   LIG    1        1.832   5.031   0.984  0.00  0.00    -0.460 OA
ENDBRANCH  18  19
ENDBRANCH  17  18
ENDBRANCH  16  17
ENDBRANCH   1  16
TORSDOF 7
