REMARK  Name = ZINCzw0000000dCb.1
REMARK                            x       y       z     vdW  Elec       q    Type
REMARK                         _______ _______ _______ _____ _____    ______ ____
ROOT
ATOM      1  C   LIG    1        4.253   2.588  -5.596  0.00  0.00    +0.500 C 
ATOM      2  N   LIG    1        3.922   2.377  -4.306  0.00  0.00    -0.580 N 
ATOM      3  C   LIG    1        3.090   3.345  -3.579  0.00  0.00    +0.300 C 
ATOM      4  C   LIG    1        3.836   3.777  -2.310  0.00  0.00    +0.300 C 
ATOM      5  N   LIG    1        4.301   2.573  -1.606  0.00  0.00    -1.000 NA
ATOM      6  C   LIG    1        5.137   1.607  -2.332  0.00  0.00    +0.300 C 
ATOM      7  C   LIG    1        4.387   1.173  -3.603  0.00  0.00    +0.280 C 
ATOM      8  O   LIG    1        3.863   3.585  -6.166  0.00  0.00    -0.520 OA
ENDROOT
BRANCH   5   9
ATOM      9  S   LIG    1        3.894   2.313  -0.022  0.00  0.00    +2.690 S 
ATOM     10  O   LIG    1        4.884   1.442   0.508  0.00  0.00    -0.940 OA
ATOM     11  O   LIG    1        3.604   3.589   0.532  0.00  0.00    -0.940 OA
BRANCH   9  12
ATOM     12  C   LIG    1        2.381   1.411  -0.013  0.00  0.00    -0.680 A 
ATOM     13  C   LIG    1        2.400   0.029  -0.021  0.00  0.00    +0.120 A 
ATOM     14  C   LIG    1        1.212  -0.677  -0.013  0.00  0.00    +0.000 A 
ATOM     15  C   LIG    1        0.002  -0.004   0.002  0.00  0.00    -0.040 A 
ATOM     16  C   LIG    1       -1.415  -0.535   0.012  0.00  0.00    +0.070 C 
ATOM     17  C   LIG    1       -2.297   0.658  -0.413  0.00  0.00    +0.030 C 
ATOM     18  C   LIG    1       -1.448   1.871   0.020  0.00  0.00    +0.080 C 
ATOM     19  C   LIG    1       -0.017   1.378   0.010  0.00  0.00    -0.110 A 
ATOM     20  C   LIG    1        1.175   2.084   0.002  0.00  0.00    +0.130 A 
ENDBRANCH   9  12
ENDBRANCH   5   9
BRANCH   1  21
ATOM     21  C   LIG    1        5.107   1.585  -6.329  0.00  0.00    +0.290 C 
BRANCH  21  25
ATOM     22  C   LIG    1        5.239   1.721 -10.585  0.00  0.00    -0.030 C 
ATOM     23  C   LIG    1        4.248   2.615  -9.834  0.00  0.00    +0.090 C 
ATOM     24  C   LIG    1        4.041   2.062  -8.422  0.00  0.00    +0.270 C 
ATOM     25  N   LIG    1        5.323   2.042  -7.708  0.00  0.00    -0.370 N 
ATOM     26  C   LIG    1        6.254   1.130  -8.383  0.00  0.00    +0.280 C 
ATOM     27  H   LIG    1        5.715   2.972  -7.695  0.00  0.00    +0.430 HD
ATOM     28  C   LIG    1        6.548   1.647  -9.793  0.00  0.00    +0.080 C 
BRANCH  22  30
ATOM     29  O   LIG    1        5.449   3.501 -12.120  0.00  0.00    -0.440 OA
ATOM     30  C   LIG    1        5.508   2.302 -11.950  0.00  0.00    +0.410 C 
BRANCH  30  31
ATOM     31  C   LIG    1        5.842   1.414 -13.075  0.00  0.00    -0.180 A 
ATOM     32  C   LIG    1        5.917   0.031 -12.881  0.00  0.00    +0.050 A 
ATOM     33  C   LIG    1        6.225  -0.794 -13.942  0.00  0.00    +0.000 A 
ATOM     34  C   LIG    1        6.471  -0.257 -15.193  0.00  0.00    +0.050 A 
ATOM     35  C   LIG    1        6.405   1.112 -15.392  0.00  0.00    +0.010 A 
ATOM     36  C   LIG    1        6.092   1.950 -14.342  0.00  0.00    +0.080 A 
ENDBRANCH  30  31
ENDBRANCH  22  30
ENDBRANCH  21  25
ENDBRANCH   1  21
TORSDOF 6
