REMARK  Name = ZINCpe000000WGRM.0
REMARK                            x       y       z     vdW  Elec       q    Type
REMARK                         _______ _______ _______ _____ _____    ______ ____
ROOT
ATOM      1  C   LIG    1       -0.570   1.936   3.634  0.00  0.00    +0.000 C 
ATOM      2  C   LIG    1       -1.971   1.340   3.801  0.00  0.00    +0.010 C 
ATOM      3  C   LIG    1       -2.775   1.579   2.520  0.00  0.00    +0.030 C 
ATOM      4  C   LIG    1       -2.034   0.956   1.334  0.00  0.00    +0.170 C 
ATOM      5  N   LIG    1       -0.700   1.560   1.217  0.00  0.00    -0.520 NA
ATOM      6  C   LIG    1        0.107   1.303   2.416  0.00  0.00    +0.180 C 
ENDROOT
BRANCH   1   7
ATOM      7  C   LIG    1        0.260   1.650   4.886  0.00  0.00    +0.270 C 
BRANCH   7   8
ATOM      8  N   LIG    1       -0.326   2.352   6.031  0.00  0.00    -1.120 NA
ATOM      9  H   LIG    1       -0.977   3.056   5.887  0.00  0.00    +0.420 HD
BRANCH   8  11
ATOM     10  C   LIG    1        1.880   2.388   7.664  0.00  0.00    -0.280 C 
ATOM     11  S   LIG    1        0.124   1.943   7.572  0.00  0.00    +2.620 S 
ATOM     12  O   LIG    1       -0.036   0.531   7.620  0.00  0.00    -0.960 OA
ATOM     13  O   LIG    1       -0.651   2.797   8.402  0.00  0.00    -0.960 OA
ENDBRANCH   8  11
ENDBRANCH   7   8
ENDBRANCH   1   7
BRANCH   5  14
ATOM     14  C   LIG    1       -0.013   1.086   0.008  0.00  0.00    +0.200 C 
BRANCH  14  15
ATOM     15  C   LIG    1       -0.742   1.585  -1.213  0.00  0.00    +0.520 C 
ATOM     16  N   LIG    1       -0.288   1.272  -2.443  0.00  0.00    -0.620 N 
ATOM     17  C   LIG    1       -0.977   1.744  -3.656  0.00  0.00    +0.280 C 
ATOM     18  C   LIG    1       -0.028   2.681  -4.401  0.00  0.00    +0.070 C 
ATOM     19  C   LIG    1        1.345   2.071  -4.517  0.00  0.00    -0.070 A 
ATOM     20  C   LIG    1        2.192   2.574  -5.497  0.00  0.00    +0.000 A 
ATOM     21  C   LIG    1        3.465   2.067  -5.653  0.00  0.00    +0.010 A 
ATOM     22  C   LIG    1        3.905   1.049  -4.827  0.00  0.00    +0.000 A 
ATOM     23  C   LIG    1        3.065   0.546  -3.854  0.00  0.00    +0.010 A 
ATOM     24  C   LIG    1        1.782   1.053  -3.700  0.00  0.00    -0.100 A 
ATOM     25  C   LIG    1        0.914   0.453  -2.628  0.00  0.00    +0.320 C 
ATOM     26  O   LIG    1       -1.736   2.268  -1.088  0.00  0.00    -0.520 OA
ENDBRANCH  14  15
ENDBRANCH   5  14
TORSDOF 5
