REMARK  Name = ZINCpk000004ATb1.0
REMARK                            x       y       z     vdW  Elec       q    Type
REMARK                         _______ _______ _______ _____ _____    ______ ____
ROOT
ATOM      1  C   LIG    1       -1.152  -4.901   1.642  0.00  0.00    +0.560 C 
ATOM      2  N   LIG    1       -2.114  -4.124   1.105  0.00  0.00    -0.720 N 
ATOM      3  H   LIG    1       -2.882  -4.531   0.675  0.00  0.00    +0.400 HD
ATOM      4  O   LIG    1       -0.190  -4.391   2.182  0.00  0.00    -0.520 OA
ENDROOT
BRANCH   2   5
ATOM      5  C   LIG    1       -2.000  -2.665   1.174  0.00  0.00    +0.230 C 
ATOM      6  C   LIG    1       -3.395  -2.039   1.094  0.00  0.00    +0.020 C 
ATOM      7  C   LIG    1       -3.280  -0.517   1.198  0.00  0.00    +0.030 C 
ATOM      8  C   LIG    1       -2.446   0.009   0.025  0.00  0.00    +0.280 C 
ATOM      9  N   LIG    1       -1.156  -0.694   0.009  0.00  0.00    -0.590 N 
ATOM     10  C   LIG    1        0.002  -0.004   0.002  0.00  0.00    +0.650 C 
ATOM     11  O   LIG    1        1.062  -0.597  -0.011  0.00  0.00    -0.560 OA
ATOM     12  C   LIG    1       -1.152  -2.163  -0.005  0.00  0.00    +0.300 C 
BRANCH  10  13
ATOM     13  O   LIG    1       -0.016   1.342   0.009  0.00  0.00    -0.370 OA
ATOM     14  C   LIG    1        1.268   2.019   0.001  0.00  0.00    +0.280 C 
ENDBRANCH  10  13
ENDBRANCH   2   5
BRANCH   1  18
ATOM     15  C   LIG    1       -1.482  -9.131   1.444  0.00  0.00    -0.080 A 
ATOM     16  C   LIG    1       -0.386  -8.554   2.060  0.00  0.00    +0.020 A 
ATOM     17  C   LIG    1       -0.272  -7.180   2.127  0.00  0.00    +0.080 A 
ATOM     18  C   LIG    1       -1.267  -6.373   1.573  0.00  0.00    -0.130 A 
ATOM     19  C   LIG    1       -2.373  -6.962   0.959  0.00  0.00    +0.040 A 
ATOM     20  C   LIG    1       -2.472  -8.336   0.893  0.00  0.00    +0.020 A 
BRANCH  15  21
ATOM     21  C   LIG    1       -1.599 -10.632   1.374  0.00  0.00    +0.320 C 
BRANCH  21  23
ATOM     22  C   LIG    1       -2.534 -12.443   2.709  0.00  0.00    +0.540 C 
ATOM     23  N   LIG    1       -2.312 -11.122   2.557  0.00  0.00    -0.720 N 
ATOM     24  H   LIG    1       -2.623 -10.497   3.229  0.00  0.00    +0.400 HD
ATOM     25  O   LIG    1       -2.144 -13.227   1.866  0.00  0.00    -0.540 OA
BRANCH  22  27
ATOM     26  C   LIG    1       -3.470 -14.238   4.048  0.00  0.00    +0.150 C 
ATOM     27  C   LIG    1       -3.250 -12.935   3.897  0.00  0.00    -0.090 C 
ENDBRANCH  22  27
ENDBRANCH  21  23
ENDBRANCH  15  21
ENDBRANCH   1  18
TORSDOF 6
