REMARK  Name = ZINCvU0000000EFv.0
REMARK                            x       y       z     vdW  Elec       q    Type
REMARK                         _______ _______ _______ _____ _____    ______ ____
ROOT
ATOM      1  C   LIG    1       -0.048   0.047  -5.206  0.00  0.00    +0.210 A 
ATOM      2  N   LIG    1       -0.064   1.354  -4.968  0.00  0.00    -0.290 NA
ATOM      3  N   LIG    1       -0.084   2.214  -5.925  0.00  0.00    -0.160 NA
ATOM      4  C   LIG    1       -0.090   1.812  -7.192  0.00  0.00    +0.060 A 
ATOM      5  C   LIG    1       -0.074   0.430  -7.469  0.00  0.00    +0.230 A 
ATOM      6  N   LIG    1       -0.048  -0.422  -6.447  0.00  0.00    -0.450 NA
ENDROOT
BRANCH   5   7
ATOM      7  C   LIG    1       -0.080  -0.063  -8.866  0.00  0.00    -0.080 A 
ATOM      8  C   LIG    1       -0.795   0.624  -9.847  0.00  0.00    +0.060 A 
ATOM      9  C   LIG    1       -0.792   0.163 -11.148  0.00  0.00    +0.000 A 
ATOM     10  C   LIG    1       -0.091  -0.984 -11.477  0.00  0.00    +0.040 A 
ATOM     11  C   LIG    1        0.615  -1.672 -10.507  0.00  0.00    +0.000 A 
ATOM     12  C   LIG    1        0.625  -1.218  -9.204  0.00  0.00    +0.070 A 
ENDBRANCH   5   7
BRANCH   4  13
ATOM     13  C   LIG    1       -0.114   2.800  -8.295  0.00  0.00    -0.060 A 
ATOM     14  C   LIG    1        0.575   2.543  -9.480  0.00  0.00    +0.050 A 
ATOM     15  C   LIG    1        0.545   3.466 -10.506  0.00  0.00    +0.010 A 
ATOM     16  C   LIG    1       -0.158   4.648 -10.357  0.00  0.00    +0.030 A 
ATOM     17  C   LIG    1       -0.839   4.910  -9.182  0.00  0.00    +0.000 A 
ATOM     18  C   LIG    1       -0.821   3.993  -8.151  0.00  0.00    +0.060 A 
ENDBRANCH   4  13
BRANCH   1  19
ATOM     19  S   LIG    1       -0.020  -1.080  -3.852  0.00  0.00    +0.120 S 
BRANCH  19  20
ATOM     20  C   LIG    1       -0.023   0.089  -2.470  0.00  0.00    +0.100 C 
BRANCH  20  22
ATOM     21  N   LIG    1        0.002  -0.004   0.002  0.00  0.00    -0.600 N 
ATOM     22  C   LIG    1        0.000  -0.672  -1.169  0.00  0.00    +0.540 C 
ATOM     23  O   LIG    1        0.017  -1.884  -1.175  0.00  0.00    -0.520 OA
BRANCH  21  25
ATOM     24  C   LIG    1        1.418   1.990  -0.001  0.00  0.00    +0.020 C 
ATOM     25  C   LIG    1       -0.018   1.461   0.010  0.00  0.00    +0.270 C 
ENDBRANCH  21  25
BRANCH  21  26
ATOM     26  C   LIG    1        0.024  -0.743   1.267  0.00  0.00    +0.390 C 
BRANCH  26  27
ATOM     27  C   LIG    1       -1.389  -1.016   1.714  0.00  0.00    -0.210 A 
ATOM     28  C   LIG    1       -2.102  -2.096   1.392  0.00  0.00    +0.030 A 
ATOM     29  C   LIG    1       -3.381  -2.130   1.921  0.00  0.00    +0.000 A 
ATOM     30  C   LIG    1       -3.706  -1.077   2.673  0.00  0.00    -0.040 A 
ATOM     31  S   LIG    1       -2.347   0.037   2.746  0.00  0.00    +0.090 S 
ENDBRANCH  26  27
ENDBRANCH  21  26
ENDBRANCH  20  22
ENDBRANCH  19  20
ENDBRANCH   1  19
TORSDOF 8
