REMARK  Name = ZINCrg00000fRec0.0
REMARK                            x       y       z     vdW  Elec       q    Type
REMARK                         _______ _______ _______ _____ _____    ______ ____
ROOT
ATOM      1  C   LIG    1        4.028  -3.844  -0.057  0.00  0.00    +0.570 C 
ATOM      2  N   LIG    1        5.330  -3.495  -0.068  0.00  0.00    -0.710 N 
ATOM      3  H   LIG    1        5.582  -2.558  -0.065  0.00  0.00    +0.410 HD
ATOM      4  O   LIG    1        3.713  -5.018  -0.061  0.00  0.00    -0.530 OA
ENDROOT
BRANCH   1  10
ATOM      5  N   LIG    1        0.002  -0.004   0.002  0.00  0.00    -0.380 N 
ATOM      6  N   LIG    1       -1.127  -0.828   0.014  0.00  0.00    -0.230 NA
ATOM      7  C   LIG    1       -0.769  -2.080  -0.002  0.00  0.00    +0.300 A 
ATOM      8  C   LIG    1        0.690  -2.121  -0.016  0.00  0.00    -0.240 A 
ATOM      9  C   LIG    1        1.634  -3.150  -0.031  0.00  0.00    +0.230 A 
ATOM     10  C   LIG    1        2.984  -2.799  -0.042  0.00  0.00    -0.240 A 
ATOM     11  C   LIG    1        3.338  -1.443  -0.037  0.00  0.00    +0.380 A 
ATOM     12  N   LIG    1        2.426  -0.499  -0.024  0.00  0.00    -0.500 NA
ATOM     13  C   LIG    1        1.127  -0.779  -0.013  0.00  0.00    +0.330 A 
BRANCH   5  15
ATOM     14  C   LIG    1       -0.758   1.968  -1.230  0.00  0.00    +0.050 C 
ATOM     15  C   LIG    1       -0.018   1.461   0.010  0.00  0.00    +0.270 C 
ATOM     16  C   LIG    1       -0.734   1.954   1.269  0.00  0.00    +0.050 C 
ENDBRANCH   5  15
ENDBRANCH   1  10
BRANCH   2  17
ATOM     17  C   LIG    1        6.365  -4.532  -0.083  0.00  0.00    +0.270 C 
ATOM     18  C   LIG    1        6.566  -5.015  -1.527  0.00  0.00    -0.300 C 
ATOM     19  S   LIG    1        8.306  -4.614  -1.936  0.00  0.00    +2.390 S 
ATOM     20  C   LIG    1        8.503  -3.345  -0.621  0.00  0.00    -0.290 C 
ATOM     21  O   LIG    1        9.137  -5.731  -1.649  0.00  0.00    -0.930 OA
ATOM     22  O   LIG    1        8.366  -3.992  -3.212  0.00  0.00    -0.930 OA
ATOM     23  C   LIG    1        7.649  -3.959   0.520  0.00  0.00    +0.150 C 
BRANCH  23  24
ATOM     24  N   LIG    1        7.314  -2.916   1.499  0.00  0.00    -0.500 NA
ATOM     25  C   LIG    1        6.431  -3.453   2.566  0.00  0.00    +0.170 C 
ATOM     26  C   LIG    1        6.617  -2.438   3.723  0.00  0.00    +0.030 C 
ATOM     27  C   LIG    1        8.119  -2.082   3.632  0.00  0.00    +0.020 C 
ATOM     28  C   LIG    1        8.527  -2.425   2.187  0.00  0.00    +0.180 C 
ENDBRANCH  23  24
ENDBRANCH   2  17
TORSDOF 4
