REMARK  Name = ZINCrD000000f3Hl.0
REMARK                            x       y       z     vdW  Elec       q    Type
REMARK                         _______ _______ _______ _____ _____    ______ ____
ROOT
ATOM      1  C   LIG    1       -4.462   0.604   0.287  0.00  0.00    +0.150 A 
ATOM      2  N   LIG    1       -3.430   1.165   0.881  0.00  0.00    -0.240 NA
ATOM      3  N   LIG    1       -2.348   0.763   0.309  0.00  0.00    -0.250 N 
ATOM      4  C   LIG    1       -2.689  -0.088  -0.699  0.00  0.00    +0.280 A 
ATOM      5  N   LIG    1       -4.004  -0.184  -0.701  0.00  0.00    -0.460 NA
ENDROOT
BRANCH   4   6
ATOM      6  C   LIG    1       -1.758  -0.778  -1.619  0.00  0.00    -0.040 A 
ATOM      7  C   LIG    1       -0.555  -0.171  -1.983  0.00  0.00    +0.020 A 
ATOM      8  C   LIG    1        0.312  -0.822  -2.837  0.00  0.00    +0.010 A 
ATOM      9  C   LIG    1       -0.015  -2.069  -3.340  0.00  0.00    +0.040 A 
ATOM     10  C   LIG    1       -1.208  -2.673  -2.987  0.00  0.00    +0.010 A 
ATOM     11  C   LIG    1       -2.081  -2.035  -2.130  0.00  0.00    +0.070 A 
ENDBRANCH   4   6
BRANCH   3  12
ATOM     12  C   LIG    1       -1.046   1.140   0.659  0.00  0.00    +0.120 A 
ATOM     13  C   LIG    1       -0.041   0.184   0.735  0.00  0.00    +0.080 A 
ATOM     14  C   LIG    1        1.244   0.560   1.075  0.00  0.00    +0.050 A 
ATOM     15  C   LIG    1        1.529   1.886   1.346  0.00  0.00    +0.100 A 
ATOM     16  C   LIG    1        0.529   2.839   1.277  0.00  0.00    -0.170 A 
ATOM     17  C   LIG    1       -0.757   2.470   0.938  0.00  0.00    +0.110 A 
BRANCH  16  18
ATOM     18  C   LIG    1        0.845   4.283   1.572  0.00  0.00    +0.510 C 
ATOM     19  F   LIG    1        0.072   4.717   2.654  0.00  0.00    -0.170 F 
ATOM     20  F   LIG    1        0.554   5.063   0.448  0.00  0.00    -0.170 F 
ATOM     21  F   LIG    1        2.202   4.409   1.888  0.00  0.00    -0.170 F 
ENDBRANCH  16  18
ENDBRANCH   3  12
BRANCH   1  24
ATOM     22  N   LIG    1       -6.848   0.169  -0.047  0.00  0.00    -0.710 N 
ATOM     23  H   LIG    1       -6.612  -0.422  -0.779  0.00  0.00    +0.410 HD
ATOM     24  C   LIG    1       -5.882   0.806   0.644  0.00  0.00    +0.620 C 
ATOM     25  O   LIG    1       -6.179   1.546   1.562  0.00  0.00    -0.510 OA
BRANCH  22  26
ATOM     26  C   LIG    1       -8.256   0.369   0.308  0.00  0.00    +0.430 C 
BRANCH  26  28
ATOM     27  C   LIG    1       -9.784  -1.068  -1.304  0.00  0.00    +0.060 C 
ATOM     28  C   LIG    1       -9.106  -0.431  -0.589  0.00  0.00    -0.220 C 
ENDBRANCH  26  28
ENDBRANCH  22  26
ENDBRANCH   1  24
TORSDOF 6
