REMARK  Name = ZINCpk00000xIbpt.0
REMARK                            x       y       z     vdW  Elec       q    Type
REMARK                         _______ _______ _______ _____ _____    ______ ____
ROOT
ATOM      1  C   LIG    1        0.102  -4.694   3.753  0.00  0.00    +0.500 C 
ATOM      2  N   LIG    1        0.081  -4.014   2.590  0.00  0.00    -0.690 N 
ATOM      3  H   LIG    1        0.080  -4.495   1.747  0.00  0.00    +0.410 HD
ATOM      4  C   LIG    1        0.063  -2.667   2.597  0.00  0.00    +0.690 C 
ATOM      5  N   LIG    1        0.043  -1.987   1.434  0.00  0.00    -0.740 N 
ATOM      6  H   LIG    1        0.041  -2.467   0.591  0.00  0.00    +0.400 HD
ATOM      7  O   LIG    1        0.065  -2.065   3.653  0.00  0.00    -0.520 OA
ATOM      8  O   LIG    1        0.103  -4.094   4.806  0.00  0.00    -0.440 OA
ENDROOT
BRANCH   1   9
ATOM      9  C   LIG    1        0.122  -6.201   3.745  0.00  0.00    +0.380 C 
BRANCH   9  13
ATOM     10  C   LIG    1        1.806  -7.772   8.151  0.00  0.00    +0.340 C 
ATOM     11  N   LIG    1        0.887  -7.393   7.074  0.00  0.00    -0.540 N 
ATOM     12  C   LIG    1        1.244  -6.954   5.852  0.00  0.00    +0.690 A 
ATOM     13  N   LIG    1        0.142  -6.697   5.123  0.00  0.00    -0.530 N 
ATOM     14  C   LIG    1       -0.977  -6.988   5.901  0.00  0.00    +0.090 A 
ATOM     15  C   LIG    1       -2.341  -6.917   5.669  0.00  0.00    +0.030 A 
ATOM     16  C   LIG    1       -3.228  -7.285   6.662  0.00  0.00    +0.020 A 
ATOM     17  C   LIG    1       -2.759  -7.722   7.889  0.00  0.00    +0.030 A 
ATOM     18  C   LIG    1       -1.401  -7.795   8.130  0.00  0.00    +0.030 A 
ATOM     19  O   LIG    1        2.389  -6.810   5.466  0.00  0.00    -0.550 OA
ATOM     20  C   LIG    1       -0.503  -7.429   7.139  0.00  0.00    +0.100 A 
ENDBRANCH   9  13
ENDBRANCH   1   9
BRANCH   5  21
ATOM     21  C   LIG    1        0.023  -0.522   1.442  0.00  0.00    +0.290 C 
BRANCH  21  22
ATOM     22  C   LIG    1        0.002  -0.004   0.002  0.00  0.00    +0.110 C 
BRANCH  22  23
ATOM     23  C   LIG    1       -0.018   1.503   0.010  0.00  0.00    -0.180 A 
ATOM     24  C   LIG    1        1.061   2.287   0.004  0.00  0.00    +0.010 A 
ATOM     25  C   LIG    1        0.795   3.645   0.014  0.00  0.00    +0.000 A 
ATOM     26  C   LIG    1       -0.499   3.965   0.027  0.00  0.00    -0.040 A 
ATOM     27  S   LIG    1       -1.469   2.497   0.022  0.00  0.00    +0.100 S 
ENDBRANCH  22  23
ENDBRANCH  21  22
ENDBRANCH   5  21
TORSDOF 5
