REMARK  Name = ZINCtV00001bB3Sr.0
REMARK                            x       y       z     vdW  Elec       q    Type
REMARK                         _______ _______ _______ _____ _____    ______ ____
ROOT
ATOM      1  C   LIG    1        1.060   1.801   2.952  0.00  0.00    +0.580 A 
ATOM      2  N   LIG    1        1.421   2.906   2.331  0.00  0.00    -0.570 NA
ATOM      3  C   LIG    1        2.459   3.635   2.764  0.00  0.00    +0.210 A 
ATOM      4  C   LIG    1        2.862   4.813   2.121  0.00  0.00    +0.020 A 
ATOM      5  C   LIG    1        3.926   5.515   2.607  0.00  0.00    +0.060 A 
ATOM      6  C   LIG    1        4.619   5.080   3.732  0.00  0.00    -0.010 A 
ATOM      7  C   LIG    1        4.252   3.937   4.383  0.00  0.00    +0.060 A 
ATOM      8  C   LIG    1        3.167   3.196   3.910  0.00  0.00    -0.200 A 
ATOM      9  C   LIG    1        2.722   1.961   4.560  0.00  0.00    +0.340 A 
ATOM     10  N   LIG    1        1.673   1.332   4.032  0.00  0.00    -0.550 NA
ENDROOT
BRANCH   9  11
ATOM     11  C   LIG    1        3.403   1.439   5.752  0.00  0.00    -0.180 A 
ATOM     12  C   LIG    1        2.790   0.799   6.790  0.00  0.00    +0.090 A 
ATOM     13  C   LIG    1        3.633   0.398   7.793  0.00  0.00    +0.020 A 
ATOM     14  C   LIG    1        4.945   0.711   7.596  0.00  0.00    -0.140 A 
ATOM     15  S   LIG    1        5.130   1.551   6.063  0.00  0.00    +0.200 S 
BRANCH  14  16
ATOM     16  C   LIG    1        6.045   0.393   8.530  0.00  0.00    -0.020 A 
ATOM     17  C   LIG    1        5.777  -0.276   9.726  0.00  0.00    +0.050 A 
ATOM     18  C   LIG    1        6.809  -0.575  10.591  0.00  0.00    +0.040 A 
ATOM     19  C   LIG    1        8.107  -0.204  10.280  0.00  0.00    -0.030 A 
ATOM     20  C   LIG    1        8.377   0.464   9.097  0.00  0.00    +0.040 A 
ATOM     21 CL   LIG    1        9.399  -0.578  11.377  0.00  0.00    -0.060 Cl
ATOM     22  C   LIG    1        7.355   0.764   8.222  0.00  0.00    +0.030 A 
ENDBRANCH  14  16
ENDBRANCH   9  11
BRANCH   1  23
ATOM     23  N   LIG    1       -0.020   1.094   2.454  0.00  0.00    -0.690 N 
ATOM     24  H   LIG    1       -0.308   0.277   2.890  0.00  0.00    +0.410 HD
BRANCH  23  25
ATOM     25  C   LIG    1       -0.729   1.579   1.267  0.00  0.00    +0.260 C 
ATOM     26  C   LIG    1       -0.013   1.086   0.008  0.00  0.00    +0.020 C 
BRANCH  25  28
ATOM     27  C   LIG    1       -2.143  -0.480   1.269  0.00  0.00    +0.030 C 
ATOM     28  C   LIG    1       -2.164   1.050   1.278  0.00  0.00    -0.020 C 
BRANCH  28  29
ATOM     29  C   LIG    1       -2.904   1.556   0.038  0.00  0.00    +0.180 C 
BRANCH  29  30
ATOM     30  O   LIG    1       -4.275   1.159   0.106  0.00  0.00    -0.570 OA
ATOM     31  H   LIG    1       -4.806   1.447  -0.649  0.00  0.00    +0.380 HD
ENDBRANCH  29  30
ENDBRANCH  28  29
ENDBRANCH  25  28
ENDBRANCH  23  25
ENDBRANCH   1  23
TORSDOF 7
