REMARK  Name = ZINC670000003WiG.0
REMARK                            x       y       z     vdW  Elec       q    Type
REMARK                         _______ _______ _______ _____ _____    ______ ____
ROOT
ATOM      1  C   LIG    1       -1.187   1.624   0.017  0.00  0.00    +0.650 C 
ATOM      2  O   LIG    1       -2.231   1.002   0.018  0.00  0.00    -0.580 OA
ATOM      3  N   LIG    1       -0.011   0.966   0.007  0.00  0.00    -0.830 N 
ATOM      4  H   LIG    1        0.822   1.462   0.002  0.00  0.00    +0.410 HD
ATOM      5  H   LIG    1        0.002  -0.004   0.002  0.00  0.00    +0.430 HD
ENDROOT
BRANCH   1   6
ATOM      6  O   LIG    1       -1.206   2.970   0.024  0.00  0.00    -0.370 OA
BRANCH   6   8
ATOM      7  C   LIG    1       -2.328   5.131   0.041  0.00  0.00    +0.070 C 
ATOM      8  C   LIG    1       -2.508   3.611   0.034  0.00  0.00    +0.220 C 
ENDBRANCH   6   8
ENDBRANCH   1   6
TORSDOF 2
