REMARK  Name = ZINCvU00000004vQ.0
REMARK                            x       y       z     vdW  Elec       q    Type
REMARK                         _______ _______ _______ _____ _____    ______ ____
ROOT
ATOM      1  C   LIG    1        3.055   4.107  -0.022  0.00  0.00    +0.020 C 
ATOM      2  C   LIG    1        3.659   3.557   1.272  0.00  0.00    +0.090 C 
ENDROOT
BRANCH   1   5
ATOM      3  N   LIG    1        4.525   5.995  -0.651  0.00  0.00    -0.660 N 
ATOM      4  H   LIG    1        5.208   5.347  -0.884  0.00  0.00    +0.410 HD
ATOM      5  C   LIG    1        3.354   5.580  -0.129  0.00  0.00    +0.530 C 
ATOM      6  O   LIG    1        2.539   6.393   0.254  0.00  0.00    -0.500 OA
BRANCH   3  12
ATOM      7  C   LIG    1        6.055   7.849  -0.884  0.00  0.00    -0.100 A 
ATOM      8  C   LIG    1        6.279   9.196  -1.093  0.00  0.00    +0.030 A 
ATOM      9  C   LIG    1        5.211  10.058  -1.266  0.00  0.00    -0.010 A 
ATOM     10  C   LIG    1        3.917   9.574  -1.234  0.00  0.00    +0.030 A 
ATOM     11  C   LIG    1        3.686   8.227  -1.031  0.00  0.00    +0.010 A 
ATOM     12  C   LIG    1        4.755   7.359  -0.858  0.00  0.00    +0.150 A 
BRANCH   7  13
ATOM     13  C   LIG    1        7.219   6.912  -0.689  0.00  0.00    +0.020 C 
ATOM     14  C   LIG    1        8.183   7.044  -1.870  0.00  0.00    +0.030 C 
BRANCH  13  16
ATOM     15  C   LIG    1        9.053   6.241   0.869  0.00  0.00    +0.010 C 
ATOM     16  C   LIG    1        7.949   7.268   0.607  0.00  0.00    +0.020 C 
ENDBRANCH  13  16
ENDBRANCH   7  13
ENDBRANCH   3  12
ENDBRANCH   1   5
BRANCH   1  17
ATOM     17  S   LIG    1        1.263   3.854  -0.008  0.00  0.00    +0.070 S 
BRANCH  17  18
ATOM     18  C   LIG    1        1.203   2.093  -0.031  0.00  0.00    +0.230 A 
ATOM     19  C   LIG    1       -0.031   1.413  -0.028  0.00  0.00    -0.260 A 
ATOM     20  C   LIG    1       -1.384   1.812  -0.004  0.00  0.00    +0.320 A 
ATOM     21  N   LIG    1       -2.131   0.744  -0.015  0.00  0.00    -0.230 NA
ATOM     22  N   LIG    1       -1.321  -0.398  -0.039  0.00  0.00    -0.330 N 
ATOM     23  C   LIG    1       -0.016   0.004  -0.047  0.00  0.00    +0.360 A 
ATOM     24  N   LIG    1        1.157  -0.626  -0.068  0.00  0.00    -0.530 NA
ATOM     25  C   LIG    1        2.284   0.053  -0.070  0.00  0.00    +0.570 A 
ATOM     26  N   LIG    1        2.321   1.373  -0.052  0.00  0.00    -0.550 NA
BRANCH  22  27
ATOM     27  C   LIG    1       -1.772  -1.724  -0.053  0.00  0.00    +0.150 A 
ATOM     28  C   LIG    1       -1.074  -2.689  -0.767  0.00  0.00    +0.020 A 
ATOM     29  C   LIG    1       -1.517  -3.997  -0.774  0.00  0.00    +0.030 A 
ATOM     30  C   LIG    1       -2.661  -4.344  -0.079  0.00  0.00    +0.010 A 
ATOM     31  C   LIG    1       -3.362  -3.385   0.628  0.00  0.00    +0.030 A 
ATOM     32  C   LIG    1       -2.920  -2.076   0.644  0.00  0.00    +0.020 A 
ENDBRANCH  22  27
ENDBRANCH  17  18
ENDBRANCH   1  17
TORSDOF 7
