REMARK  Name = ZINCkj000005kvCW.0
REMARK                            x       y       z     vdW  Elec       q    Type
REMARK                         _______ _______ _______ _____ _____    ______ ____
ROOT
ATOM      1  C   LIG    1       -0.823  -0.696  -0.809  0.00  0.00    +0.590 C 
ATOM      2  N   LIG    1        0.177  -0.009  -0.221  0.00  0.00    -0.530 N 
ATOM      3  C   LIG    1        0.371   1.419  -0.507  0.00  0.00    +0.330 C 
ATOM      4  C   LIG    1        1.871   1.652  -0.730  0.00  0.00    +0.150 C 
ATOM      5  C   LIG    1        2.619   1.327   0.562  0.00  0.00    +0.120 C 
ATOM      6  C   LIG    1        2.229  -0.036   1.069  0.00  0.00    -0.130 A 
ATOM      7  C   LIG    1        3.072  -0.690   1.950  0.00  0.00    +0.040 A 
ATOM      8  C   LIG    1        2.740  -1.941   2.436  0.00  0.00    +0.000 A 
ATOM      9  C   LIG    1        1.561  -2.547   2.044  0.00  0.00    +0.060 A 
ATOM     10  C   LIG    1        0.714  -1.902   1.164  0.00  0.00    +0.030 A 
ATOM     11  C   LIG    1        1.047  -0.645   0.673  0.00  0.00    +0.150 A 
ATOM     12  O   LIG    1       -0.893  -1.901  -0.674  0.00  0.00    -0.450 OA
ENDROOT
BRANCH   1  18
ATOM     13  C   LIG    1       -4.606  -0.880  -3.879  0.00  0.00    +0.160 C 
ATOM     14  C   LIG    1       -3.623  -0.075  -3.069  0.00  0.00    +0.190 A 
ATOM     15  C   LIG    1       -3.669   1.312  -3.085  0.00  0.00    -0.030 A 
ATOM     16  C   LIG    1       -2.744   2.015  -2.324  0.00  0.00    +0.320 A 
ATOM     17  N   LIG    1       -1.858   1.345  -1.609  0.00  0.00    -0.520 NA
ATOM     18  C   LIG    1       -1.838   0.021  -1.621  0.00  0.00    +0.280 A 
ATOM     19  N   LIG    1       -2.706  -0.680  -2.336  0.00  0.00    -0.460 NA
ENDBRANCH   1  18
BRANCH   4  20
ATOM     20  N   LIG    1        2.102   3.057  -1.093  0.00  0.00    -0.630 N 
ATOM     21  H   LIG    1        1.599   3.272  -1.941  0.00  0.00    +0.440 HD
ATOM     22  H   LIG    1        3.089   3.209  -1.239  0.00  0.00    +0.440 HD
ATOM     23  H   LIG    1        1.777   3.654  -0.348  0.00  0.00    +0.440 HD
ENDBRANCH   4  20
TORSDOF 2
