REMARK  Name = ZINCqH0000051ybc.0
REMARK                            x       y       z     vdW  Elec       q    Type
REMARK                         _______ _______ _______ _____ _____    ______ ____
ROOT
ATOM      1  C   LIG    1        7.187   2.916  -0.048  0.00  0.00    +0.270 C 
ENDROOT
BRANCH   1   2
ATOM      2  C   LIG    1        7.971   4.204  -0.049  0.00  0.00    -0.070 A 
ATOM      3  C   LIG    1        8.272   4.826  -1.247  0.00  0.00    +0.030 A 
ATOM      4  C   LIG    1        8.984   6.008  -1.254  0.00  0.00    +0.030 A 
ATOM      5  C   LIG    1        9.411   6.569  -0.050  0.00  0.00    -0.120 A 
ATOM      6  C   LIG    1        9.108   5.933   1.156  0.00  0.00    +0.080 A 
ATOM      7  C   LIG    1        8.391   4.755   1.149  0.00  0.00    +0.030 A 
BRANCH   5   8
ATOM      8  C   LIG    1       10.179   7.832  -0.050  0.00  0.00    +0.570 C 
ATOM      9  N   LIG    1       10.607   8.360  -1.214  0.00  0.00    -0.620 N 
ATOM     10  C   LIG    1       10.297   7.843  -2.555  0.00  0.00    +0.250 C 
ATOM     11  C   LIG    1       11.020   8.749  -3.574  0.00  0.00    +0.030 C 
ATOM     12  C   LIG    1       12.160   9.377  -2.729  0.00  0.00    +0.040 C 
ATOM     13  C   LIG    1       11.470   9.547  -1.353  0.00  0.00    +0.250 C 
ATOM     14  O   LIG    1       10.424   8.395   0.999  0.00  0.00    -0.530 OA
ENDBRANCH   5   8
ENDBRANCH   1   2
BRANCH   1  15
ATOM     15  O   LIG    1        5.769   3.213   0.035  0.00  0.00    -0.350 OA
BRANCH  15  17
ATOM     16  O   LIG    1        5.360   1.030  -0.012  0.00  0.00    -0.510 OA
ATOM     17  C   LIG    1        4.923   2.163   0.046  0.00  0.00    +0.540 C 
BRANCH  17  18
ATOM     18  C   LIG    1        3.475   2.387   0.128  0.00  0.00    -0.230 A 
ATOM     19  C   LIG    1        2.838   3.592   0.199  0.00  0.00    +0.340 A 
ATOM     20  N   LIG    1        1.499   3.399   0.262  0.00  0.00    -0.580 N 
ATOM     21  H   LIG    1        0.840   4.108   0.319  0.00  0.00    +0.420 HD
ATOM     22  C   LIG    1        1.205   2.051   0.236  0.00  0.00    +0.080 A 
ATOM     23  C   LIG    1        0.012   1.337   0.276  0.00  0.00    +0.000 A 
ATOM     24  C   LIG    1        0.034  -0.041   0.232  0.00  0.00    +0.030 A 
ATOM     25  C   LIG    1        1.237  -0.726   0.148  0.00  0.00    +0.000 A 
ATOM     26  C   LIG    1        2.429  -0.036   0.107  0.00  0.00    +0.060 A 
ATOM     27  C   LIG    1        2.421   1.356   0.151  0.00  0.00    -0.060 A 
ENDBRANCH  17  18
ENDBRANCH  15  17
ENDBRANCH   1  15
TORSDOF 5
