REMARK  Name = ZINCpe000000TKRq.0
REMARK                            x       y       z     vdW  Elec       q    Type
REMARK                         _______ _______ _______ _____ _____    ______ ____
ROOT
ATOM      1  C   LIG    1       -1.244  -2.135   0.003  0.00  0.00    +0.270 C 
ENDROOT
BRANCH   1   2
ATOM      2  N   LIG    1       -2.643  -2.570   0.013  0.00  0.00    -0.710 N 
ATOM      3  H   LIG    1       -3.076  -2.788   0.853  0.00  0.00    +0.400 HD
ATOM      4  C   LIG    1       -3.328  -2.666  -1.143  0.00  0.00    +0.510 C 
ATOM      5  O   LIG    1       -2.786  -2.393  -2.193  0.00  0.00    -0.520 OA
BRANCH   4   6
ATOM      6  C   LIG    1       -4.767  -3.113  -1.132  0.00  0.00    +0.280 C 
BRANCH   6   7
ATOM      7  C   LIG    1       -4.846  -4.540  -0.653  0.00  0.00    -0.130 A 
ATOM      8  C   LIG    1       -4.572  -5.578  -1.524  0.00  0.00    +0.010 A 
ATOM      9  C   LIG    1       -4.641  -6.886  -1.083  0.00  0.00    +0.010 A 
ATOM     10  C   LIG    1       -4.992  -7.157   0.226  0.00  0.00    +0.020 A 
ATOM     11  C   LIG    1       -5.271  -6.120   1.096  0.00  0.00    +0.030 A 
ATOM     12  C   LIG    1       -5.198  -4.811   0.656  0.00  0.00    +0.010 A 
ENDBRANCH   6   7
BRANCH   6  13
ATOM     13  O   LIG    1       -5.304  -3.024  -2.453  0.00  0.00    -0.520 OA
ATOM     14  H   LIG    1       -4.841  -3.570  -3.104  0.00  0.00    +0.380 HD
ENDBRANCH   6  13
ENDBRANCH   4   6
ENDBRANCH   1   2
BRANCH   1  15
ATOM     15  C   LIG    1       -1.185  -0.630   0.010  0.00  0.00    +0.460 C 
ATOM     16  O   LIG    1       -2.208   0.015   0.023  0.00  0.00    -0.490 OA
BRANCH  15  17
ATOM     17  O   LIG    1        0.002  -0.004   0.002  0.00  0.00    -0.360 OA
BRANCH  17  19
ATOM     18  C   LIG    1        1.418   1.977  -0.001  0.00  0.00    +0.070 C 
ATOM     19  C   LIG    1       -0.018   1.448   0.010  0.00  0.00    +0.200 C 
ENDBRANCH  17  19
ENDBRANCH  15  17
ENDBRANCH   1  15
BRANCH   1  20
ATOM     20  C   LIG    1       -0.531  -2.680   1.242  0.00  0.00    +0.300 C 
BRANCH  20  21
ATOM     21  C   LIG    1       -0.590  -4.186   1.234  0.00  0.00    -0.180 A 
ATOM     22  C   LIG    1        0.500  -4.928   0.806  0.00  0.00    +0.080 A 
ATOM     23  C   LIG    1        0.403  -6.311   0.822  0.00  0.00    -0.030 A 
ATOM     24  C   LIG    1       -0.772  -6.899   1.250  0.00  0.00    +0.270 A 
ATOM     25  N   LIG    1       -1.791  -6.161   1.645  0.00  0.00    -0.460 NA
ATOM     26  C   LIG    1       -1.732  -4.844   1.650  0.00  0.00    +0.260 A 
ENDBRANCH  20  21
BRANCH  20  27
ATOM     27  O   LIG    1       -1.175  -2.184   2.418  0.00  0.00    -0.540 OA
ATOM     28  H   LIG    1       -2.106  -2.434   2.491  0.00  0.00    +0.370 HD
ENDBRANCH  20  27
ENDBRANCH   1  20
TORSDOF 10
