REMARK  Name = ZINCrH000004vBi9.0
REMARK                            x       y       z     vdW  Elec       q    Type
REMARK                         _______ _______ _______ _____ _____    ______ ____
ROOT
ATOM      1  O   LIG    1        1.600   5.764  -1.263  0.00  0.00    -0.530 OA
ATOM      2  C   LIG    1        1.044   4.918  -1.937  0.00  0.00    +0.570 C 
ATOM      3  N   LIG    1        1.165   3.615  -1.617  0.00  0.00    -0.610 N 
ATOM      4  C   LIG    1        2.032   3.193  -0.508  0.00  0.00    +0.290 C 
ATOM      5  C   LIG    1        3.010   2.132  -1.023  0.00  0.00    +0.020 C 
ATOM      6  C   LIG    1        2.224   0.992  -1.675  0.00  0.00    +0.230 C 
ATOM      7  C   LIG    1        1.429   1.534  -2.865  0.00  0.00    +0.000 C 
ATOM      8  C   LIG    1        0.433   2.588  -2.371  0.00  0.00    +0.280 C 
ENDROOT
BRANCH   2   9
ATOM      9  C   LIG    1        0.237   5.320  -3.106  0.00  0.00    -0.120 A 
ATOM     10  C   LIG    1       -1.067   4.843  -3.252  0.00  0.00    +0.060 A 
ATOM     11  C   LIG    1       -1.822   5.218  -4.344  0.00  0.00    +0.020 A 
ATOM     12  C   LIG    1       -1.283   6.070  -5.298  0.00  0.00    +0.090 A 
ATOM     13  O   LIG    1       -2.025   6.443  -6.379  0.00  0.00    -0.320 OA
ATOM     14  C   LIG    1       -2.414   7.817  -6.426  0.00  0.00    +0.230 C 
ATOM     15  C   LIG    1       -1.310   8.671  -7.031  0.00  0.00    -0.010 C 
ATOM     16  C   LIG    1       -0.055   8.688  -6.172  0.00  0.00    +0.230 C 
ATOM     17  O   LIG    1        0.530   7.386  -6.104  0.00  0.00    -0.320 OA
ATOM     18  C   LIG    1        0.015   6.549  -5.157  0.00  0.00    +0.060 A 
ATOM     19  C   LIG    1        0.775   6.184  -4.065  0.00  0.00    +0.070 A 
ENDBRANCH   2   9
BRANCH   6  20
ATOM     20  N   LIG    1        3.154  -0.040  -2.138  0.00  0.00    -0.740 N 
ATOM     21  H   LIG    1        4.072   0.193  -2.347  0.00  0.00    +0.400 HD
BRANCH  20  22
ATOM     22  C   LIG    1        2.719  -1.361  -2.279  0.00  0.00    +0.210 A 
ATOM     23  C   LIG    1        1.406  -1.697  -1.974  0.00  0.00    -0.040 A 
ATOM     24  C   LIG    1        0.977  -3.002  -2.119  0.00  0.00    +0.030 A 
ATOM     25  C   LIG    1        1.858  -3.977  -2.558  0.00  0.00    +0.040 A 
ATOM     26  C   LIG    1        3.168  -3.645  -2.857  0.00  0.00    +0.030 A 
ATOM     27  F   LIG    1        1.437  -5.254  -2.694  0.00  0.00    -0.150 F 
ATOM     28  C   LIG    1        3.600  -2.341  -2.719  0.00  0.00    -0.040 A 
ENDBRANCH  20  22
ENDBRANCH   6  20
TORSDOF 3
