REMARK  Name = ZINCfA000000bq5D.0
REMARK                            x       y       z     vdW  Elec       q    Type
REMARK                         _______ _______ _______ _____ _____    ______ ____
ROOT
ATOM      1  C   LIG    1       -2.241   3.637   2.900  0.00  0.00    +0.340 C 
ENDROOT
BRANCH   1   9
ATOM      2  F   LIG    1       -3.565   6.158   2.970  0.00  0.00    -0.110 F 
ATOM      3  C   LIG    1       -4.040   5.173   3.764  0.00  0.00    +0.080 A 
ATOM      4  C   LIG    1       -5.140   5.396   4.575  0.00  0.00    +0.300 A 
ATOM      5  N   LIG    1       -5.606   4.442   5.357  0.00  0.00    -0.420 NA
ATOM      6  C   LIG    1       -5.053   3.245   5.395  0.00  0.00    +0.330 A 
ATOM      7  C   LIG    1       -3.956   2.946   4.609  0.00  0.00    -0.110 A 
ATOM      8 BR   LIG    1       -3.172   1.226   4.672  0.00  0.00    +0.010 Br
ATOM      9  C   LIG    1       -3.436   3.923   3.773  0.00  0.00    -0.130 A 
ENDBRANCH   1   9
BRANCH   1  10
ATOM     10  N   LIG    1       -2.696   3.124   1.601  0.00  0.00    -0.500 N 
ATOM     11  H   LIG    1       -3.221   2.274   1.740  0.00  0.00    +0.430 HD
ATOM     12  H   LIG    1       -3.282   3.812   1.154  0.00  0.00    +0.430 HD
BRANCH  10  13
ATOM     13  C   LIG    1       -1.531   2.845   0.750  0.00  0.00    +0.160 C 
ATOM     14  C   LIG    1       -0.763   1.597   1.255  0.00  0.00    +0.050 C 
ATOM     15  C   LIG    1       -0.013   1.086   0.008  0.00  0.00    +0.050 C 
ATOM     16  C   LIG    1       -0.784   1.609  -1.216  0.00  0.00    +0.050 C 
ATOM     17  C   LIG    1       -1.978   2.421  -0.670  0.00  0.00    +0.050 C 
ENDBRANCH  10  13
ENDBRANCH   1  10
TORSDOF 3
