REMARK  Name = ZINCrg000000sOBU.0
REMARK                            x       y       z     vdW  Elec       q    Type
REMARK                         _______ _______ _______ _____ _____    ______ ____
ROOT
ATOM      1  N   LIG    1       -1.430   1.987   0.548  0.00  0.00    -0.680 N 
ATOM      2  H   LIG    1       -1.531   2.921   0.790  0.00  0.00    +0.410 HD
ATOM      3  C   LIG    1       -2.514   1.256   0.217  0.00  0.00    +0.500 C 
ATOM      4  O   LIG    1       -2.381   0.112  -0.162  0.00  0.00    -0.470 OA
ENDROOT
BRANCH   1   9
ATOM      5  C   LIG    1        1.253  -0.517   0.886  0.00  0.00    -0.020 A 
ATOM      6  C   LIG    1        2.366   0.248   0.536  0.00  0.00    +0.010 A 
ATOM      7  C   LIG    1        2.210   1.576   0.193  0.00  0.00    +0.040 A 
ATOM      8  C   LIG    1        0.954   2.152   0.194  0.00  0.00    +0.020 A 
ATOM      9  C   LIG    1       -0.161   1.398   0.542  0.00  0.00    +0.150 A 
ATOM     10  C   LIG    1       -0.014   0.064   0.888  0.00  0.00    +0.090 A 
BRANCH   5  16
ATOM     11  C   LIG    1        3.695  -2.357   0.235  0.00  0.00    +0.400 C 
ATOM     12  N   LIG    1        2.482  -2.731   0.967  0.00  0.00    -0.380 N 
ATOM     13  N   LIG    1        2.172  -3.984   1.523  0.00  0.00    -0.080 NA
ATOM     14  N   LIG    1        1.012  -3.872   2.074  0.00  0.00    -0.040 NA
ATOM     15  N   LIG    1        0.561  -2.679   1.929  0.00  0.00    -0.310 NA
ATOM     16  C   LIG    1        1.418  -1.941   1.255  0.00  0.00    +0.290 A 
ENDBRANCH   5  16
ENDBRANCH   1   9
BRANCH   3  17
ATOM     17  C   LIG    1       -3.890   1.862   0.319  0.00  0.00    +0.280 C 
BRANCH  17  18
ATOM     18  N   LIG    1       -4.822   1.096  -0.513  0.00  0.00    -0.730 N 
ATOM     19  H   LIG    1       -5.295   1.532  -1.239  0.00  0.00    +0.400 HD
ATOM     20  C   LIG    1       -5.024  -0.214  -0.269  0.00  0.00    +0.710 C 
ATOM     21  O   LIG    1       -4.432  -0.760   0.642  0.00  0.00    -0.560 OA
ATOM     22  N   LIG    1       -5.882  -0.918  -1.033  0.00  0.00    -0.870 N 
ATOM     23  H   LIG    1       -6.027  -1.861  -0.858  0.00  0.00    +0.420 HD
ATOM     24  H   LIG    1       -6.354  -0.481  -1.760  0.00  0.00    +0.390 HD
ENDBRANCH  17  18
BRANCH  17  25
ATOM     25  C   LIG    1       -4.357   1.825   1.775  0.00  0.00    +0.100 C 
BRANCH  25  26
ATOM     26  C   LIG    1       -5.679   2.539   1.897  0.00  0.00    -0.080 A 
ATOM     27  C   LIG    1       -5.709   3.894   2.169  0.00  0.00    +0.000 A 
ATOM     28  C   LIG    1       -6.921   4.551   2.276  0.00  0.00    +0.000 A 
ATOM     29  C   LIG    1       -8.103   3.850   2.121  0.00  0.00    +0.000 A 
ATOM     30  C   LIG    1       -8.072   2.494   1.854  0.00  0.00    +0.000 A 
ATOM     31  C   LIG    1       -6.860   1.839   1.742  0.00  0.00    +0.020 A 
ENDBRANCH  25  26
ENDBRANCH  17  25
ENDBRANCH   3  17
TORSDOF 6
